MODEL 1
REMARK VINA RESULT:      -6.4      0.000      0.000
REMARK  Name = 
REMARK  8 active torsions:
REMARK  status: ('A' for Active; 'I' for Inactive)
REMARK    1  A    between atoms: C_1  and  C_2
REMARK    2  A    between atoms: C_2  and  N_3
REMARK    3  A    between atoms: N_3  and  C_4
REMARK    4  A    between atoms: N_3  and  S_6
REMARK    5  A    between atoms: C_4  and  C_5
REMARK    6  A    between atoms: S_6  and  C_9
REMARK    7  A    between atoms: C_12  and  C_13
REMARK    8  A    between atoms: C_16  and  C_17
REMARK                            x       y       z     vdW  Elec       q    Type
REMARK                         _______ _______ _______ _____ _____    ______ ____
ROOT
ATOM      1  C   UNL     1       3.819   5.910  18.179  0.00  0.00    +0.000 A 
ATOM      2  C   UNL     1       3.768   7.035  17.377  0.00  0.00    +0.000 A 
ATOM      3  C   UNL     1       2.925   8.047  17.920  0.00  0.00    +0.000 A 
ATOM      4  C   UNL     1       2.368   7.667  19.124  0.00  0.00    +0.000 A 
ATOM      5  S   UNL     1       2.872   6.103  19.589  0.00  0.00    +0.000 S 
ENDROOT
BRANCH   4   6
ATOM      6  C   UNL     1       1.416   8.538  19.892  0.00  0.00    +0.000 A 
ATOM      7  C   UNL     1       0.707   9.588  19.347  0.00  0.00    +0.000 A 
ATOM      8  S   UNL     1      -0.219  10.366  20.561  0.00  0.00    +0.000 S 
ATOM      9  C   UNL     1       0.398   9.261  21.723  0.00  0.00    +0.000 A 
ATOM     10  C   UNL     1       0.030   9.391  23.161  0.00  0.00    +0.000 C 
ATOM     11  N   UNL     1       1.213   8.342  21.251  0.00  0.00    +0.000 NA
ENDBRANCH   4   6
BRANCH   1  12
ATOM     12  S   UNL     1       4.672   4.358  17.990  0.00  0.00    +0.000 S 
ATOM     13  O   UNL     1       3.732   3.476  17.335  0.00  0.00    +0.000 OA
ATOM     14  O   UNL     1       5.180   4.065  19.313  0.00  0.00    +0.000 OA
BRANCH  12  15
ATOM     15  N   UNL     1       6.024   4.594  16.955  0.00  0.00    +0.000 NA
BRANCH  15  17
ATOM     16  C   UNL     1       7.614   6.132  18.159  0.00  0.00    +0.000 C 
ATOM     17  C   UNL     1       7.322   4.717  17.681  0.00  0.00    +0.000 C 
ENDBRANCH  15  17
BRANCH  15  18
ATOM     18  C   UNL     1       6.031   3.697  15.761  0.00  0.00    +0.000 C 
ATOM     19  C   UNL     1       5.771   4.430  14.454  0.00  0.00    +0.000 C 
ENDBRANCH  15  18
ENDBRANCH  12  15
ENDBRANCH   1  12
TORSDOF 5
ENDMDL
MODEL 2
REMARK VINA RESULT:      -6.0      1.156      1.478
REMARK  Name = 
REMARK  8 active torsions:
REMARK  status: ('A' for Active; 'I' for Inactive)
REMARK    1  A    between atoms: C_1  and  C_2
REMARK    2  A    between atoms: C_2  and  N_3
REMARK    3  A    between atoms: N_3  and  C_4
REMARK    4  A    between atoms: N_3  and  S_6
REMARK    5  A    between atoms: C_4  and  C_5
REMARK    6  A    between atoms: S_6  and  C_9
REMARK    7  A    between atoms: C_12  and  C_13
REMARK    8  A    between atoms: C_16  and  C_17
REMARK                            x       y       z     vdW  Elec       q    Type
REMARK                         _______ _______ _______ _____ _____    ______ ____
ROOT
ATOM      1  C   UNL     1       3.762   5.254  18.845  0.00  0.00    +0.000 A 
ATOM      2  C   UNL     1       3.037   4.784  19.924  0.00  0.00    +0.000 A 
ATOM      3  C   UNL     1       2.169   5.776  20.464  0.00  0.00    +0.000 A 
ATOM      4  C   UNL     1       2.250   6.968  19.774  0.00  0.00    +0.000 A 
ATOM      5  S   UNL     1       3.364   6.876  18.482  0.00  0.00    +0.000 S 
ENDROOT
BRANCH   4   6
ATOM      6  C   UNL     1       1.461   8.187  20.156  0.00  0.00    +0.000 A 
ATOM      7  C   UNL     1       1.237   9.263  19.323  0.00  0.00    +0.000 A 
ATOM      8  S   UNL     1       0.347  10.472  20.150  0.00  0.00    +0.000 S 
ATOM      9  C   UNL     1       0.335   9.485  21.556  0.00  0.00    +0.000 A 
ATOM     10  C   UNL     1      -0.280   9.977  22.821  0.00  0.00    +0.000 C 
ATOM     11  N   UNL     1       0.918   8.312  21.427  0.00  0.00    +0.000 NA
ENDBRANCH   4   6
BRANCH   1  12
ATOM     12  S   UNL     1       4.994   4.480  17.817  0.00  0.00    +0.000 S 
ATOM     13  O   UNL     1       4.264   3.606  16.928  0.00  0.00    +0.000 OA
ATOM     14  O   UNL     1       5.966   3.958  18.754  0.00  0.00    +0.000 OA
BRANCH  12  15
ATOM     15  N   UNL     1       5.774   5.695  16.884  0.00  0.00    +0.000 NA
BRANCH  15  17
ATOM     16  C   UNL     1       7.476   7.435  17.532  0.00  0.00    +0.000 C 
ATOM     17  C   UNL     1       7.183   5.960  17.299  0.00  0.00    +0.000 C 
ENDBRANCH  15  17
BRANCH  15  18
ATOM     18  C   UNL     1       5.544   5.563  15.414  0.00  0.00    +0.000 C 
ATOM     19  C   UNL     1       6.661   4.826  14.692  0.00  0.00    +0.000 C 
ENDBRANCH  15  18
ENDBRANCH  12  15
ENDBRANCH   1  12
TORSDOF 5
ENDMDL
MODEL 3
REMARK VINA RESULT:      -6.0      1.350      1.620
REMARK  Name = 
REMARK  8 active torsions:
REMARK  status: ('A' for Active; 'I' for Inactive)
REMARK    1  A    between atoms: C_1  and  C_2
REMARK    2  A    between atoms: C_2  and  N_3
REMARK    3  A    between atoms: N_3  and  C_4
REMARK    4  A    between atoms: N_3  and  S_6
REMARK    5  A    between atoms: C_4  and  C_5
REMARK    6  A    between atoms: S_6  and  C_9
REMARK    7  A    between atoms: C_12  and  C_13
REMARK    8  A    between atoms: C_16  and  C_17
REMARK                            x       y       z     vdW  Elec       q    Type
REMARK                         _______ _______ _______ _____ _____    ______ ____
ROOT
ATOM      1  C   UNL     1       3.610   5.004  19.006  0.00  0.00    +0.000 A 
ATOM      2  C   UNL     1       2.802   4.954  20.126  0.00  0.00    +0.000 A 
ATOM      3  C   UNL     1       2.068   6.160  20.316  0.00  0.00    +0.000 A 
ATOM      4  C   UNL     1       2.331   7.089  19.331  0.00  0.00    +0.000 A 
ATOM      5  S   UNL     1       3.451   6.495  18.185  0.00  0.00    +0.000 S 
ENDROOT
BRANCH   4   6
ATOM      6  C   UNL     1       1.712   8.456  19.313  0.00  0.00    +0.000 A 
ATOM      7  C   UNL     1       1.778   9.328  18.245  0.00  0.00    +0.000 A 
ATOM      8  S   UNL     1       1.001  10.803  18.642  0.00  0.00    +0.000 S 
ATOM      9  C   UNL     1       0.644  10.182  20.204  0.00  0.00    +0.000 A 
ATOM     10  C   UNL     1      -0.040  11.032  21.218  0.00  0.00    +0.000 C 
ATOM     11  N   UNL     1       1.037   8.945  20.423  0.00  0.00    +0.000 NA
ENDBRANCH   4   6
BRANCH   1  12
ATOM     12  S   UNL     1       4.745   3.821  18.309  0.00  0.00    +0.000 S 
ATOM     13  O   UNL     1       3.933   2.920  17.523  0.00  0.00    +0.000 OA
ATOM     14  O   UNL     1       5.510   3.348  19.443  0.00  0.00    +0.000 OA
BRANCH  12  15
ATOM     15  N   UNL     1       5.828   4.649  17.262  0.00  0.00    +0.000 NA
BRANCH  15  17
ATOM     16  C   UNL     1       7.567   6.065  18.408  0.00  0.00    +0.000 C 
ATOM     17  C   UNL     1       7.227   4.722  17.778  0.00  0.00    +0.000 C 
ENDBRANCH  15  17
BRANCH  15  18
ATOM     18  C   UNL     1       5.687   4.264  15.825  0.00  0.00    +0.000 C 
ATOM     19  C   UNL     1       6.883   4.657  14.975  0.00  0.00    +0.000 C 
ENDBRANCH  15  18
ENDBRANCH  12  15
ENDBRANCH   1  12
TORSDOF 5
ENDMDL
MODEL 4
REMARK VINA RESULT:      -5.9      1.103      2.057
REMARK  Name = 
REMARK  8 active torsions:
REMARK  status: ('A' for Active; 'I' for Inactive)
REMARK    1  A    between atoms: C_1  and  C_2
REMARK    2  A    between atoms: C_2  and  N_3
REMARK    3  A    between atoms: N_3  and  C_4
REMARK    4  A    between atoms: N_3  and  S_6
REMARK    5  A    between atoms: C_4  and  C_5
REMARK    6  A    between atoms: S_6  and  C_9
REMARK    7  A    between atoms: C_12  and  C_13
REMARK    8  A    between atoms: C_16  and  C_17
REMARK                            x       y       z     vdW  Elec       q    Type
REMARK                         _______ _______ _______ _____ _____    ______ ____
ROOT
ATOM      1  C   UNL     1       3.592   5.911  18.149  0.00  0.00    +0.000 A 
ATOM      2  C   UNL     1       3.578   7.083  17.416  0.00  0.00    +0.000 A 
ATOM      3  C   UNL     1       2.800   8.100  18.041  0.00  0.00    +0.000 A 
ATOM      4  C   UNL     1       2.253   7.676  19.235  0.00  0.00    +0.000 A 
ATOM      5  S   UNL     1       2.690   6.064  19.593  0.00  0.00    +0.000 S 
ENDROOT
BRANCH   4   6
ATOM      6  C   UNL     1       1.366   8.544  20.078  0.00  0.00    +0.000 A 
ATOM      7  C   UNL     1       1.125   8.340  21.422  0.00  0.00    +0.000 A 
ATOM      8  S   UNL     1       0.013   9.508  22.003  0.00  0.00    +0.000 S 
ATOM      9  C   UNL     1      -0.076  10.191  20.429  0.00  0.00    +0.000 A 
ATOM     10  C   UNL     1      -0.996  11.328  20.149  0.00  0.00    +0.000 C 
ATOM     11  N   UNL     1       0.693   9.624  19.524  0.00  0.00    +0.000 NA
ENDBRANCH   4   6
BRANCH   1  12
ATOM     12  S   UNL     1       4.361   4.333  17.846  0.00  0.00    +0.000 S 
ATOM     13  O   UNL     1       3.493   3.651  16.913  0.00  0.00    +0.000 OA
ATOM     14  O   UNL     1       4.612   3.797  19.167  0.00  0.00    +0.000 OA
BRANCH  12  15
ATOM     15  N   UNL     1       5.884   4.598  17.095  0.00  0.00    +0.000 NA
BRANCH  15  17
ATOM     16  C   UNL     1       6.244   3.990  14.677  0.00  0.00    +0.000 C 
ATOM     17  C   UNL     1       5.784   5.044  15.673  0.00  0.00    +0.000 C 
ENDBRANCH  15  17
BRANCH  15  18
ATOM     18  C   UNL     1       6.850   5.355  17.945  0.00  0.00    +0.000 C 
ATOM     19  C   UNL     1       7.290   6.674  17.331  0.00  0.00    +0.000 C 
ENDBRANCH  15  18
ENDBRANCH  12  15
ENDBRANCH   1  12
TORSDOF 5
ENDMDL
MODEL 5
REMARK VINA RESULT:      -5.9      0.544      1.725
REMARK  Name = 
REMARK  8 active torsions:
REMARK  status: ('A' for Active; 'I' for Inactive)
REMARK    1  A    between atoms: C_1  and  C_2
REMARK    2  A    between atoms: C_2  and  N_3
REMARK    3  A    between atoms: N_3  and  C_4
REMARK    4  A    between atoms: N_3  and  S_6
REMARK    5  A    between atoms: C_4  and  C_5
REMARK    6  A    between atoms: S_6  and  C_9
REMARK    7  A    between atoms: C_12  and  C_13
REMARK    8  A    between atoms: C_16  and  C_17
REMARK                            x       y       z     vdW  Elec       q    Type
REMARK                         _______ _______ _______ _____ _____    ______ ____
ROOT
ATOM      1  C   UNL     1       3.519   6.058  18.115  0.00  0.00    +0.000 A 
ATOM      2  C   UNL     1       3.505   7.222  17.371  0.00  0.00    +0.000 A 
ATOM      3  C   UNL     1       2.720   8.243  17.981  0.00  0.00    +0.000 A 
ATOM      4  C   UNL     1       2.168   7.829  19.176  0.00  0.00    +0.000 A 
ATOM      5  S   UNL     1       2.609   6.222  19.553  0.00  0.00    +0.000 S 
ENDROOT
BRANCH   4   6
ATOM      6  C   UNL     1       1.273   8.702  20.006  0.00  0.00    +0.000 A 
ATOM      7  C   UNL     1       0.593   9.803  19.525  0.00  0.00    +0.000 A 
ATOM      8  S   UNL     1      -0.269  10.564  20.796  0.00  0.00    +0.000 S 
ATOM      9  C   UNL     1       0.332   9.386  21.893  0.00  0.00    +0.000 A 
ATOM     10  C   UNL     1       0.006   9.468  23.344  0.00  0.00    +0.000 C 
ATOM     11  N   UNL     1       1.096   8.456  21.360  0.00  0.00    +0.000 NA
ENDBRANCH   4   6
BRANCH   1  12
ATOM     12  S   UNL     1       4.295   4.479  17.833  0.00  0.00    +0.000 S 
ATOM     13  O   UNL     1       3.349   3.717  17.049  0.00  0.00    +0.000 OA
ATOM     14  O   UNL     1       4.706   4.041  19.149  0.00  0.00    +0.000 OA
BRANCH  12  15
ATOM     15  N   UNL     1       5.717   4.724  16.899  0.00  0.00    +0.000 NA
BRANCH  15  17
ATOM     16  C   UNL     1       6.239   3.888  14.581  0.00  0.00    +0.000 C 
ATOM     17  C   UNL     1       5.458   4.875  15.437  0.00  0.00    +0.000 C 
ENDBRANCH  15  17
BRANCH  15  18
ATOM     18  C   UNL     1       6.664   5.713  17.496  0.00  0.00    +0.000 C 
ATOM     19  C   UNL     1       7.799   5.068  18.274  0.00  0.00    +0.000 C 
ENDBRANCH  15  18
ENDBRANCH  12  15
ENDBRANCH   1  12
TORSDOF 5
ENDMDL
MODEL 6
REMARK VINA RESULT:      -5.9      2.648      3.434
REMARK  Name = 
REMARK  8 active torsions:
REMARK  status: ('A' for Active; 'I' for Inactive)
REMARK    1  A    between atoms: C_1  and  C_2
REMARK    2  A    between atoms: C_2  and  N_3
REMARK    3  A    between atoms: N_3  and  C_4
REMARK    4  A    between atoms: N_3  and  S_6
REMARK    5  A    between atoms: C_4  and  C_5
REMARK    6  A    between atoms: S_6  and  C_9
REMARK    7  A    between atoms: C_12  and  C_13
REMARK    8  A    between atoms: C_16  and  C_17
REMARK                            x       y       z     vdW  Elec       q    Type
REMARK                         _______ _______ _______ _____ _____    ______ ____
ROOT
ATOM      1  C   UNL     1       2.756   7.230  18.431  0.00  0.00    +0.000 A 
ATOM      2  C   UNL     1       2.556   8.197  17.463  0.00  0.00    +0.000 A 
ATOM      3  C   UNL     1       1.766   9.281  17.940  0.00  0.00    +0.000 A 
ATOM      4  C   UNL     1       1.396   9.115  19.259  0.00  0.00    +0.000 A 
ATOM      5  S   UNL     1       2.011   7.659  19.908  0.00  0.00    +0.000 S 
ENDROOT
BRANCH   4   6
ATOM      6  C   UNL     1       0.535  10.099  19.995  0.00  0.00    +0.000 A 
ATOM      7  C   UNL     1       0.186  11.344  19.511  0.00  0.00    +0.000 A 
ATOM      8  S   UNL     1      -0.753  12.184  20.673  0.00  0.00    +0.000 S 
ATOM      9  C   UNL     1      -0.619  10.841  21.736  0.00  0.00    +0.000 A 
ATOM     10  C   UNL     1      -1.207  10.897  23.104  0.00  0.00    +0.000 C 
ATOM     11  N   UNL     1       0.047   9.809  21.261  0.00  0.00    +0.000 NA
ENDBRANCH   4   6
BRANCH   1  12
ATOM     12  S   UNL     1       3.623   5.674  18.391  0.00  0.00    +0.000 S 
ATOM     13  O   UNL     1       4.417   5.641  19.599  0.00  0.00    +0.000 OA
ATOM     14  O   UNL     1       4.243   5.642  17.083  0.00  0.00    +0.000 OA
BRANCH  12  15
ATOM     15  N   UNL     1       2.471   4.400  18.450  0.00  0.00    +0.000 NA
BRANCH  15  17
ATOM     16  C   UNL     1       3.015   2.037  17.771  0.00  0.00    +0.000 C 
ATOM     17  C   UNL     1       2.591   3.428  17.324  0.00  0.00    +0.000 C 
ENDBRANCH  15  17
BRANCH  15  18
ATOM     18  C   UNL     1       2.307   3.801  19.809  0.00  0.00    +0.000 C 
ATOM     19  C   UNL     1       0.923   4.016  20.400  0.00  0.00    +0.000 C 
ENDBRANCH  15  18
ENDBRANCH  12  15
ENDBRANCH   1  12
TORSDOF 5
ENDMDL
MODEL 7
REMARK VINA RESULT:      -5.8      1.782      2.517
REMARK  Name = 
REMARK  8 active torsions:
REMARK  status: ('A' for Active; 'I' for Inactive)
REMARK    1  A    between atoms: C_1  and  C_2
REMARK    2  A    between atoms: C_2  and  N_3
REMARK    3  A    between atoms: N_3  and  C_4
REMARK    4  A    between atoms: N_3  and  S_6
REMARK    5  A    between atoms: C_4  and  C_5
REMARK    6  A    between atoms: S_6  and  C_9
REMARK    7  A    between atoms: C_12  and  C_13
REMARK    8  A    between atoms: C_16  and  C_17
REMARK                            x       y       z     vdW  Elec       q    Type
REMARK                         _______ _______ _______ _____ _____    ______ ____
ROOT
ATOM      1  C   UNL     1       3.566   4.934  19.722  0.00  0.00    +0.000 A 
ATOM      2  C   UNL     1       2.531   4.647  20.593  0.00  0.00    +0.000 A 
ATOM      3  C   UNL     1       1.691   5.775  20.821  0.00  0.00    +0.000 A 
ATOM      4  C   UNL     1       2.103   6.883  20.109  0.00  0.00    +0.000 A 
ATOM      5  S   UNL     1       3.491   6.550  19.170  0.00  0.00    +0.000 S 
ENDROOT
BRANCH   4   6
ATOM      6  C   UNL     1       1.409   8.211  20.195  0.00  0.00    +0.000 A 
ATOM      7  C   UNL     1       1.356   9.130  19.167  0.00  0.00    +0.000 A 
ATOM      8  S   UNL     1       0.526  10.539  19.681  0.00  0.00    +0.000 S 
ATOM      9  C   UNL     1       0.308   9.832  21.231  0.00  0.00    +0.000 A 
ATOM     10  C   UNL     1      -0.354  10.596  22.325  0.00  0.00    +0.000 C 
ATOM     11  N   UNL     1       0.782   8.611  21.366  0.00  0.00    +0.000 NA
ENDBRANCH   4   6
BRANCH   1  12
ATOM     12  S   UNL     1       4.909   3.938  19.108  0.00  0.00    +0.000 S 
ATOM     13  O   UNL     1       4.827   2.688  19.830  0.00  0.00    +0.000 OA
ATOM     14  O   UNL     1       6.070   4.795  19.218  0.00  0.00    +0.000 OA
BRANCH  12  15
ATOM     15  N   UNL     1       4.648   3.631  17.437  0.00  0.00    +0.000 NA
BRANCH  15  17
ATOM     16  C   UNL     1       2.582   2.193  17.523  0.00  0.00    +0.000 C 
ATOM     17  C   UNL     1       3.207   3.503  17.067  0.00  0.00    +0.000 C 
ENDBRANCH  15  17
BRANCH  15  18
ATOM     18  C   UNL     1       5.476   4.483  16.533  0.00  0.00    +0.000 C 
ATOM     19  C   UNL     1       5.901   3.774  15.257  0.00  0.00    +0.000 C 
ENDBRANCH  15  18
ENDBRANCH  12  15
ENDBRANCH   1  12
TORSDOF 5
ENDMDL
MODEL 8
REMARK VINA RESULT:      -5.7      1.226      1.438
REMARK  Name = 
REMARK  8 active torsions:
REMARK  status: ('A' for Active; 'I' for Inactive)
REMARK    1  A    between atoms: C_1  and  C_2
REMARK    2  A    between atoms: C_2  and  N_3
REMARK    3  A    between atoms: N_3  and  C_4
REMARK    4  A    between atoms: N_3  and  S_6
REMARK    5  A    between atoms: C_4  and  C_5
REMARK    6  A    between atoms: S_6  and  C_9
REMARK    7  A    between atoms: C_12  and  C_13
REMARK    8  A    between atoms: C_16  and  C_17
REMARK                            x       y       z     vdW  Elec       q    Type
REMARK                         _______ _______ _______ _____ _____    ______ ____
ROOT
ATOM      1  C   UNL     1       3.324   6.302  18.269  0.00  0.00    +0.000 A 
ATOM      2  C   UNL     1       3.281   7.472  17.534  0.00  0.00    +0.000 A 
ATOM      3  C   UNL     1       2.505   8.481  18.173  0.00  0.00    +0.000 A 
ATOM      4  C   UNL     1       1.989   8.055  19.379  0.00  0.00    +0.000 A 
ATOM      5  S   UNL     1       2.452   6.448  19.731  0.00  0.00    +0.000 S 
ENDROOT
BRANCH   4   6
ATOM      6  C   UNL     1       1.110   8.914  20.240  0.00  0.00    +0.000 A 
ATOM      7  C   UNL     1       0.848   8.673  21.573  0.00  0.00    +0.000 A 
ATOM      8  S   UNL     1      -0.245   9.845  22.179  0.00  0.00    +0.000 S 
ATOM      9  C   UNL     1      -0.301  10.580  20.627  0.00  0.00    +0.000 A 
ATOM     10  C   UNL     1      -1.193  11.745  20.373  0.00  0.00    +0.000 C 
ATOM     11  N   UNL     1       0.467  10.025  19.712  0.00  0.00    +0.000 NA
ENDBRANCH   4   6
BRANCH   1  12
ATOM     12  S   UNL     1       4.105   4.732  17.953  0.00  0.00    +0.000 S 
ATOM     13  O   UNL     1       3.101   3.925  17.295  0.00  0.00    +0.000 OA
ATOM     14  O   UNL     1       4.661   4.345  19.232  0.00  0.00    +0.000 OA
BRANCH  12  15
ATOM     15  N   UNL     1       5.416   4.977  16.869  0.00  0.00    +0.000 NA
BRANCH  15  17
ATOM     16  C   UNL     1       7.170   6.530  17.794  0.00  0.00    +0.000 C 
ATOM     17  C   UNL     1       6.742   5.091  17.545  0.00  0.00    +0.000 C 
ENDBRANCH  15  17
BRANCH  15  18
ATOM     18  C   UNL     1       5.375   4.093  15.666  0.00  0.00    +0.000 C 
ATOM     19  C   UNL     1       6.576   4.264  14.750  0.00  0.00    +0.000 C 
ENDBRANCH  15  18
ENDBRANCH  12  15
ENDBRANCH   1  12
TORSDOF 5
ENDMDL
MODEL 9
REMARK VINA RESULT:      -5.7      1.875      2.886
REMARK  Name = 
REMARK  8 active torsions:
REMARK  status: ('A' for Active; 'I' for Inactive)
REMARK    1  A    between atoms: C_1  and  C_2
REMARK    2  A    between atoms: C_2  and  N_3
REMARK    3  A    between atoms: N_3  and  C_4
REMARK    4  A    between atoms: N_3  and  S_6
REMARK    5  A    between atoms: C_4  and  C_5
REMARK    6  A    between atoms: S_6  and  C_9
REMARK    7  A    between atoms: C_12  and  C_13
REMARK    8  A    between atoms: C_16  and  C_17
REMARK                            x       y       z     vdW  Elec       q    Type
REMARK                         _______ _______ _______ _____ _____    ______ ____
ROOT
ATOM      1  C   UNL     1       3.515   5.049  19.659  0.00  0.00    +0.000 A 
ATOM      2  C   UNL     1       2.533   4.713  20.572  0.00  0.00    +0.000 A 
ATOM      3  C   UNL     1       1.689   5.817  20.885  0.00  0.00    +0.000 A 
ATOM      4  C   UNL     1       2.046   6.957  20.194  0.00  0.00    +0.000 A 
ATOM      5  S   UNL     1       3.387   6.682  19.172  0.00  0.00    +0.000 S 
ENDROOT
BRANCH   4   6
ATOM      6  C   UNL     1       1.337   8.269  20.364  0.00  0.00    +0.000 A 
ATOM      7  C   UNL     1       0.705   8.669  21.524  0.00  0.00    +0.000 A 
ATOM      8  S   UNL     1      -0.033  10.198  21.294  0.00  0.00    +0.000 S 
ATOM      9  C   UNL     1       0.528  10.213  19.671  0.00  0.00    +0.000 A 
ATOM     10  C   UNL     1       0.172  11.334  18.756  0.00  0.00    +0.000 C 
ATOM     11  N   UNL     1       1.252   9.172  19.314  0.00  0.00    +0.000 NA
ENDBRANCH   4   6
BRANCH   1  12
ATOM     12  S   UNL     1       4.840   4.099  18.940  0.00  0.00    +0.000 S 
ATOM     13  O   UNL     1       4.927   2.893  19.732  0.00  0.00    +0.000 OA
ATOM     14  O   UNL     1       5.946   5.029  18.861  0.00  0.00    +0.000 OA
BRANCH  12  15
ATOM     15  N   UNL     1       4.403   3.675  17.332  0.00  0.00    +0.000 NA
BRANCH  15  17
ATOM     16  C   UNL     1       2.491   2.084  17.727  0.00  0.00    +0.000 C 
ATOM     17  C   UNL     1       2.943   3.419  17.153  0.00  0.00    +0.000 C 
ENDBRANCH  15  17
BRANCH  15  18
ATOM     18  C   UNL     1       5.044   4.531  16.290  0.00  0.00    +0.000 C 
ATOM     19  C   UNL     1       5.971   3.762  15.363  0.00  0.00    +0.000 C 
ENDBRANCH  15  18
ENDBRANCH  12  15
ENDBRANCH   1  12
TORSDOF 5
ENDMDL
