MODEL 1
REMARK VINA RESULT:      -7.6      0.000      0.000
REMARK  Name = 
REMARK  5 active torsions:
REMARK  status: ('A' for Active; 'I' for Inactive)
REMARK    1  A    between atoms: C_1  and  O_2
REMARK    2  A    between atoms: O_2  and  C_3
REMARK    3  A    between atoms: C_8  and  O_9
REMARK    4  A    between atoms: O_9  and  C_10
REMARK    5  A    between atoms: C_13  and  C_15
REMARK                            x       y       z     vdW  Elec       q    Type
REMARK                         _______ _______ _______ _____ _____    ______ ____
ROOT
ATOM      1  C   UNL     1       2.514   6.597  19.637  0.00  0.00    +0.000 A 
ATOM      2  C   UNL     1       1.735   7.294  20.572  0.00  0.00    +0.000 A 
ATOM      3  C   UNL     1       1.228   8.559  20.276  0.00  0.00    +0.000 A 
ATOM      4  C   UNL     1       1.502   9.147  19.036  0.00  0.00    +0.000 A 
ATOM      5  C   UNL     1       2.301   8.461  18.109  0.00  0.00    +0.000 A 
ATOM      6  C   UNL     1       2.798   7.179  18.387  0.00  0.00    +0.000 A 
ATOM      7  C   UNL     1       0.959  10.525  18.737  0.00  0.00    +0.000 C 
ATOM      8  N   UNL     1      -0.387  10.741  19.281  0.00  0.00    +0.000 N 
ATOM      9  C   UNL     1      -1.208  11.670  18.612  0.00  0.00    +0.000 C 
ATOM     10  O   UNL     1      -0.781  12.299  17.642  0.00  0.00    +0.000 OA
ATOM     11  C   UNL     1      -0.792   9.966  20.471  0.00  0.00    +0.000 C 
ATOM     12  C   UNL     1       0.374   9.334  21.238  0.00  0.00    +0.000 C 
ENDROOT
BRANCH   9  13
ATOM     13  C   UNL     1      -2.625  11.913  19.054  0.00  0.00    +0.000 A 
ATOM     14  N   UNL     1      -2.763  12.541  20.251  0.00  0.00    +0.000 NA
ATOM     15  C   UNL     1      -3.992  12.829  20.694  0.00  0.00    +0.000 A 
ATOM     16  N   UNL     1      -4.100  13.575  21.846  0.00  0.00    +0.000 N 
ATOM     17  C   UNL     1      -3.098  13.346  22.897  0.00  0.00    +0.000 C 
ATOM     18  C   UNL     1      -3.662  12.421  23.988  0.00  0.00    +0.000 C 
ATOM     19  O   UNL     1      -4.900  12.924  24.514  0.00  0.00    +0.000 OA
ATOM     20  C   UNL     1      -5.886  13.012  23.470  0.00  0.00    +0.000 C 
ATOM     21  C   UNL     1      -5.427  13.952  22.346  0.00  0.00    +0.000 C 
ATOM     22  N   UNL     1      -5.090  12.488  20.011  0.00  0.00    +0.000 NA
ATOM     23  C   UNL     1      -4.925  11.821  18.846  0.00  0.00    +0.000 A 
ATOM     24  C   UNL     1      -3.704  11.497  18.303  0.00  0.00    +0.000 A 
ATOM     25 CL   UNL     1      -3.660  10.683  16.793  0.00  0.00    +0.000 Cl
ENDBRANCH   9  13
BRANCH   1  27
ATOM     26  C   UNL     1       1.862   4.587  20.742  0.00  0.00    +0.000 C 
ATOM     27  O   UNL     1       2.859   5.340  20.069  0.00  0.00    +0.000 OA
ENDBRANCH   1  27
BRANCH   6  28
ATOM     28  O   UNL     1       3.524   6.446  17.486  0.00  0.00    +0.000 OA
ATOM     29  C   UNL     1       4.912   6.720  17.357  0.00  0.00    +0.000 C 
ENDBRANCH   6  28
TORSDOF 3
ENDMDL
MODEL 2
REMARK VINA RESULT:      -7.6      2.974      3.994
REMARK  Name = 
REMARK  5 active torsions:
REMARK  status: ('A' for Active; 'I' for Inactive)
REMARK    1  A    between atoms: C_1  and  O_2
REMARK    2  A    between atoms: O_2  and  C_3
REMARK    3  A    between atoms: C_8  and  O_9
REMARK    4  A    between atoms: O_9  and  C_10
REMARK    5  A    between atoms: C_13  and  C_15
REMARK                            x       y       z     vdW  Elec       q    Type
REMARK                         _______ _______ _______ _____ _____    ______ ____
ROOT
ATOM      1  C   UNL     1       1.935   4.071  19.804  0.00  0.00    +0.000 A 
ATOM      2  C   UNL     1       1.647   5.126  20.682  0.00  0.00    +0.000 A 
ATOM      3  C   UNL     1       1.836   6.451  20.291  0.00  0.00    +0.000 A 
ATOM      4  C   UNL     1       2.323   6.736  19.011  0.00  0.00    +0.000 A 
ATOM      5  C   UNL     1       2.634   5.681  18.140  0.00  0.00    +0.000 A 
ATOM      6  C   UNL     1       2.428   4.346  18.515  0.00  0.00    +0.000 A 
ATOM      7  C   UNL     1       2.538   8.177  18.608  0.00  0.00    +0.000 C 
ATOM      8  N   UNL     1       1.504   9.078  19.131  0.00  0.00    +0.000 N 
ATOM      9  C   UNL     1       1.239  10.248  18.392  0.00  0.00    +0.000 C 
ATOM     10  O   UNL     1       1.889  10.510  17.378  0.00  0.00    +0.000 OA
ATOM     11  C   UNL     1       0.808   8.694  20.375  0.00  0.00    +0.000 C 
ATOM     12  C   UNL     1       1.524   7.613  21.190  0.00  0.00    +0.000 C 
ENDROOT
BRANCH   9  13
ATOM     13  C   UNL     1       0.154  11.201  18.811  0.00  0.00    +0.000 A 
ATOM     14  N   UNL     1      -1.113  10.808  18.517  0.00  0.00    +0.000 NA
ATOM     15  C   UNL     1      -2.137  11.584  18.894  0.00  0.00    +0.000 A 
ATOM     16  N   UNL     1      -3.412  11.104  18.697  0.00  0.00    +0.000 N 
ATOM     17  C   UNL     1      -3.653  10.299  17.490  0.00  0.00    +0.000 C 
ATOM     18  C   UNL     1      -4.298  11.157  16.390  0.00  0.00    +0.000 C 
ATOM     19  O   UNL     1      -5.489  11.806  16.860  0.00  0.00    +0.000 OA
ATOM     20  C   UNL     1      -5.180  12.677  17.962  0.00  0.00    +0.000 C 
ATOM     21  C   UNL     1      -4.564  11.900  19.135  0.00  0.00    +0.000 C 
ATOM     22  N   UNL     1      -1.949  12.750  19.522  0.00  0.00    +0.000 NA
ATOM     23  C   UNL     1      -0.676  13.139  19.758  0.00  0.00    +0.000 A 
ATOM     24  C   UNL     1       0.436  12.403  19.425  0.00  0.00    +0.000 A 
ATOM     25 CL   UNL     1       1.987  13.017  19.829  0.00  0.00    +0.000 Cl
ENDBRANCH   9  13
BRANCH   1  27
ATOM     26  C   UNL     1       2.183   2.507  21.589  0.00  0.00    +0.000 C 
ATOM     27  O   UNL     1       1.616   2.843  20.331  0.00  0.00    +0.000 OA
ENDBRANCH   1  27
BRANCH   6  28
ATOM     28  O   UNL     1       2.653   3.289  17.674  0.00  0.00    +0.000 OA
ATOM     29  C   UNL     1       3.996   2.900  17.424  0.00  0.00    +0.000 C 
ENDBRANCH   6  28
TORSDOF 3
ENDMDL
MODEL 3
REMARK VINA RESULT:      -7.5      3.515      4.804
REMARK  Name = 
REMARK  5 active torsions:
REMARK  status: ('A' for Active; 'I' for Inactive)
REMARK    1  A    between atoms: C_1  and  O_2
REMARK    2  A    between atoms: O_2  and  C_3
REMARK    3  A    between atoms: C_8  and  O_9
REMARK    4  A    between atoms: O_9  and  C_10
REMARK    5  A    between atoms: C_13  and  C_15
REMARK                            x       y       z     vdW  Elec       q    Type
REMARK                         _______ _______ _______ _____ _____    ______ ____
ROOT
ATOM      1  C   UNL     1       3.614   3.700  18.082  0.00  0.00    +0.000 A 
ATOM      2  C   UNL     1       2.979   4.394  19.122  0.00  0.00    +0.000 A 
ATOM      3  C   UNL     1       2.936   5.788  19.127  0.00  0.00    +0.000 A 
ATOM      4  C   UNL     1       3.535   6.507  18.087  0.00  0.00    +0.000 A 
ATOM      5  C   UNL     1       4.192   5.815  17.059  0.00  0.00    +0.000 A 
ATOM      6  C   UNL     1       4.223   4.413  17.032  0.00  0.00    +0.000 A 
ATOM      7  C   UNL     1       3.494   8.018  18.115  0.00  0.00    +0.000 C 
ATOM      8  N   UNL     1       2.224   8.546  18.630  0.00  0.00    +0.000 N 
ATOM      9  C   UNL     1       1.828   9.819  18.174  0.00  0.00    +0.000 C 
ATOM     10  O   UNL     1       2.551  10.466  17.414  0.00  0.00    +0.000 OA
ATOM     11  C   UNL     1       1.450   7.710  19.569  0.00  0.00    +0.000 C 
ATOM     12  C   UNL     1       2.251   6.574  20.209  0.00  0.00    +0.000 C 
ENDROOT
BRANCH   9  13
ATOM     13  C   UNL     1       0.514  10.418  18.594  0.00  0.00    +0.000 A 
ATOM     14  N   UNL     1      -0.564  10.028  17.864  0.00  0.00    +0.000 NA
ATOM     15  C   UNL     1      -1.776  10.487  18.201  0.00  0.00    +0.000 A 
ATOM     16  N   UNL     1      -2.863   9.979  17.527  0.00  0.00    +0.000 N 
ATOM     17  C   UNL     1      -2.691   9.668  16.101  0.00  0.00    +0.000 C 
ATOM     18  C   UNL     1      -3.256  10.801  15.229  0.00  0.00    +0.000 C 
ATOM     19  O   UNL     1      -4.622  11.089  15.563  0.00  0.00    +0.000 OA
ATOM     20  C   UNL     1      -4.721  11.509  16.936  0.00  0.00    +0.000 C 
ATOM     21  C   UNL     1      -4.214  10.420  17.892  0.00  0.00    +0.000 C 
ATOM     22  N   UNL     1      -1.954  11.343  19.213  0.00  0.00    +0.000 NA
ATOM     23  C   UNL     1      -0.857  11.751  19.891  0.00  0.00    +0.000 A 
ATOM     24  C   UNL     1       0.422  11.323  19.630  0.00  0.00    +0.000 A 
ATOM     25 CL   UNL     1       1.707  11.906  20.609  0.00  0.00    +0.000 Cl
ENDBRANCH   9  13
BRANCH   1  27
ATOM     26  C   UNL     1       2.312   1.844  18.823  0.00  0.00    +0.000 C 
ATOM     27  O   UNL     1       3.491   2.338  18.203  0.00  0.00    +0.000 OA
ENDBRANCH   1  27
BRANCH   6  28
ATOM     28  O   UNL     1       4.792   3.696  16.013  0.00  0.00    +0.000 OA
ATOM     29  C   UNL     1       6.138   3.979  15.659  0.00  0.00    +0.000 C 
ENDBRANCH   6  28
TORSDOF 3
ENDMDL
MODEL 4
REMARK VINA RESULT:      -7.5      3.450      4.461
REMARK  Name = 
REMARK  5 active torsions:
REMARK  status: ('A' for Active; 'I' for Inactive)
REMARK    1  A    between atoms: C_1  and  O_2
REMARK    2  A    between atoms: O_2  and  C_3
REMARK    3  A    between atoms: C_8  and  O_9
REMARK    4  A    between atoms: O_9  and  C_10
REMARK    5  A    between atoms: C_13  and  C_15
REMARK                            x       y       z     vdW  Elec       q    Type
REMARK                         _______ _______ _______ _____ _____    ______ ____
ROOT
ATOM      1  C   UNL     1       1.364   4.053  19.914  0.00  0.00    +0.000 A 
ATOM      2  C   UNL     1       1.390   5.174  20.756  0.00  0.00    +0.000 A 
ATOM      3  C   UNL     1       1.779   6.422  20.270  0.00  0.00    +0.000 A 
ATOM      4  C   UNL     1       2.153   6.562  18.929  0.00  0.00    +0.000 A 
ATOM      5  C   UNL     1       2.151   5.436  18.092  0.00  0.00    +0.000 A 
ATOM      6  C   UNL     1       1.742   4.181  18.564  0.00  0.00    +0.000 A 
ATOM      7  C   UNL     1       2.588   7.918  18.422  0.00  0.00    +0.000 C 
ATOM      8  N   UNL     1       1.814   9.021  19.004  0.00  0.00    +0.000 N 
ATOM      9  C   UNL     1       1.690  10.193  18.232  0.00  0.00    +0.000 C 
ATOM     10  O   UNL     1       2.251  10.287  17.139  0.00  0.00    +0.000 OA
ATOM     11  C   UNL     1       1.213   8.825  20.338  0.00  0.00    +0.000 C 
ATOM     12  C   UNL     1       1.804   7.654  21.129  0.00  0.00    +0.000 C 
ENDROOT
BRANCH   9  13
ATOM     13  C   UNL     1       0.864  11.355  18.714  0.00  0.00    +0.000 A 
ATOM     14  N   UNL     1       1.570  12.449  19.104  0.00  0.00    +0.000 NA
ATOM     15  C   UNL     1       0.905  13.539  19.507  0.00  0.00    +0.000 A 
ATOM     16  N   UNL     1       1.637  14.673  19.777  0.00  0.00    +0.000 N 
ATOM     17  C   UNL     1       2.964  14.494  20.383  0.00  0.00    +0.000 C 
ATOM     18  C   UNL     1       2.900  14.728  21.901  0.00  0.00    +0.000 C 
ATOM     19  O   UNL     1       2.326  16.008  22.211  0.00  0.00    +0.000 OA
ATOM     20  C   UNL     1       0.982  16.087  21.704  0.00  0.00    +0.000 C 
ATOM     21  C   UNL     1       0.948  15.904  20.179  0.00  0.00    +0.000 C 
ATOM     22  N   UNL     1      -0.431  13.572  19.570  0.00  0.00    +0.000 NA
ATOM     23  C   UNL     1      -1.105  12.453  19.222  0.00  0.00    +0.000 A 
ATOM     24  C   UNL     1      -0.512  11.295  18.779  0.00  0.00    +0.000 A 
ATOM     25 CL   UNL     1      -1.509   9.970  18.336  0.00  0.00    +0.000 Cl
ENDBRANCH   9  13
BRANCH   1  27
ATOM     26  C   UNL     1       1.638   2.422  21.633  0.00  0.00    +0.000 C 
ATOM     27  O   UNL     1       0.883   2.931  20.543  0.00  0.00    +0.000 OA
ENDBRANCH   1  27
BRANCH   6  28
ATOM     28  O   UNL     1       1.658   3.071  17.766  0.00  0.00    +0.000 OA
ATOM     29  C   UNL     1       2.793   2.221  17.672  0.00  0.00    +0.000 C 
ENDBRANCH   6  28
TORSDOF 3
ENDMDL
MODEL 5
REMARK VINA RESULT:      -7.4      3.944      9.953
REMARK  Name = 
REMARK  5 active torsions:
REMARK  status: ('A' for Active; 'I' for Inactive)
REMARK    1  A    between atoms: C_1  and  O_2
REMARK    2  A    between atoms: O_2  and  C_3
REMARK    3  A    between atoms: C_8  and  O_9
REMARK    4  A    between atoms: O_9  and  C_10
REMARK    5  A    between atoms: C_13  and  C_15
REMARK                            x       y       z     vdW  Elec       q    Type
REMARK                         _______ _______ _______ _____ _____    ______ ____
ROOT
ATOM      1  C   UNL     1      -0.430  11.613  19.083  0.00  0.00    +0.000 A 
ATOM      2  C   UNL     1       0.686  11.070  18.432  0.00  0.00    +0.000 A 
ATOM      3  C   UNL     1       1.341   9.953  18.950  0.00  0.00    +0.000 A 
ATOM      4  C   UNL     1       0.885   9.366  20.136  0.00  0.00    +0.000 A 
ATOM      5  C   UNL     1      -0.217   9.923  20.802  0.00  0.00    +0.000 A 
ATOM      6  C   UNL     1      -0.896  11.034  20.278  0.00  0.00    +0.000 A 
ATOM      7  C   UNL     1       1.616   8.166  20.693  0.00  0.00    +0.000 C 
ATOM      8  N   UNL     1       2.090   7.249  19.650  0.00  0.00    +0.000 N 
ATOM      9  C   UNL     1       2.228   5.893  20.003  0.00  0.00    +0.000 C 
ATOM     10  O   UNL     1       2.001   5.518  21.155  0.00  0.00    +0.000 OA
ATOM     11  C   UNL     1       2.372   7.802  18.310  0.00  0.00    +0.000 C 
ATOM     12  C   UNL     1       2.528   9.325  18.277  0.00  0.00    +0.000 C 
ENDROOT
BRANCH   9  13
ATOM     13  C   UNL     1       2.646   4.865  18.987  0.00  0.00    +0.000 A 
ATOM     14  N   UNL     1       3.800   5.138  18.323  0.00  0.00    +0.000 NA
ATOM     15  C   UNL     1       4.259   4.251  17.431  0.00  0.00    +0.000 A 
ATOM     16  N   UNL     1       5.491   4.491  16.866  0.00  0.00    +0.000 N 
ATOM     17  C   UNL     1       5.850   5.890  16.593  0.00  0.00    +0.000 C 
ATOM     18  C   UNL     1       5.613   6.230  15.113  0.00  0.00    +0.000 C 
ATOM     19  O   UNL     1       6.300   5.312  14.247  0.00  0.00    +0.000 OA
ATOM     20  C   UNL     1       5.824   3.972  14.465  0.00  0.00    +0.000 C 
ATOM     21  C   UNL     1       6.055   3.525  15.916  0.00  0.00    +0.000 C 
ATOM     22  N   UNL     1       3.600   3.122  17.150  0.00  0.00    +0.000 NA
ATOM     23  C   UNL     1       2.431   2.900  17.791  0.00  0.00    +0.000 A 
ATOM     24  C   UNL     1       1.889   3.741  18.733  0.00  0.00    +0.000 A 
ATOM     25 CL   UNL     1       0.412   3.298  19.488  0.00  0.00    +0.000 Cl
ENDBRANCH   9  13
BRANCH   1  27
ATOM     26  C   UNL     1      -0.413  13.943  18.573  0.00  0.00    +0.000 C 
ATOM     27  O   UNL     1      -0.990  12.658  18.390  0.00  0.00    +0.000 OA
ENDBRANCH   1  27
BRANCH   6  28
ATOM     28  O   UNL     1      -2.016  11.567  20.858  0.00  0.00    +0.000 OA
ATOM     29  C   UNL     1      -1.921  12.051  22.190  0.00  0.00    +0.000 C 
ENDBRANCH   6  28
TORSDOF 3
ENDMDL
MODEL 6
REMARK VINA RESULT:      -7.4      2.193      3.103
REMARK  Name = 
REMARK  5 active torsions:
REMARK  status: ('A' for Active; 'I' for Inactive)
REMARK    1  A    between atoms: C_1  and  O_2
REMARK    2  A    between atoms: O_2  and  C_3
REMARK    3  A    between atoms: C_8  and  O_9
REMARK    4  A    between atoms: O_9  and  C_10
REMARK    5  A    between atoms: C_13  and  C_15
REMARK                            x       y       z     vdW  Elec       q    Type
REMARK                         _______ _______ _______ _____ _____    ______ ____
ROOT
ATOM      1  C   UNL     1       2.284   6.353  19.767  0.00  0.00    +0.000 A 
ATOM      2  C   UNL     1       1.699   7.084  20.811  0.00  0.00    +0.000 A 
ATOM      3  C   UNL     1       1.327   8.415  20.628  0.00  0.00    +0.000 A 
ATOM      4  C   UNL     1       1.544   9.036  19.393  0.00  0.00    +0.000 A 
ATOM      5  C   UNL     1       2.151   8.313  18.355  0.00  0.00    +0.000 A 
ATOM      6  C   UNL     1       2.509   6.967  18.521  0.00  0.00    +0.000 A 
ATOM      7  C   UNL     1       1.151  10.484  19.216  0.00  0.00    +0.000 C 
ATOM      8  N   UNL     1      -0.095  10.829  19.912  0.00  0.00    +0.000 N 
ATOM      9  C   UNL     1      -0.857  11.886  19.378  0.00  0.00    +0.000 C 
ATOM     10  O   UNL     1      -0.456  12.514  18.396  0.00  0.00    +0.000 OA
ATOM     11  C   UNL     1      -0.469  10.042  21.104  0.00  0.00    +0.000 C 
ATOM     12  C   UNL     1       0.680   9.232  21.711  0.00  0.00    +0.000 C 
ENDROOT
BRANCH   9  13
ATOM     13  C   UNL     1      -2.179  12.272  19.982  0.00  0.00    +0.000 A 
ATOM     14  N   UNL     1      -3.275  11.918  19.260  0.00  0.00    +0.000 NA
ATOM     15  C   UNL     1      -4.490  12.190  19.751  0.00  0.00    +0.000 A 
ATOM     16  N   UNL     1      -5.581  11.711  19.062  0.00  0.00    +0.000 N 
ATOM     17  C   UNL     1      -5.496  11.679  17.595  0.00  0.00    +0.000 C 
ATOM     18  C   UNL     1      -6.219  12.891  16.986  0.00  0.00    +0.000 C 
ATOM     19  O   UNL     1      -7.575  12.982  17.452  0.00  0.00    +0.000 OA
ATOM     20  C   UNL     1      -7.601  13.137  18.882  0.00  0.00    +0.000 C 
ATOM     21  C   UNL     1      -6.932  11.947  19.586  0.00  0.00    +0.000 C 
ATOM     22  N   UNL     1      -4.659  12.830  20.913  0.00  0.00    +0.000 NA
ATOM     23  C   UNL     1      -3.550  13.213  21.586  0.00  0.00    +0.000 A 
ATOM     24  C   UNL     1      -2.264  12.963  21.172  0.00  0.00    +0.000 A 
ATOM     25 CL   UNL     1      -0.960  13.480  22.161  0.00  0.00    +0.000 Cl
ENDBRANCH   9  13
BRANCH   1  27
ATOM     26  C   UNL     1       1.377   4.239  20.400  0.00  0.00    +0.000 C 
ATOM     27  O   UNL     1       2.511   5.041  20.103  0.00  0.00    +0.000 OA
ENDBRANCH   1  27
BRANCH   6  28
ATOM     28  O   UNL     1       3.041   6.205  17.515  0.00  0.00    +0.000 OA
ATOM     29  C   UNL     1       4.446   6.246  17.308  0.00  0.00    +0.000 C 
ENDBRANCH   6  28
TORSDOF 3
ENDMDL
MODEL 7
REMARK VINA RESULT:      -7.1      1.939      2.585
REMARK  Name = 
REMARK  5 active torsions:
REMARK  status: ('A' for Active; 'I' for Inactive)
REMARK    1  A    between atoms: C_1  and  O_2
REMARK    2  A    between atoms: O_2  and  C_3
REMARK    3  A    between atoms: C_8  and  O_9
REMARK    4  A    between atoms: O_9  and  C_10
REMARK    5  A    between atoms: C_13  and  C_15
REMARK                            x       y       z     vdW  Elec       q    Type
REMARK                         _______ _______ _______ _____ _____    ______ ____
ROOT
ATOM      1  C   UNL     1       2.461   4.292  19.820  0.00  0.00    +0.000 A 
ATOM      2  C   UNL     1       1.913   5.266  20.666  0.00  0.00    +0.000 A 
ATOM      3  C   UNL     1       1.919   6.612  20.301  0.00  0.00    +0.000 A 
ATOM      4  C   UNL     1       2.483   7.000  19.080  0.00  0.00    +0.000 A 
ATOM      5  C   UNL     1       3.053   6.029  18.244  0.00  0.00    +0.000 A 
ATOM      6  C   UNL     1       3.033   4.670  18.591  0.00  0.00    +0.000 A 
ATOM      7  C   UNL     1       2.497   8.465  18.706  0.00  0.00    +0.000 C 
ATOM      8  N   UNL     1       1.279   9.173  19.120  0.00  0.00    +0.000 N 
ATOM      9  C   UNL     1       0.902  10.297  18.360  0.00  0.00    +0.000 C 
ATOM     10  O   UNL     1       1.602  10.684  17.422  0.00  0.00    +0.000 OA
ATOM     11  C   UNL     1       0.531   8.654  20.282  0.00  0.00    +0.000 C 
ATOM     12  C   UNL     1       1.327   7.689  21.165  0.00  0.00    +0.000 C 
ENDROOT
BRANCH   9  13
ATOM     13  C   UNL     1      -0.363  11.051  18.665  0.00  0.00    +0.000 A 
ATOM     14  N   UNL     1      -0.262  11.988  19.644  0.00  0.00    +0.000 NA
ATOM     15  C   UNL     1      -1.336  12.729  19.946  0.00  0.00    +0.000 A 
ATOM     16  N   UNL     1      -1.174  13.753  20.851  0.00  0.00    +0.000 N 
ATOM     17  C   UNL     1      -0.239  13.532  21.964  0.00  0.00    +0.000 C 
ATOM     18  C   UNL     1      -1.001  13.137  23.239  0.00  0.00    +0.000 C 
ATOM     19  O   UNL     1      -2.016  14.100  23.563  0.00  0.00    +0.000 OA
ATOM     20  C   UNL     1      -2.976  14.190  22.495  0.00  0.00    +0.000 C 
ATOM     21  C   UNL     1      -2.312  14.619  21.179  0.00  0.00    +0.000 C 
ATOM     22  N   UNL     1      -2.513  12.553  19.336  0.00  0.00    +0.000 NA
ATOM     23  C   UNL     1      -2.597  11.581  18.400  0.00  0.00    +0.000 A 
ATOM     24  C   UNL     1      -1.547  10.783  18.011  0.00  0.00    +0.000 A 
ATOM     25 CL   UNL     1      -1.804   9.618  16.777  0.00  0.00    +0.000 Cl
ENDBRANCH   9  13
BRANCH   1  27
ATOM     26  C   UNL     1       1.808   2.885  21.633  0.00  0.00    +0.000 C 
ATOM     27  O   UNL     1       2.297   3.017  20.306  0.00  0.00    +0.000 OA
ENDBRANCH   1  27
BRANCH   6  28
ATOM     28  O   UNL     1       3.516   3.682  17.775  0.00  0.00    +0.000 OA
ATOM     29  C   UNL     1       4.477   4.032  16.789  0.00  0.00    +0.000 C 
ENDBRANCH   6  28
TORSDOF 3
ENDMDL
MODEL 8
REMARK VINA RESULT:      -7.1      2.595      3.429
REMARK  Name = 
REMARK  5 active torsions:
REMARK  status: ('A' for Active; 'I' for Inactive)
REMARK    1  A    between atoms: C_1  and  O_2
REMARK    2  A    between atoms: O_2  and  C_3
REMARK    3  A    between atoms: C_8  and  O_9
REMARK    4  A    between atoms: O_9  and  C_10
REMARK    5  A    between atoms: C_13  and  C_15
REMARK                            x       y       z     vdW  Elec       q    Type
REMARK                         _______ _______ _______ _____ _____    ______ ____
ROOT
ATOM      1  C   UNL     1       2.206   4.949  19.580  0.00  0.00    +0.000 A 
ATOM      2  C   UNL     1       1.745   5.809  20.587  0.00  0.00    +0.000 A 
ATOM      3  C   UNL     1       1.704   7.188  20.383  0.00  0.00    +0.000 A 
ATOM      4  C   UNL     1       2.132   7.725  19.163  0.00  0.00    +0.000 A 
ATOM      5  C   UNL     1       2.616   6.867  18.164  0.00  0.00    +0.000 A 
ATOM      6  C   UNL     1       2.642   5.477  18.350  0.00  0.00    +0.000 A 
ATOM      7  C   UNL     1       2.097   9.223  18.964  0.00  0.00    +0.000 C 
ATOM      8  N   UNL     1       0.925   9.855  19.583  0.00  0.00    +0.000 N 
ATOM      9  C   UNL     1       0.463  11.053  19.004  0.00  0.00    +0.000 C 
ATOM     10  O   UNL     1       1.057  11.558  18.049  0.00  0.00    +0.000 OA
ATOM     11  C   UNL     1       0.308   9.192  20.749  0.00  0.00    +0.000 C 
ATOM     12  C   UNL     1       1.200   8.146  21.424  0.00  0.00    +0.000 C 
ENDROOT
BRANCH   9  13
ATOM     13  C   UNL     1      -0.768  11.743  19.526  0.00  0.00    +0.000 A 
ATOM     14  N   UNL     1      -1.942  11.333  18.978  0.00  0.00    +0.000 NA
ATOM     15  C   UNL     1      -3.086  11.871  19.419  0.00  0.00    +0.000 A 
ATOM     16  N   UNL     1      -4.265  11.351  18.937  0.00  0.00    +0.000 N 
ATOM     17  C   UNL     1      -4.288  10.905  17.537  0.00  0.00    +0.000 C 
ATOM     18  C   UNL     1      -4.926  11.977  16.639  0.00  0.00    +0.000 C 
ATOM     19  O   UNL     1      -6.229  12.351  17.114  0.00  0.00    +0.000 OA
ATOM     20  C   UNL     1      -6.138  12.897  18.441  0.00  0.00    +0.000 C 
ATOM     21  C   UNL     1      -5.545  11.878  19.426  0.00  0.00    +0.000 C 
ATOM     22  N   UNL     1      -3.106  12.822  20.359  0.00  0.00    +0.000 NA
ATOM     23  C   UNL     1      -1.920  13.244  20.852  0.00  0.00    +0.000 A 
ATOM     24  C   UNL     1      -0.698  12.740  20.475  0.00  0.00    +0.000 A 
ATOM     25 CL   UNL     1       0.719  13.355  21.225  0.00  0.00    +0.000 Cl
ENDBRANCH   9  13
BRANCH   1  27
ATOM     26  C   UNL     1       0.808   3.042  19.893  0.00  0.00    +0.000 C 
ATOM     27  O   UNL     1       2.103   3.624  19.928  0.00  0.00    +0.000 OA
ENDBRANCH   1  27
BRANCH   6  28
ATOM     28  O   UNL     1       3.042   4.599  17.378  0.00  0.00    +0.000 OA
ATOM     29  C   UNL     1       4.434   4.384  17.196  0.00  0.00    +0.000 C 
ENDBRANCH   6  28
TORSDOF 3
ENDMDL
MODEL 9
REMARK VINA RESULT:      -7.0      4.382      6.065
REMARK  Name = 
REMARK  5 active torsions:
REMARK  status: ('A' for Active; 'I' for Inactive)
REMARK    1  A    between atoms: C_1  and  O_2
REMARK    2  A    between atoms: O_2  and  C_3
REMARK    3  A    between atoms: C_8  and  O_9
REMARK    4  A    between atoms: O_9  and  C_10
REMARK    5  A    between atoms: C_13  and  C_15
REMARK                            x       y       z     vdW  Elec       q    Type
REMARK                         _______ _______ _______ _____ _____    ______ ____
ROOT
ATOM      1  C   UNL     1       2.764   5.857  19.011  0.00  0.00    +0.000 A 
ATOM      2  C   UNL     1       2.594   6.971  18.175  0.00  0.00    +0.000 A 
ATOM      3  C   UNL     1       1.916   8.103  18.626  0.00  0.00    +0.000 A 
ATOM      4  C   UNL     1       1.392   8.131  19.924  0.00  0.00    +0.000 A 
ATOM      5  C   UNL     1       1.541   7.009  20.752  0.00  0.00    +0.000 A 
ATOM      6  C   UNL     1       2.240   5.873  20.317  0.00  0.00    +0.000 A 
ATOM      7  C   UNL     1       0.646   9.359  20.391  0.00  0.00    +0.000 C 
ATOM      8  N   UNL     1       1.233  10.610  19.895  0.00  0.00    +0.000 N 
ATOM      9  C   UNL     1       1.043  11.764  20.680  0.00  0.00    +0.000 C 
ATOM     10  O   UNL     1       0.370  11.716  21.712  0.00  0.00    +0.000 OA
ATOM     11  C   UNL     1       1.988  10.572  18.626  0.00  0.00    +0.000 C 
ATOM     12  C   UNL     1       1.726   9.326  17.775  0.00  0.00    +0.000 C 
ENDROOT
BRANCH   9  13
ATOM     13  C   UNL     1       1.659  13.079  20.289  0.00  0.00    +0.000 A 
ATOM     14  N   UNL     1       2.825  13.385  20.916  0.00  0.00    +0.000 NA
ATOM     15  C   UNL     1       3.457  14.520  20.592  0.00  0.00    +0.000 A 
ATOM     16  N   UNL     1       4.695  14.745  21.149  0.00  0.00    +0.000 N 
ATOM     17  C   UNL     1       4.913  14.285  22.527  0.00  0.00    +0.000 C 
ATOM     18  C   UNL     1       4.763  15.452  23.516  0.00  0.00    +0.000 C 
ATOM     19  O   UNL     1       5.620  16.550  23.166  0.00  0.00    +0.000 OA
ATOM     20  C   UNL     1       5.285  17.046  21.858  0.00  0.00    +0.000 C 
ATOM     21  C   UNL     1       5.444  15.955  20.789  0.00  0.00    +0.000 C 
ATOM     22  N   UNL     1       2.958  15.378  19.695  0.00  0.00    +0.000 NA
ATOM     23  C   UNL     1       1.773  15.070  19.123  0.00  0.00    +0.000 A 
ATOM     24  C   UNL     1       1.061  13.923  19.378  0.00  0.00    +0.000 A 
ATOM     25 CL   UNL     1      -0.413  13.658  18.538  0.00  0.00    +0.000 Cl
ENDBRANCH   9  13
BRANCH   1  27
ATOM     26  C   UNL     1       2.874   4.026  17.487  0.00  0.00    +0.000 C 
ATOM     27  O   UNL     1       3.521   4.870  18.428  0.00  0.00    +0.000 OA
ENDBRANCH   1  27
BRANCH   6  28
ATOM     28  O   UNL     1       2.467   4.783  21.114  0.00  0.00    +0.000 OA
ATOM     29  C   UNL     1       1.532   3.714  21.079  0.00  0.00    +0.000 C 
ENDBRANCH   6  28
TORSDOF 3
ENDMDL
