MODEL 1
REMARK VINA RESULT:      -7.4      0.000      0.000
REMARK  Name = 
REMARK  7 active torsions:
REMARK  status: ('A' for Active; 'I' for Inactive)
REMARK    1  A    between atoms: C_1  and  C_2
REMARK    2  A    between atoms: C_2  and  O_3
REMARK    3  A    between atoms: O_3  and  C_4
REMARK    4  A    between atoms: C_7  and  N_8
REMARK    5  A    between atoms: C_9  and  C_11
REMARK    6  A    between atoms: N_14  and  S_15
REMARK    7  A    between atoms: S_15  and  C_18
REMARK                            x       y       z     vdW  Elec       q    Type
REMARK                         _______ _______ _______ _____ _____    ______ ____
ROOT
ATOM      1  C   UNL     1       7.351   6.397  17.654  0.00  0.00    +0.000 C 
ATOM      2  C   UNL     1       7.011   5.784  19.022  0.00  0.00    +0.000 C 
ATOM      3  C   UNL     1       5.540   5.371  19.119  0.00  0.00    +0.000 C 
ATOM      4  N   UNL     1       4.642   6.530  18.825  0.00  0.00    +0.000 NA
ATOM      5  C   UNL     1       4.943   7.174  17.510  0.00  0.00    +0.000 C 
ATOM      6  C   UNL     1       6.411   7.577  17.411  0.00  0.00    +0.000 C 
ENDROOT
BRANCH   1   8
ATOM      7  N   UNL     1       6.653   5.691  15.396  0.00  0.00    +0.000 N 
ATOM      8  C   UNL     1       7.296   5.319  16.564  0.00  0.00    +0.000 C 
ATOM      9  O   UNL     1       7.860   4.240  16.732  0.00  0.00    +0.000 OA
ATOM     10  H   UNL     1       6.490   6.679  15.240  0.00  0.00    +0.000 HD
BRANCH   7  14
ATOM     11  C   UNL     1       6.088   3.098  12.092  0.00  0.00    +0.000 A 
ATOM     12  C   UNL     1       5.138   3.147  13.106  0.00  0.00    +0.000 A 
ATOM     13  C   UNL     1       5.299   4.012  14.190  0.00  0.00    +0.000 A 
ATOM     14  C   UNL     1       6.431   4.827  14.295  0.00  0.00    +0.000 A 
ATOM     15  C   UNL     1       7.380   4.784  13.267  0.00  0.00    +0.000 A 
ATOM     16  C   UNL     1       7.219   3.910  12.179  0.00  0.00    +0.000 A 
BRANCH  11  17
ATOM     17  O   UNL     1       5.808   2.213  11.092  0.00  0.00    +0.000 OA
BRANCH  17  19
ATOM     18  C   UNL     1       6.074  -0.141  11.287  0.00  0.00    +0.000 C 
ATOM     19  C   UNL     1       6.746   1.160  10.886  0.00  0.00    +0.000 C 
ENDBRANCH  17  19
ENDBRANCH  11  17
ENDBRANCH   7  14
ENDBRANCH   1   8
BRANCH   4  20
ATOM     20  S   UNL     1       2.959   6.140  18.942  0.00  0.00    +0.000 S 
ATOM     21  O   UNL     1       2.539   6.383  20.305  0.00  0.00    +0.000 OA
ATOM     22  O   UNL     1       2.288   6.785  17.832  0.00  0.00    +0.000 OA
BRANCH  20  23
ATOM     23  C   UNL     1       2.904   4.405  18.687  0.00  0.00    +0.000 A 
ATOM     24  C   UNL     1       2.889   3.846  17.411  0.00  0.00    +0.000 A 
ATOM     25  C   UNL     1       2.799   2.461  17.291  0.00  0.00    +0.000 A 
ATOM     26  C   UNL     1       2.732   1.701  18.451  0.00  0.00    +0.000 A 
ATOM     27  N   UNL     1       2.750   2.226  19.697  0.00  0.00    +0.000 NA
ATOM     28  C   UNL     1       2.825   3.576  19.790  0.00  0.00    +0.000 A 
ENDBRANCH  20  23
ENDBRANCH   4  20
TORSDOF 6
ENDMDL
MODEL 2
REMARK VINA RESULT:      -7.2      2.078      3.108
REMARK  Name = 
REMARK  7 active torsions:
REMARK  status: ('A' for Active; 'I' for Inactive)
REMARK    1  A    between atoms: C_1  and  C_2
REMARK    2  A    between atoms: C_2  and  O_3
REMARK    3  A    between atoms: O_3  and  C_4
REMARK    4  A    between atoms: C_7  and  N_8
REMARK    5  A    between atoms: C_9  and  C_11
REMARK    6  A    between atoms: N_14  and  S_15
REMARK    7  A    between atoms: S_15  and  C_18
REMARK                            x       y       z     vdW  Elec       q    Type
REMARK                         _______ _______ _______ _____ _____    ______ ____
ROOT
ATOM      1  C   UNL     1       7.387   6.327  17.715  0.00  0.00    +0.000 C 
ATOM      2  C   UNL     1       7.124   5.678  19.084  0.00  0.00    +0.000 C 
ATOM      3  C   UNL     1       5.676   5.201  19.227  0.00  0.00    +0.000 C 
ATOM      4  N   UNL     1       4.721   6.326  18.988  0.00  0.00    +0.000 NA
ATOM      5  C   UNL     1       4.945   7.004  17.675  0.00  0.00    +0.000 C 
ATOM      6  C   UNL     1       6.391   7.470  17.530  0.00  0.00    +0.000 C 
ENDROOT
BRANCH   1   8
ATOM      7  N   UNL     1       6.761   5.681  15.419  0.00  0.00    +0.000 N 
ATOM      8  C   UNL     1       7.336   5.267  16.609  0.00  0.00    +0.000 C 
ATOM      9  O   UNL     1       7.848   4.163  16.785  0.00  0.00    +0.000 OA
ATOM     10  H   UNL     1       6.645   6.676  15.271  0.00  0.00    +0.000 HD
BRANCH   7  14
ATOM     11  C   UNL     1       6.236   3.169  12.046  0.00  0.00    +0.000 A 
ATOM     12  C   UNL     1       5.344   3.098  13.110  0.00  0.00    +0.000 A 
ATOM     13  C   UNL     1       5.491   3.934  14.218  0.00  0.00    +0.000 A 
ATOM     14  C   UNL     1       6.552   4.841  14.296  0.00  0.00    +0.000 A 
ATOM     15  C   UNL     1       7.443   4.919  13.219  0.00  0.00    +0.000 A 
ATOM     16  C   UNL     1       7.296   4.074  12.106  0.00  0.00    +0.000 A 
BRANCH  11  17
ATOM     17  O   UNL     1       5.977   2.301  11.026  0.00  0.00    +0.000 OA
BRANCH  17  19
ATOM     18  C   UNL     1       6.003  -0.064  11.263  0.00  0.00    +0.000 C 
ATOM     19  C   UNL     1       6.829   1.163  10.921  0.00  0.00    +0.000 C 
ENDBRANCH  17  19
ENDBRANCH  11  17
ENDBRANCH   7  14
ENDBRANCH   1   8
BRANCH   4  20
ATOM     20  S   UNL     1       3.061   5.863  19.159  0.00  0.00    +0.000 S 
ATOM     21  O   UNL     1       2.595   5.398  17.870  0.00  0.00    +0.000 OA
ATOM     22  O   UNL     1       2.967   5.018  20.331  0.00  0.00    +0.000 OA
BRANCH  20  23
ATOM     23  C   UNL     1       2.229   7.370  19.494  0.00  0.00    +0.000 A 
ATOM     24  C   UNL     1       1.656   7.637  20.736  0.00  0.00    +0.000 A 
ATOM     25  C   UNL     1       0.973   8.838  20.911  0.00  0.00    +0.000 A 
ATOM     26  C   UNL     1       0.898   9.717  19.839  0.00  0.00    +0.000 A 
ATOM     27  N   UNL     1       1.450   9.476  18.628  0.00  0.00    +0.000 NA
ATOM     28  C   UNL     1       2.100   8.296  18.477  0.00  0.00    +0.000 A 
ENDBRANCH  20  23
ENDBRANCH   4  20
TORSDOF 6
ENDMDL
MODEL 3
REMARK VINA RESULT:      -7.0      3.745      7.046
REMARK  Name = 
REMARK  7 active torsions:
REMARK  status: ('A' for Active; 'I' for Inactive)
REMARK    1  A    between atoms: C_1  and  C_2
REMARK    2  A    between atoms: C_2  and  O_3
REMARK    3  A    between atoms: O_3  and  C_4
REMARK    4  A    between atoms: C_7  and  N_8
REMARK    5  A    between atoms: C_9  and  C_11
REMARK    6  A    between atoms: N_14  and  S_15
REMARK    7  A    between atoms: S_15  and  C_18
REMARK                            x       y       z     vdW  Elec       q    Type
REMARK                         _______ _______ _______ _____ _____    ______ ____
ROOT
ATOM      1  C   UNL     1       7.073   5.899  17.032  0.00  0.00    +0.000 C 
ATOM      2  C   UNL     1       5.983   6.520  16.143  0.00  0.00    +0.000 C 
ATOM      3  C   UNL     1       4.769   6.979  16.955  0.00  0.00    +0.000 C 
ATOM      4  N   UNL     1       4.210   5.849  17.758  0.00  0.00    +0.000 NA
ATOM      5  C   UNL     1       5.235   5.198  18.629  0.00  0.00    +0.000 C 
ATOM      6  C   UNL     1       6.448   4.749  17.821  0.00  0.00    +0.000 C 
ENDROOT
BRANCH   1   8
ATOM      7  N   UNL     1       7.692   8.260  17.384  0.00  0.00    +0.000 N 
ATOM      8  C   UNL     1       7.720   6.978  17.907  0.00  0.00    +0.000 C 
ATOM      9  O   UNL     1       8.156   6.694  19.021  0.00  0.00    +0.000 OA
ATOM     10  H   UNL     1       7.057   8.443  16.616  0.00  0.00    +0.000 HD
BRANCH   7  14
ATOM     11  C   UNL     1       9.422  11.690  19.175  0.00  0.00    +0.000 A 
ATOM     12  C   UNL     1       9.555  10.446  19.784  0.00  0.00    +0.000 A 
ATOM     13  C   UNL     1       9.010   9.305  19.194  0.00  0.00    +0.000 A 
ATOM     14  C   UNL     1       8.295   9.388  17.997  0.00  0.00    +0.000 A 
ATOM     15  C   UNL     1       8.171  10.638  17.379  0.00  0.00    +0.000 A 
ATOM     16  C   UNL     1       8.716  11.787  17.976  0.00  0.00    +0.000 A 
BRANCH  11  17
ATOM     17  O   UNL     1      10.003  12.721  19.853  0.00  0.00    +0.000 OA
BRANCH  17  19
ATOM     18  C   UNL     1      12.233  13.409  19.399  0.00  0.00    +0.000 C 
ATOM     19  C   UNL     1      10.767  13.645  19.082  0.00  0.00    +0.000 C 
ENDBRANCH  17  19
ENDBRANCH  11  17
ENDBRANCH   7  14
ENDBRANCH   1   8
BRANCH   4  20
ATOM     20  S   UNL     1       2.815   6.292  18.684  0.00  0.00    +0.000 S 
ATOM     21  O   UNL     1       3.269   6.744  19.981  0.00  0.00    +0.000 OA
ATOM     22  O   UNL     1       1.993   7.142  17.847  0.00  0.00    +0.000 OA
BRANCH  20  23
ATOM     23  C   UNL     1       1.968   4.776  18.933  0.00  0.00    +0.000 A 
ATOM     24  C   UNL     1       1.517   4.380  20.191  0.00  0.00    +0.000 A 
ATOM     25  C   UNL     1       0.893   3.142  20.316  0.00  0.00    +0.000 A 
ATOM     26  C   UNL     1       0.747   2.359  19.178  0.00  0.00    +0.000 A 
ATOM     27  N   UNL     1       1.175   2.728  17.950  0.00  0.00    +0.000 NA
ATOM     28  C   UNL     1       1.790   3.932  17.854  0.00  0.00    +0.000 A 
ENDBRANCH  20  23
ENDBRANCH   4  20
TORSDOF 6
ENDMDL
MODEL 4
REMARK VINA RESULT:      -7.0      0.992      1.198
REMARK  Name = 
REMARK  7 active torsions:
REMARK  status: ('A' for Active; 'I' for Inactive)
REMARK    1  A    between atoms: C_1  and  C_2
REMARK    2  A    between atoms: C_2  and  O_3
REMARK    3  A    between atoms: O_3  and  C_4
REMARK    4  A    between atoms: C_7  and  N_8
REMARK    5  A    between atoms: C_9  and  C_11
REMARK    6  A    between atoms: N_14  and  S_15
REMARK    7  A    between atoms: S_15  and  C_18
REMARK                            x       y       z     vdW  Elec       q    Type
REMARK                         _______ _______ _______ _____ _____    ______ ____
ROOT
ATOM      1  C   UNL     1       7.227   6.175  18.054  0.00  0.00    +0.000 C 
ATOM      2  C   UNL     1       6.691   5.448  19.298  0.00  0.00    +0.000 C 
ATOM      3  C   UNL     1       5.203   5.110  19.171  0.00  0.00    +0.000 C 
ATOM      4  N   UNL     1       4.401   6.340  18.896  0.00  0.00    +0.000 NA
ATOM      5  C   UNL     1       4.893   7.096  17.703  0.00  0.00    +0.000 C 
ATOM      6  C   UNL     1       6.377   7.424  17.827  0.00  0.00    +0.000 C 
ENDROOT
BRANCH   1   8
ATOM      7  N   UNL     1       6.567   5.641  15.739  0.00  0.00    +0.000 N 
ATOM      8  C   UNL     1       7.265   5.218  16.858  0.00  0.00    +0.000 C 
ATOM      9  O   UNL     1       7.941   4.192  16.906  0.00  0.00    +0.000 OA
ATOM     10  H   UNL     1       6.300   6.617  15.690  0.00  0.00    +0.000 HD
BRANCH   7  14
ATOM     11  C   UNL     1       6.216   3.353  12.189  0.00  0.00    +0.000 A 
ATOM     12  C   UNL     1       5.215   3.298  13.153  0.00  0.00    +0.000 A 
ATOM     13  C   UNL     1       5.306   4.062  14.316  0.00  0.00    +0.000 A 
ATOM     14  C   UNL     1       6.416   4.878  14.554  0.00  0.00    +0.000 A 
ATOM     15  C   UNL     1       7.418   4.941  13.578  0.00  0.00    +0.000 A 
ATOM     16  C   UNL     1       7.327   4.167  12.409  0.00  0.00    +0.000 A 
BRANCH  11  17
ATOM     17  O   UNL     1       6.002   2.560  11.099  0.00  0.00    +0.000 OA
BRANCH  17  19
ATOM     18  C   UNL     1       6.201   0.200  11.304  0.00  0.00    +0.000 C 
ATOM     19  C   UNL     1       6.912   1.481  10.904  0.00  0.00    +0.000 C 
ENDBRANCH  17  19
ENDBRANCH  11  17
ENDBRANCH   7  14
ENDBRANCH   1   8
BRANCH   4  20
ATOM     20  S   UNL     1       2.701   6.034  18.764  0.00  0.00    +0.000 S 
ATOM     21  O   UNL     1       2.002   7.118  19.420  0.00  0.00    +0.000 OA
ATOM     22  O   UNL     1       2.428   5.705  17.380  0.00  0.00    +0.000 OA
BRANCH  20  23
ATOM     23  C   UNL     1       2.449   4.596  19.735  0.00  0.00    +0.000 A 
ATOM     24  C   UNL     1       2.217   3.348  19.160  0.00  0.00    +0.000 A 
ATOM     25  C   UNL     1       1.981   2.261  19.999  0.00  0.00    +0.000 A 
ATOM     26  C   UNL     1       1.992   2.472  21.371  0.00  0.00    +0.000 A 
ATOM     27  N   UNL     1       2.219   3.674  21.947  0.00  0.00    +0.000 NA
ATOM     28  C   UNL     1       2.434   4.720  21.111  0.00  0.00    +0.000 A 
ENDBRANCH  20  23
ENDBRANCH   4  20
TORSDOF 6
ENDMDL
MODEL 5
REMARK VINA RESULT:      -7.0      2.012      3.144
REMARK  Name = 
REMARK  7 active torsions:
REMARK  status: ('A' for Active; 'I' for Inactive)
REMARK    1  A    between atoms: C_1  and  C_2
REMARK    2  A    between atoms: C_2  and  O_3
REMARK    3  A    between atoms: O_3  and  C_4
REMARK    4  A    between atoms: C_7  and  N_8
REMARK    5  A    between atoms: C_9  and  C_11
REMARK    6  A    between atoms: N_14  and  S_15
REMARK    7  A    between atoms: S_15  and  C_18
REMARK                            x       y       z     vdW  Elec       q    Type
REMARK                         _______ _______ _______ _____ _____    ______ ____
ROOT
ATOM      1  C   UNL     1       7.477   6.296  17.935  0.00  0.00    +0.000 C 
ATOM      2  C   UNL     1       7.090   5.604  19.252  0.00  0.00    +0.000 C 
ATOM      3  C   UNL     1       5.623   5.167  19.263  0.00  0.00    +0.000 C 
ATOM      4  N   UNL     1       4.721   6.329  18.997  0.00  0.00    +0.000 NA
ATOM      5  C   UNL     1       5.067   7.050  17.733  0.00  0.00    +0.000 C 
ATOM      6  C   UNL     1       6.531   7.476  17.720  0.00  0.00    +0.000 C 
ENDROOT
BRANCH   1   8
ATOM      7  N   UNL     1       6.893   5.714  15.611  0.00  0.00    +0.000 N 
ATOM      8  C   UNL     1       7.484   5.282  16.786  0.00  0.00    +0.000 C 
ATOM      9  O   UNL     1       8.050   4.198  16.920  0.00  0.00    +0.000 OA
ATOM     10  H   UNL     1       6.729   6.708  15.503  0.00  0.00    +0.000 HD
BRANCH   7  14
ATOM     11  C   UNL     1       6.311   3.316  12.166  0.00  0.00    +0.000 A 
ATOM     12  C   UNL     1       7.405   4.172  12.239  0.00  0.00    +0.000 A 
ATOM     13  C   UNL     1       7.621   4.952  13.376  0.00  0.00    +0.000 A 
ATOM     14  C   UNL     1       6.732   4.911  14.454  0.00  0.00    +0.000 A 
ATOM     15  C   UNL     1       5.638   4.041  14.383  0.00  0.00    +0.000 A 
ATOM     16  C   UNL     1       5.418   3.260  13.236  0.00  0.00    +0.000 A 
BRANCH  11  17
ATOM     17  O   UNL     1       6.218   2.610  11.002  0.00  0.00    +0.000 OA
BRANCH  17  19
ATOM     18  C   UNL     1       6.405   0.259  11.295  0.00  0.00    +0.000 C 
ATOM     19  C   UNL     1       5.449   1.410  11.041  0.00  0.00    +0.000 C 
ENDBRANCH  17  19
ENDBRANCH  11  17
ENDBRANCH   7  14
ENDBRANCH   1   8
BRANCH   4  20
ATOM     20  S   UNL     1       3.040   5.911  19.020  0.00  0.00    +0.000 S 
ATOM     21  O   UNL     1       2.720   5.292  17.753  0.00  0.00    +0.000 OA
ATOM     22  O   UNL     1       2.783   5.224  20.269  0.00  0.00    +0.000 OA
BRANCH  20  23
ATOM     23  C   UNL     1       2.216   7.459  19.061  0.00  0.00    +0.000 A 
ATOM     24  C   UNL     1       2.039   8.232  17.915  0.00  0.00    +0.000 A 
ATOM     25  C   UNL     1       1.414   9.471  18.036  0.00  0.00    +0.000 A 
ATOM     26  C   UNL     1       0.993   9.877  19.295  0.00  0.00    +0.000 A 
ATOM     27  N   UNL     1       1.153   9.139  20.417  0.00  0.00    +0.000 NA
ATOM     28  C   UNL     1       1.774   7.942  20.277  0.00  0.00    +0.000 A 
ENDBRANCH  20  23
ENDBRANCH   4  20
TORSDOF 6
ENDMDL
MODEL 6
REMARK VINA RESULT:      -6.9      0.775      1.627
REMARK  Name = 
REMARK  7 active torsions:
REMARK  status: ('A' for Active; 'I' for Inactive)
REMARK    1  A    between atoms: C_1  and  C_2
REMARK    2  A    between atoms: C_2  and  O_3
REMARK    3  A    between atoms: O_3  and  C_4
REMARK    4  A    between atoms: C_7  and  N_8
REMARK    5  A    between atoms: C_9  and  C_11
REMARK    6  A    between atoms: N_14  and  S_15
REMARK    7  A    between atoms: S_15  and  C_18
REMARK                            x       y       z     vdW  Elec       q    Type
REMARK                         _______ _______ _______ _____ _____    ______ ____
ROOT
ATOM      1  C   UNL     1       7.357   6.255  17.947  0.00  0.00    +0.000 C 
ATOM      2  C   UNL     1       6.836   5.590  19.231  0.00  0.00    +0.000 C 
ATOM      3  C   UNL     1       5.344   5.261  19.145  0.00  0.00    +0.000 C 
ATOM      4  N   UNL     1       4.547   6.485  18.828  0.00  0.00    +0.000 NA
ATOM      5  C   UNL     1       5.025   7.181  17.594  0.00  0.00    +0.000 C 
ATOM      6  C   UNL     1       6.514   7.501  17.677  0.00  0.00    +0.000 C 
ENDROOT
BRANCH   1   8
ATOM      7  N   UNL     1       6.745   5.668  15.631  0.00  0.00    +0.000 N 
ATOM      8  C   UNL     1       7.365   5.245  16.794  0.00  0.00    +0.000 C 
ATOM      9  O   UNL     1       7.956   4.173  16.914  0.00  0.00    +0.000 OA
ATOM     10  H   UNL     1       6.557   6.659  15.529  0.00  0.00    +0.000 HD
BRANCH   7  14
ATOM     11  C   UNL     1       6.153   3.277  12.182  0.00  0.00    +0.000 A 
ATOM     12  C   UNL     1       7.290   4.070  12.291  0.00  0.00    +0.000 A 
ATOM     13  C   UNL     1       7.509   4.846  13.430  0.00  0.00    +0.000 A 
ATOM     14  C   UNL     1       6.580   4.866  14.474  0.00  0.00    +0.000 A 
ATOM     15  C   UNL     1       5.442   4.059  14.368  0.00  0.00    +0.000 A 
ATOM     16  C   UNL     1       5.220   3.281  13.219  0.00  0.00    +0.000 A 
BRANCH  11  17
ATOM     17  O   UNL     1       6.063   2.567  11.020  0.00  0.00    +0.000 OA
BRANCH  17  19
ATOM     18  C   UNL     1       6.131   0.199  11.211  0.00  0.00    +0.000 C 
ATOM     19  C   UNL     1       6.933   1.447  10.885  0.00  0.00    +0.000 C 
ENDBRANCH  17  19
ENDBRANCH  11  17
ENDBRANCH   7  14
ENDBRANCH   1   8
BRANCH   4  20
ATOM     20  S   UNL     1       2.843   6.190  18.740  0.00  0.00    +0.000 S 
ATOM     21  O   UNL     1       2.170   7.256  19.449  0.00  0.00    +0.000 OA
ATOM     22  O   UNL     1       2.526   5.902  17.356  0.00  0.00    +0.000 OA
BRANCH  20  23
ATOM     23  C   UNL     1       2.614   4.724  19.675  0.00  0.00    +0.000 A 
ATOM     24  C   UNL     1       2.375   4.753  21.048  0.00  0.00    +0.000 A 
ATOM     25  C   UNL     1       2.249   3.545  21.729  0.00  0.00    +0.000 A 
ATOM     26  C   UNL     1       2.365   2.365  21.006  0.00  0.00    +0.000 A 
ATOM     27  N   UNL     1       2.595   2.317  19.674  0.00  0.00    +0.000 NA
ATOM     28  C   UNL     1       2.725   3.505  19.034  0.00  0.00    +0.000 A 
ENDBRANCH  20  23
ENDBRANCH   4  20
TORSDOF 6
ENDMDL
MODEL 7
REMARK VINA RESULT:      -6.8      3.768      7.204
REMARK  Name = 
REMARK  7 active torsions:
REMARK  status: ('A' for Active; 'I' for Inactive)
REMARK    1  A    between atoms: C_1  and  C_2
REMARK    2  A    between atoms: C_2  and  O_3
REMARK    3  A    between atoms: O_3  and  C_4
REMARK    4  A    between atoms: C_7  and  N_8
REMARK    5  A    between atoms: C_9  and  C_11
REMARK    6  A    between atoms: N_14  and  S_15
REMARK    7  A    between atoms: S_15  and  C_18
REMARK                            x       y       z     vdW  Elec       q    Type
REMARK                         _______ _______ _______ _____ _____    ______ ____
ROOT
ATOM      1  C   UNL     1       7.194   5.856  17.157  0.00  0.00    +0.000 C 
ATOM      2  C   UNL     1       6.106   6.383  16.209  0.00  0.00    +0.000 C 
ATOM      3  C   UNL     1       4.856   6.843  16.965  0.00  0.00    +0.000 C 
ATOM      4  N   UNL     1       4.318   5.741  17.820  0.00  0.00    +0.000 NA
ATOM      5  C   UNL     1       5.345   5.181  18.751  0.00  0.00    +0.000 C 
ATOM      6  C   UNL     1       6.593   4.731  17.998  0.00  0.00    +0.000 C 
ENDROOT
BRANCH   1   8
ATOM      7  N   UNL     1       7.710   8.257  17.387  0.00  0.00    +0.000 N 
ATOM      8  C   UNL     1       7.781   7.008  17.981  0.00  0.00    +0.000 C 
ATOM      9  O   UNL     1       8.208   6.804  19.115  0.00  0.00    +0.000 OA
ATOM     10  H   UNL     1       7.082   8.371  16.600  0.00  0.00    +0.000 HD
BRANCH   7  14
ATOM     11  C   UNL     1       9.413  11.743  19.092  0.00  0.00    +0.000 A 
ATOM     12  C   UNL     1       8.645  11.839  17.937  0.00  0.00    +0.000 A 
ATOM     13  C   UNL     1       8.060  10.703  17.376  0.00  0.00    +0.000 A 
ATOM     14  C   UNL     1       8.254   9.441  17.945  0.00  0.00    +0.000 A 
ATOM     15  C   UNL     1       9.018   9.348  19.115  0.00  0.00    +0.000 A 
ATOM     16  C   UNL     1       9.610  10.492  19.676  0.00  0.00    +0.000 A 
BRANCH  11  17
ATOM     17  O   UNL     1       9.923  12.928  19.537  0.00  0.00    +0.000 OA
BRANCH  17  19
ATOM     18  C   UNL     1      10.447  14.531  21.212  0.00  0.00    +0.000 C 
ATOM     19  C   UNL     1       9.680  13.258  20.902  0.00  0.00    +0.000 C 
ENDBRANCH  17  19
ENDBRANCH  11  17
ENDBRANCH   7  14
ENDBRANCH   1   8
BRANCH   4  20
ATOM     20  S   UNL     1       2.886   6.185  18.688  0.00  0.00    +0.000 S 
ATOM     21  O   UNL     1       3.284   6.612  20.012  0.00  0.00    +0.000 OA
ATOM     22  O   UNL     1       2.113   7.057  17.828  0.00  0.00    +0.000 OA
BRANCH  20  23
ATOM     23  C   UNL     1       2.014   4.675  18.873  0.00  0.00    +0.000 A 
ATOM     24  C   UNL     1       1.409   4.314  20.076  0.00  0.00    +0.000 A 
ATOM     25  C   UNL     1       0.773   3.077  20.157  0.00  0.00    +0.000 A 
ATOM     26  C   UNL     1       0.769   2.262  19.033  0.00  0.00    +0.000 A 
ATOM     27  N   UNL     1       1.348   2.597  17.858  0.00  0.00    +0.000 NA
ATOM     28  C   UNL     1       1.971   3.799  17.805  0.00  0.00    +0.000 A 
ENDBRANCH  20  23
ENDBRANCH   4  20
TORSDOF 6
ENDMDL
MODEL 8
REMARK VINA RESULT:      -6.7      3.445      8.118
REMARK  Name = 
REMARK  7 active torsions:
REMARK  status: ('A' for Active; 'I' for Inactive)
REMARK    1  A    between atoms: C_1  and  C_2
REMARK    2  A    between atoms: C_2  and  O_3
REMARK    3  A    between atoms: O_3  and  C_4
REMARK    4  A    between atoms: C_7  and  N_8
REMARK    5  A    between atoms: C_9  and  C_11
REMARK    6  A    between atoms: N_14  and  S_15
REMARK    7  A    between atoms: S_15  and  C_18
REMARK                            x       y       z     vdW  Elec       q    Type
REMARK                         _______ _______ _______ _____ _____    ______ ____
ROOT
ATOM      1  C   UNL     1       3.510   3.520  18.759  0.00  0.00    +0.000 C 
ATOM      2  C   UNL     1       4.933   3.873  19.220  0.00  0.00    +0.000 C 
ATOM      3  C   UNL     1       5.567   4.963  18.351  0.00  0.00    +0.000 C 
ATOM      4  N   UNL     1       5.566   4.561  16.911  0.00  0.00    +0.000 NA
ATOM      5  C   UNL     1       4.205   4.190  16.416  0.00  0.00    +0.000 C 
ATOM      6  C   UNL     1       3.572   3.111  17.288  0.00  0.00    +0.000 C 
ENDROOT
BRANCH   1   8
ATOM      7  N   UNL     1       3.113   5.948  18.920  0.00  0.00    +0.000 N 
ATOM      8  C   UNL     1       2.557   4.686  19.044  0.00  0.00    +0.000 C 
ATOM      9  O   UNL     1       1.372   4.471  19.292  0.00  0.00    +0.000 OA
ATOM     10  H   UNL     1       3.994   6.030  18.428  0.00  0.00    +0.000 HD
BRANCH   7  14
ATOM     11  C   UNL     1       1.030   9.560  19.681  0.00  0.00    +0.000 A 
ATOM     12  C   UNL     1       1.250   8.655  20.713  0.00  0.00    +0.000 A 
ATOM     13  C   UNL     1       1.953   7.472  20.483  0.00  0.00    +0.000 A 
ATOM     14  C   UNL     1       2.427   7.156  19.206  0.00  0.00    +0.000 A 
ATOM     15  C   UNL     1       2.215   8.074  18.171  0.00  0.00    +0.000 A 
ATOM     16  C   UNL     1       1.503   9.262  18.403  0.00  0.00    +0.000 A 
BRANCH  11  17
ATOM     17  O   UNL     1       0.333  10.677  20.041  0.00  0.00    +0.000 OA
BRANCH  17  19
ATOM     18  C   UNL     1      -0.652  11.552  22.020  0.00  0.00    +0.000 C 
ATOM     19  C   UNL     1      -0.757  10.489  20.940  0.00  0.00    +0.000 C 
ENDBRANCH  17  19
ENDBRANCH  11  17
ENDBRANCH   7  14
ENDBRANCH   1   8
BRANCH   4  20
ATOM     20  S   UNL     1       6.292   5.741  15.871  0.00  0.00    +0.000 S 
ATOM     21  O   UNL     1       5.342   6.816  15.687  0.00  0.00    +0.000 OA
ATOM     22  O   UNL     1       7.623   6.004  16.379  0.00  0.00    +0.000 OA
BRANCH  20  23
ATOM     23  C   UNL     1       6.442   4.916  14.330  0.00  0.00    +0.000 A 
ATOM     24  C   UNL     1       5.552   3.919  13.936  0.00  0.00    +0.000 A 
ATOM     25  C   UNL     1       5.763   3.280  12.717  0.00  0.00    +0.000 A 
ATOM     26  C   UNL     1       6.852   3.669  11.948  0.00  0.00    +0.000 A 
ATOM     27  N   UNL     1       7.724   4.636  12.312  0.00  0.00    +0.000 NA
ATOM     28  C   UNL     1       7.505   5.236  13.508  0.00  0.00    +0.000 A 
ENDBRANCH  20  23
ENDBRANCH   4  20
TORSDOF 6
ENDMDL
MODEL 9
REMARK VINA RESULT:      -6.7      3.760      7.050
REMARK  Name = 
REMARK  7 active torsions:
REMARK  status: ('A' for Active; 'I' for Inactive)
REMARK    1  A    between atoms: C_1  and  C_2
REMARK    2  A    between atoms: C_2  and  O_3
REMARK    3  A    between atoms: O_3  and  C_4
REMARK    4  A    between atoms: C_7  and  N_8
REMARK    5  A    between atoms: C_9  and  C_11
REMARK    6  A    between atoms: N_14  and  S_15
REMARK    7  A    between atoms: S_15  and  C_18
REMARK                            x       y       z     vdW  Elec       q    Type
REMARK                         _______ _______ _______ _____ _____    ______ ____
ROOT
ATOM      1  C   UNL     1       7.964   5.646  18.588  0.00  0.00    +0.000 C 
ATOM      2  C   UNL     1       7.639   4.700  17.421  0.00  0.00    +0.000 C 
ATOM      3  C   UNL     1       6.193   4.854  16.941  0.00  0.00    +0.000 C 
ATOM      4  N   UNL     1       5.234   4.646  18.068  0.00  0.00    +0.000 NA
ATOM      5  C   UNL     1       5.518   5.532  19.238  0.00  0.00    +0.000 C 
ATOM      6  C   UNL     1       6.961   5.384  19.710  0.00  0.00    +0.000 C 
ENDROOT
BRANCH   1   8
ATOM      7  N   UNL     1       8.641   7.992  18.934  0.00  0.00    +0.000 N 
ATOM      8  C   UNL     1       7.991   7.099  18.099  0.00  0.00    +0.000 C 
ATOM      9  O   UNL     1       7.520   7.392  17.002  0.00  0.00    +0.000 OA
ATOM     10  H   UNL     1       9.248   7.613  19.652  0.00  0.00    +0.000 HD
BRANCH   7  14
ATOM     11  C   UNL     1       8.971  12.167  18.285  0.00  0.00    +0.000 A 
ATOM     12  C   UNL     1       8.131  11.404  17.482  0.00  0.00    +0.000 A 
ATOM     13  C   UNL     1       7.996  10.032  17.698  0.00  0.00    +0.000 A 
ATOM     14  C   UNL     1       8.720   9.389  18.706  0.00  0.00    +0.000 A 
ATOM     15  C   UNL     1       9.557  10.161  19.521  0.00  0.00    +0.000 A 
ATOM     16  C   UNL     1       9.696  11.541  19.300  0.00  0.00    +0.000 A 
BRANCH  11  17
ATOM     17  O   UNL     1       9.010  13.494  17.970  0.00  0.00    +0.000 OA
BRANCH  17  19
ATOM     18  C   UNL     1       7.655  14.632  19.557  0.00  0.00    +0.000 C 
ATOM     19  C   UNL     1       7.790  14.219  18.102  0.00  0.00    +0.000 C 
ENDBRANCH  17  19
ENDBRANCH  11  17
ENDBRANCH   7  14
ENDBRANCH   1   8
BRANCH   4  20
ATOM     20  S   UNL     1       3.575   4.781  17.590  0.00  0.00    +0.000 S 
ATOM     21  O   UNL     1       3.241   6.188  17.538  0.00  0.00    +0.000 OA
ATOM     22  O   UNL     1       3.389   3.931  16.432  0.00  0.00    +0.000 OA
BRANCH  20  23
ATOM     23  C   UNL     1       2.685   4.090  18.933  0.00  0.00    +0.000 A 
ATOM     24  C   UNL     1       2.617   2.714  19.144  0.00  0.00    +0.000 A 
ATOM     25  C   UNL     1       1.853   2.239  20.208  0.00  0.00    +0.000 A 
ATOM     26  C   UNL     1       1.196   3.161  21.011  0.00  0.00    +0.000 A 
ATOM     27  N   UNL     1       1.253   4.500  20.824  0.00  0.00    +0.000 NA
ATOM     28  C   UNL     1       1.992   4.938  19.776  0.00  0.00    +0.000 A 
ENDBRANCH  20  23
ENDBRANCH   4  20
TORSDOF 6
ENDMDL
