MODEL 1
REMARK VINA RESULT:      -7.3      0.000      0.000
REMARK  Name = 
REMARK  5 active torsions:
REMARK  status: ('A' for Active; 'I' for Inactive)
REMARK    1  A    between atoms: C_1  and  N_2
REMARK    2  A    between atoms: C_4  and  C_5
REMARK    3  A    between atoms: C_8  and  C_9
REMARK    4  A    between atoms: C_12  and  N_13
REMARK    5  A    between atoms: C_16  and  N_17
REMARK                            x       y       z     vdW  Elec       q    Type
REMARK                         _______ _______ _______ _____ _____    ______ ____
ROOT
ATOM      1  C   UNL     1      -1.566  12.352  22.249  0.00  0.00    +0.000 A 
ATOM      2  C   UNL     1      -2.581  11.999  23.160  0.00  0.00    +0.000 A 
ATOM      3  N   UNL     1      -3.247  12.826  23.990  0.00  0.00    +0.000 NA
ATOM      4  C   UNL     1      -2.898  14.115  23.948  0.00  0.00    +0.000 A 
ATOM      5  C   UNL     1      -1.908  14.613  23.075  0.00  0.00    +0.000 A 
ATOM      6 CL   UNL     1      -1.516  16.306  23.255  0.00  0.00    +0.000 Cl
ATOM      7  C   UNL     1      -1.212  13.741  22.169  0.00  0.00    +0.000 A 
ENDROOT
BRANCH   7   8
ATOM      8  N   UNL     1      -0.205  14.247  21.329  0.00  0.00    +0.000 N 
ATOM      9  C   UNL     1      -0.480  14.941  20.067  0.00  0.00    +0.000 C 
ATOM     10  C   UNL     1       0.459  14.477  18.969  0.00  0.00    +0.000 C 
ATOM     11  C   UNL     1       1.942  14.531  19.390  0.00  0.00    +0.000 C 
ATOM     12  C   UNL     1       2.522  15.963  19.386  0.00  0.00    +0.000 C 
ATOM     13  C   UNL     1       2.921  16.194  17.939  0.00  0.00    +0.000 C 
ATOM     14  N   UNL     1       3.259  14.887  17.476  0.00  0.00    +0.000 N 
ATOM     15  C   UNL     1       2.750  13.883  18.284  0.00  0.00    +0.000 C 
ATOM     16  O   UNL     1       2.878  12.693  18.058  0.00  0.00    +0.000 OA
ATOM     17  C   UNL     1       2.131  13.827  20.742  0.00  0.00    +0.000 C 
ATOM     18  C   UNL     1       1.182  14.391  21.805  0.00  0.00    +0.000 C 
ATOM     19  H   UNL     1       3.734  14.660  16.613  0.00  0.00    +0.000 HD
ENDBRANCH   7   8
BRANCH   1  23
ATOM     20  C   UNL     1       0.675   9.316  20.126  0.00  0.00    +0.000 A 
ATOM     21  C   UNL     1      -0.093  10.253  19.426  0.00  0.00    +0.000 A 
ATOM     22  C   UNL     1      -0.933  11.153  20.103  0.00  0.00    +0.000 A 
ATOM     23  C   UNL     1      -0.933  11.230  21.501  0.00  0.00    +0.000 A 
ATOM     24  C   UNL     1      -0.235  10.218  22.190  0.00  0.00    +0.000 A 
ATOM     25  C   UNL     1       0.537   9.265  21.514  0.00  0.00    +0.000 A 
BRANCH  20  29
ATOM     26  C   UNL     1       3.751   5.567  19.017  0.00  0.00    +0.000 C 
ATOM     27  N   UNL     1       2.985   6.789  18.964  0.00  0.00    +0.000 N 
ATOM     28  C   UNL     1       2.142   7.272  19.923  0.00  0.00    +0.000 A 
ATOM     29  C   UNL     1       1.612   8.449  19.425  0.00  0.00    +0.000 A 
ATOM     30  C   UNL     1       2.242   8.587  18.165  0.00  0.00    +0.000 A 
ATOM     31  N   UNL     1       3.077   7.582  17.884  0.00  0.00    +0.000 NA
ENDBRANCH  20  29
ENDBRANCH   1  23
BRANCH   4  32
ATOM     32  N   UNL     1      -3.530  14.914  24.904  0.00  0.00    +0.000 N 
ATOM     33  H   UNL     1      -3.147  14.688  25.817  0.00  0.00    +0.000 HD
ATOM     34  H   UNL     1      -4.540  14.849  24.853  0.00  0.00    +0.000 HD
ENDBRANCH   4  32
TORSDOF 4
ENDMDL
MODEL 2
REMARK VINA RESULT:      -7.0      0.787      1.215
REMARK  Name = 
REMARK  5 active torsions:
REMARK  status: ('A' for Active; 'I' for Inactive)
REMARK    1  A    between atoms: C_1  and  N_2
REMARK    2  A    between atoms: C_4  and  C_5
REMARK    3  A    between atoms: C_8  and  C_9
REMARK    4  A    between atoms: C_12  and  N_13
REMARK    5  A    between atoms: C_16  and  N_17
REMARK                            x       y       z     vdW  Elec       q    Type
REMARK                         _______ _______ _______ _____ _____    ______ ____
ROOT
ATOM      1  C   UNL     1      -1.237  12.013  22.340  0.00  0.00    +0.000 A 
ATOM      2  C   UNL     1      -2.243  11.550  23.212  0.00  0.00    +0.000 A 
ATOM      3  N   UNL     1      -3.164  12.297  23.853  0.00  0.00    +0.000 NA
ATOM      4  C   UNL     1      -3.108  13.615  23.645  0.00  0.00    +0.000 A 
ATOM      5  C   UNL     1      -2.163  14.216  22.788  0.00  0.00    +0.000 A 
ATOM      6 CL   UNL     1      -2.179  15.962  22.740  0.00  0.00    +0.000 Cl
ATOM      7  C   UNL     1      -1.194  13.424  22.081  0.00  0.00    +0.000 A 
ENDROOT
BRANCH   7   8
ATOM      8  N   UNL     1      -0.237  14.040  21.256  0.00  0.00    +0.000 N 
ATOM      9  C   UNL     1      -0.561  14.652  19.963  0.00  0.00    +0.000 C 
ATOM     10  C   UNL     1       0.473  14.290  18.911  0.00  0.00    +0.000 C 
ATOM     11  C   UNL     1       1.918  14.564  19.376  0.00  0.00    +0.000 C 
ATOM     12  C   UNL     1       2.293  16.062  19.341  0.00  0.00    +0.000 C 
ATOM     13  C   UNL     1       2.708  16.304  17.901  0.00  0.00    +0.000 C 
ATOM     14  N   UNL     1       3.241  15.044  17.494  0.00  0.00    +0.000 N 
ATOM     15  C   UNL     1       2.847  14.002  18.320  0.00  0.00    +0.000 C 
ATOM     16  O   UNL     1       3.147  12.836  18.139  0.00  0.00    +0.000 OA
ATOM     17  C   UNL     1       2.154  13.934  20.758  0.00  0.00    +0.000 C 
ATOM     18  C   UNL     1       1.098  14.391  21.770  0.00  0.00    +0.000 C 
ATOM     19  H   UNL     1       3.774  14.859  16.655  0.00  0.00    +0.000 HD
ENDBRANCH   7   8
BRANCH   1  23
ATOM     20  C   UNL     1       1.138   8.786  20.699  0.00  0.00    +0.000 A 
ATOM     21  C   UNL     1       0.930   8.886  22.079  0.00  0.00    +0.000 A 
ATOM     22  C   UNL     1       0.281  10.001  22.636  0.00  0.00    +0.000 A 
ATOM     23  C   UNL     1      -0.292  10.985  21.822  0.00  0.00    +0.000 A 
ATOM     24  C   UNL     1       0.011  10.924  20.447  0.00  0.00    +0.000 A 
ATOM     25  C   UNL     1       0.733   9.856  19.898  0.00  0.00    +0.000 A 
BRANCH  20  29
ATOM     26  C   UNL     1       2.664   4.100  20.021  0.00  0.00    +0.000 C 
ATOM     27  N   UNL     1       2.411   5.510  19.850  0.00  0.00    +0.000 N 
ATOM     28  C   UNL     1       1.750   6.337  20.711  0.00  0.00    +0.000 A 
ATOM     29  C   UNL     1       1.727   7.587  20.119  0.00  0.00    +0.000 A 
ATOM     30  C   UNL     1       2.440   7.392  18.912  0.00  0.00    +0.000 A 
ATOM     31  N   UNL     1       2.857   6.134  18.747  0.00  0.00    +0.000 NA
ENDBRANCH  20  29
ENDBRANCH   1  23
BRANCH   4  32
ATOM     32  N   UNL     1      -4.004  14.360  24.417  0.00  0.00    +0.000 N 
ATOM     33  H   UNL     1      -4.949  14.097  24.154  0.00  0.00    +0.000 HD
ATOM     34  H   UNL     1      -3.822  15.355  24.364  0.00  0.00    +0.000 HD
ENDBRANCH   4  32
TORSDOF 4
ENDMDL
MODEL 3
REMARK VINA RESULT:      -7.0      6.120      9.358
REMARK  Name = 
REMARK  5 active torsions:
REMARK  status: ('A' for Active; 'I' for Inactive)
REMARK    1  A    between atoms: C_1  and  N_2
REMARK    2  A    between atoms: C_4  and  C_5
REMARK    3  A    between atoms: C_8  and  C_9
REMARK    4  A    between atoms: C_12  and  N_13
REMARK    5  A    between atoms: C_16  and  N_17
REMARK                            x       y       z     vdW  Elec       q    Type
REMARK                         _______ _______ _______ _____ _____    ______ ____
ROOT
ATOM      1  C   UNL     1       9.955  12.853  17.966  0.00  0.00    +0.000 A 
ATOM      2  C   UNL     1      11.261  12.792  17.442  0.00  0.00    +0.000 A 
ATOM      3  N   UNL     1      12.050  13.834  17.110  0.00  0.00    +0.000 NA
ATOM      4  C   UNL     1      11.530  15.051  17.289  0.00  0.00    +0.000 A 
ATOM      5  C   UNL     1      10.239  15.262  17.817  0.00  0.00    +0.000 A 
ATOM      6 CL   UNL     1       9.698  16.923  17.865  0.00  0.00    +0.000 Cl
ATOM      7  C   UNL     1       9.402  14.157  18.197  0.00  0.00    +0.000 A 
ENDROOT
BRANCH   7   8
ATOM      8  N   UNL     1       8.106  14.383  18.691  0.00  0.00    +0.000 N 
ATOM      9  C   UNL     1       6.900  14.294  17.862  0.00  0.00    +0.000 C 
ATOM     10  C   UNL     1       5.950  15.443  18.151  0.00  0.00    +0.000 C 
ATOM     11  C   UNL     1       5.651  15.605  19.655  0.00  0.00    +0.000 C 
ATOM     12  C   UNL     1       4.661  14.550  20.195  0.00  0.00    +0.000 C 
ATOM     13  C   UNL     1       3.295  15.121  19.859  0.00  0.00    +0.000 C 
ATOM     14  N   UNL     1       3.505  16.531  19.905  0.00  0.00    +0.000 N 
ATOM     15  C   UNL     1       4.845  16.877  19.821  0.00  0.00    +0.000 C 
ATOM     16  O   UNL     1       5.254  18.024  19.799  0.00  0.00    +0.000 OA
ATOM     17  C   UNL     1       6.965  15.637  20.452  0.00  0.00    +0.000 C 
ATOM     18  C   UNL     1       7.839  14.418  20.140  0.00  0.00    +0.000 C 
ATOM     19  H   UNL     1       2.790  17.246  19.904  0.00  0.00    +0.000 HD
ENDBRANCH   7   8
BRANCH   1  23
ATOM     20  C   UNL     1       8.303   8.867  18.329  0.00  0.00    +0.000 A 
ATOM     21  C   UNL     1       7.776   9.774  17.402  0.00  0.00    +0.000 A 
ATOM     22  C   UNL     1       8.208  11.110  17.370  0.00  0.00    +0.000 A 
ATOM     23  C   UNL     1       9.268  11.548  18.173  0.00  0.00    +0.000 A 
ATOM     24  C   UNL     1       9.717  10.656  19.168  0.00  0.00    +0.000 A 
ATOM     25  C   UNL     1       9.228   9.346  19.259  0.00  0.00    +0.000 A 
BRANCH  20  29
ATOM     26  C   UNL     1       6.234   4.542  17.002  0.00  0.00    +0.000 C 
ATOM     27  N   UNL     1       6.976   5.563  17.702  0.00  0.00    +0.000 N 
ATOM     28  C   UNL     1       7.094   6.877  17.354  0.00  0.00    +0.000 A 
ATOM     29  C   UNL     1       7.919   7.462  18.297  0.00  0.00    +0.000 A 
ATOM     30  C   UNL     1       8.209   6.400  19.186  0.00  0.00    +0.000 A 
ATOM     31  N   UNL     1       7.637   5.246  18.828  0.00  0.00    +0.000 NA
ENDBRANCH  20  29
ENDBRANCH   1  23
BRANCH   4  32
ATOM     32  N   UNL     1      12.333  16.096  16.825  0.00  0.00    +0.000 N 
ATOM     33  H   UNL     1      13.116  16.205  17.462  0.00  0.00    +0.000 HD
ATOM     34  H   UNL     1      11.805  16.946  16.669  0.00  0.00    +0.000 HD
ENDBRANCH   4  32
TORSDOF 4
ENDMDL
MODEL 4
REMARK VINA RESULT:      -6.9      1.516      1.985
REMARK  Name = 
REMARK  5 active torsions:
REMARK  status: ('A' for Active; 'I' for Inactive)
REMARK    1  A    between atoms: C_1  and  N_2
REMARK    2  A    between atoms: C_4  and  C_5
REMARK    3  A    between atoms: C_8  and  C_9
REMARK    4  A    between atoms: C_12  and  N_13
REMARK    5  A    between atoms: C_16  and  N_17
REMARK                            x       y       z     vdW  Elec       q    Type
REMARK                         _______ _______ _______ _____ _____    ______ ____
ROOT
ATOM      1  C   UNL     1      -0.491  11.803  21.689  0.00  0.00    +0.000 A 
ATOM      2  C   UNL     1      -1.482  11.513  22.648  0.00  0.00    +0.000 A 
ATOM      3  N   UNL     1      -2.075  12.384  23.488  0.00  0.00    +0.000 NA
ATOM      4  C   UNL     1      -1.672  13.655  23.407  0.00  0.00    +0.000 A 
ATOM      5  C   UNL     1      -0.698  14.091  22.485  0.00  0.00    +0.000 A 
ATOM      6 CL   UNL     1      -0.223  15.768  22.615  0.00  0.00    +0.000 Cl
ATOM      7  C   UNL     1      -0.079  13.173  21.568  0.00  0.00    +0.000 A 
ENDROOT
BRANCH   7   8
ATOM      8  N   UNL     1       0.913  13.618  20.677  0.00  0.00    +0.000 N 
ATOM      9  C   UNL     1       2.347  13.391  20.888  0.00  0.00    +0.000 C 
ATOM     10  C   UNL     1       3.151  14.640  20.574  0.00  0.00    +0.000 C 
ATOM     11  C   UNL     1       2.819  15.229  19.188  0.00  0.00    +0.000 C 
ATOM     12  C   UNL     1       3.451  14.435  18.023  0.00  0.00    +0.000 C 
ATOM     13  C   UNL     1       4.863  14.988  17.924  0.00  0.00    +0.000 C 
ATOM     14  N   UNL     1       4.720  16.338  18.362  0.00  0.00    +0.000 N 
ATOM     15  C   UNL     1       3.549  16.552  19.073  0.00  0.00    +0.000 C 
ATOM     16  O   UNL     1       3.240  17.616  19.577  0.00  0.00    +0.000 OA
ATOM     17  C   UNL     1       1.299  15.384  19.032  0.00  0.00    +0.000 C 
ATOM     18  C   UNL     1       0.569  14.067  19.317  0.00  0.00    +0.000 C 
ATOM     19  H   UNL     1       5.408  17.075  18.274  0.00  0.00    +0.000 HD
ENDBRANCH   7   8
BRANCH   1  23
ATOM     20  C   UNL     1       1.526   8.614  19.568  0.00  0.00    +0.000 A 
ATOM     21  C   UNL     1       0.857   9.622  18.866  0.00  0.00    +0.000 A 
ATOM     22  C   UNL     1       0.083  10.583  19.539  0.00  0.00    +0.000 A 
ATOM     23  C   UNL     1       0.059  10.641  20.938  0.00  0.00    +0.000 A 
ATOM     24  C   UNL     1       0.652   9.564  21.626  0.00  0.00    +0.000 A 
ATOM     25  C   UNL     1       1.354   8.556  20.952  0.00  0.00    +0.000 A 
BRANCH  20  29
ATOM     26  C   UNL     1       4.093   4.531  18.347  0.00  0.00    +0.000 C 
ATOM     27  N   UNL     1       3.543   5.865  18.364  0.00  0.00    +0.000 N 
ATOM     28  C   UNL     1       2.665   6.381  19.273  0.00  0.00    +0.000 A 
ATOM     29  C   UNL     1       2.400   7.678  18.874  0.00  0.00    +0.000 A 
ATOM     30  C   UNL     1       3.208   7.839  17.723  0.00  0.00    +0.000 A 
ATOM     31  N   UNL     1       3.903   6.741  17.412  0.00  0.00    +0.000 NA
ENDBRANCH  20  29
ENDBRANCH   1  23
BRANCH   4  32
ATOM     32  N   UNL     1      -2.226  14.499  24.372  0.00  0.00    +0.000 N 
ATOM     33  H   UNL     1      -2.180  15.453  24.029  0.00  0.00    +0.000 HD
ATOM     34  H   UNL     1      -1.806  14.367  25.285  0.00  0.00    +0.000 HD
ENDBRANCH   4  32
TORSDOF 4
ENDMDL
MODEL 5
REMARK VINA RESULT:      -6.7      2.447      3.420
REMARK  Name = 
REMARK  5 active torsions:
REMARK  status: ('A' for Active; 'I' for Inactive)
REMARK    1  A    between atoms: C_1  and  N_2
REMARK    2  A    between atoms: C_4  and  C_5
REMARK    3  A    between atoms: C_8  and  C_9
REMARK    4  A    between atoms: C_12  and  N_13
REMARK    5  A    between atoms: C_16  and  N_17
REMARK                            x       y       z     vdW  Elec       q    Type
REMARK                         _______ _______ _______ _____ _____    ______ ____
ROOT
ATOM      1  C   UNL     1      -0.099  11.483  19.511  0.00  0.00    +0.000 A 
ATOM      2  C   UNL     1      -1.444  11.148  19.760  0.00  0.00    +0.000 A 
ATOM      3  N   UNL     1      -2.454  12.000  20.027  0.00  0.00    +0.000 NA
ATOM      4  C   UNL     1      -2.140  13.298  20.068  0.00  0.00    +0.000 A 
ATOM      5  C   UNL     1      -0.837  13.778  19.824  0.00  0.00    +0.000 A 
ATOM      6 CL   UNL     1      -0.606  15.497  20.039  0.00  0.00    +0.000 Cl
ATOM      7  C   UNL     1       0.240  12.878  19.514  0.00  0.00    +0.000 A 
ENDROOT
BRANCH   7   8
ATOM      8  N   UNL     1       1.541  13.369  19.307  0.00  0.00    +0.000 N 
ATOM      9  C   UNL     1       2.583  13.355  20.339  0.00  0.00    +0.000 C 
ATOM     10  C   UNL     1       3.347  14.666  20.364  0.00  0.00    +0.000 C 
ATOM     11  C   UNL     1       3.866  15.081  18.972  0.00  0.00    +0.000 C 
ATOM     12  C   UNL     1       5.106  14.278  18.522  0.00  0.00    +0.000 C 
ATOM     13  C   UNL     1       6.271  15.002  19.175  0.00  0.00    +0.000 C 
ATOM     14  N   UNL     1       5.823  16.355  19.242  0.00  0.00    +0.000 N 
ATOM     15  C   UNL     1       4.448  16.473  19.103  0.00  0.00    +0.000 C 
ATOM     16  O   UNL     1       3.844  17.528  19.170  0.00  0.00    +0.000 OA
ATOM     17  C   UNL     1       2.725  15.018  17.945  0.00  0.00    +0.000 C 
ATOM     18  C   UNL     1       2.042  13.646  17.949  0.00  0.00    +0.000 C 
ATOM     19  H   UNL     1       6.388  17.165  19.458  0.00  0.00    +0.000 HD
ENDBRANCH   7   8
BRANCH   1  23
ATOM     20  C   UNL     1       2.280   7.947  18.746  0.00  0.00    +0.000 A 
ATOM     21  C   UNL     1       1.741   8.181  20.016  0.00  0.00    +0.000 A 
ATOM     22  C   UNL     1       1.087   9.388  20.315  0.00  0.00    +0.000 A 
ATOM     23  C   UNL     1       0.839  10.342  19.321  0.00  0.00    +0.000 A 
ATOM     24  C   UNL     1       1.473  10.140  18.078  0.00  0.00    +0.000 A 
ATOM     25  C   UNL     1       2.199   8.974  17.803  0.00  0.00    +0.000 A 
BRANCH  20  29
ATOM     26  C   UNL     1       5.132   4.424  16.697  0.00  0.00    +0.000 C 
ATOM     27  N   UNL     1       4.135   5.114  17.479  0.00  0.00    +0.000 N 
ATOM     28  C   UNL     1       3.896   6.458  17.505  0.00  0.00    +0.000 A 
ATOM     29  C   UNL     1       2.874   6.659  18.415  0.00  0.00    +0.000 A 
ATOM     30  C   UNL     1       2.558   5.350  18.850  0.00  0.00    +0.000 A 
ATOM     31  N   UNL     1       3.320   4.411  18.282  0.00  0.00    +0.000 NA
ENDBRANCH  20  29
ENDBRANCH   1  23
BRANCH   4  32
ATOM     32  N   UNL     1      -3.189  14.133  20.461  0.00  0.00    +0.000 N 
ATOM     33  H   UNL     1      -3.805  14.271  19.665  0.00  0.00    +0.000 HD
ATOM     34  H   UNL     1      -2.858  14.993  20.881  0.00  0.00    +0.000 HD
ENDBRANCH   4  32
TORSDOF 4
ENDMDL
MODEL 6
REMARK VINA RESULT:      -6.7      1.616      2.348
REMARK  Name = 
REMARK  5 active torsions:
REMARK  status: ('A' for Active; 'I' for Inactive)
REMARK    1  A    between atoms: C_1  and  N_2
REMARK    2  A    between atoms: C_4  and  C_5
REMARK    3  A    between atoms: C_8  and  C_9
REMARK    4  A    between atoms: C_12  and  N_13
REMARK    5  A    between atoms: C_16  and  N_17
REMARK                            x       y       z     vdW  Elec       q    Type
REMARK                         _______ _______ _______ _____ _____    ______ ____
ROOT
ATOM      1  C   UNL     1      -0.285  11.459  21.742  0.00  0.00    +0.000 A 
ATOM      2  C   UNL     1      -1.279  11.076  22.664  0.00  0.00    +0.000 A 
ATOM      3  N   UNL     1      -2.109  11.893  23.344  0.00  0.00    +0.000 NA
ATOM      4  C   UNL     1      -1.963  13.202  23.125  0.00  0.00    +0.000 A 
ATOM      5  C   UNL     1      -1.017  13.727  22.219  0.00  0.00    +0.000 A 
ATOM      6 CL   UNL     1      -0.903  15.469  22.161  0.00  0.00    +0.000 Cl
ATOM      7  C   UNL     1      -0.147  12.861  21.471  0.00  0.00    +0.000 A 
ENDROOT
BRANCH   7   8
ATOM      8  N   UNL     1       0.813  13.401  20.597  0.00  0.00    +0.000 N 
ATOM      9  C   UNL     1       2.253  13.391  20.874  0.00  0.00    +0.000 C 
ATOM     10  C   UNL     1       2.888  14.725  20.525  0.00  0.00    +0.000 C 
ATOM     11  C   UNL     1       2.539  15.197  19.099  0.00  0.00    +0.000 C 
ATOM     12  C   UNL     1       3.327  14.448  18.002  0.00  0.00    +0.000 C 
ATOM     13  C   UNL     1       4.650  15.190  17.927  0.00  0.00    +0.000 C 
ATOM     14  N   UNL     1       4.300  16.526  18.289  0.00  0.00    +0.000 N 
ATOM     15  C   UNL     1       3.080  16.603  18.943  0.00  0.00    +0.000 C 
ATOM     16  O   UNL     1       2.604  17.635  19.379  0.00  0.00    +0.000 OA
ATOM     17  C   UNL     1       1.020  15.127  18.878  0.00  0.00    +0.000 C 
ATOM     18  C   UNL     1       0.470  13.734  19.203  0.00  0.00    +0.000 C 
ATOM     19  H   UNL     1       4.882  17.347  18.189  0.00  0.00    +0.000 HD
ENDBRANCH   7   8
BRANCH   1  23
ATOM     20  C   UNL     1       1.756   8.048  20.025  0.00  0.00    +0.000 A 
ATOM     21  C   UNL     1       1.665   8.198  21.413  0.00  0.00    +0.000 A 
ATOM     22  C   UNL     1       1.131   9.366  21.983  0.00  0.00    +0.000 A 
ATOM     23  C   UNL     1       0.553  10.361  21.185  0.00  0.00    +0.000 A 
ATOM     24  C   UNL     1       0.742  10.244  19.793  0.00  0.00    +0.000 A 
ATOM     25  C   UNL     1       1.352   9.118  19.224  0.00  0.00    +0.000 A 
BRANCH  20  29
ATOM     26  C   UNL     1       2.949   3.261  19.385  0.00  0.00    +0.000 C 
ATOM     27  N   UNL     1       2.764   4.678  19.187  0.00  0.00    +0.000 N 
ATOM     28  C   UNL     1       2.226   5.568  20.071  0.00  0.00    +0.000 A 
ATOM     29  C   UNL     1       2.225   6.799  19.440  0.00  0.00    +0.000 A 
ATOM     30  C   UNL     1       2.821   6.527  18.185  0.00  0.00    +0.000 A 
ATOM     31  N   UNL     1       3.150   5.241  18.030  0.00  0.00    +0.000 NA
ENDBRANCH  20  29
ENDBRANCH   1  23
BRANCH   4  32
ATOM     32  N   UNL     1      -2.761  14.015  23.935  0.00  0.00    +0.000 N 
ATOM     33  H   UNL     1      -3.401  14.531  23.340  0.00  0.00    +0.000 HD
ATOM     34  H   UNL     1      -2.211  14.599  24.554  0.00  0.00    +0.000 HD
ENDBRANCH   4  32
TORSDOF 4
ENDMDL
MODEL 7
REMARK VINA RESULT:      -6.7      2.891      3.872
REMARK  Name = 
REMARK  5 active torsions:
REMARK  status: ('A' for Active; 'I' for Inactive)
REMARK    1  A    between atoms: C_1  and  N_2
REMARK    2  A    between atoms: C_4  and  C_5
REMARK    3  A    between atoms: C_8  and  C_9
REMARK    4  A    between atoms: C_12  and  N_13
REMARK    5  A    between atoms: C_16  and  N_17
REMARK                            x       y       z     vdW  Elec       q    Type
REMARK                         _______ _______ _______ _____ _____    ______ ____
ROOT
ATOM      1  C   UNL     1      -0.509  10.579  18.872  0.00  0.00    +0.000 A 
ATOM      2  C   UNL     1      -1.717  10.059  18.367  0.00  0.00    +0.000 A 
ATOM      3  N   UNL     1      -2.904  10.695  18.293  0.00  0.00    +0.000 NA
ATOM      4  C   UNL     1      -2.935  11.948  18.756  0.00  0.00    +0.000 A 
ATOM      5  C   UNL     1      -1.798  12.600  19.277  0.00  0.00    +0.000 A 
ATOM      6 CL   UNL     1      -2.071  14.194  19.939  0.00  0.00    +0.000 Cl
ATOM      7  C   UNL     1      -0.524  11.937  19.336  0.00  0.00    +0.000 A 
ENDROOT
BRANCH   7   8
ATOM      8  N   UNL     1       0.592  12.589  19.889  0.00  0.00    +0.000 N 
ATOM      9  C   UNL     1       0.791  12.765  21.331  0.00  0.00    +0.000 C 
ATOM     10  C   UNL     1       1.278  14.167  21.650  0.00  0.00    +0.000 C 
ATOM     11  C   UNL     1       2.501  14.580  20.806  0.00  0.00    +0.000 C 
ATOM     12  C   UNL     1       3.818  13.931  21.286  0.00  0.00    +0.000 C 
ATOM     13  C   UNL     1       4.286  14.836  22.412  0.00  0.00    +0.000 C 
ATOM     14  N   UNL     1       3.785  16.118  22.034  0.00  0.00    +0.000 N 
ATOM     15  C   UNL     1       2.773  16.043  21.090  0.00  0.00    +0.000 C 
ATOM     16  O   UNL     1       2.172  17.008  20.655  0.00  0.00    +0.000 OA
ATOM     17  C   UNL     1       2.226  14.314  19.317  0.00  0.00    +0.000 C 
ATOM     18  C   UNL     1       1.791  12.865  19.078  0.00  0.00    +0.000 C 
ATOM     19  H   UNL     1       4.037  17.007  22.446  0.00  0.00    +0.000 HD
ENDBRANCH   7   8
BRANCH   1  23
ATOM     20  C   UNL     1       2.559   7.524  18.825  0.00  0.00    +0.000 A 
ATOM     21  C   UNL     1       1.916   7.869  20.019  0.00  0.00    +0.000 A 
ATOM     22  C   UNL     1       1.022   8.951  20.075  0.00  0.00    +0.000 A 
ATOM     23  C   UNL     1       0.645   9.638  18.915  0.00  0.00    +0.000 A 
ATOM     24  C   UNL     1       1.373   9.348  17.744  0.00  0.00    +0.000 A 
ATOM     25  C   UNL     1       2.329   8.325  17.704  0.00  0.00    +0.000 A 
BRANCH  20  29
ATOM     26  C   UNL     1       4.495   3.010  19.612  0.00  0.00    +0.000 C 
ATOM     27  N   UNL     1       4.264   4.351  19.131  0.00  0.00    +0.000 N 
ATOM     28  C   UNL     1       3.241   5.185  19.481  0.00  0.00    +0.000 A 
ATOM     29  C   UNL     1       3.413   6.347  18.751  0.00  0.00    +0.000 A 
ATOM     30  C   UNL     1       4.599   6.103  18.018  0.00  0.00    +0.000 A 
ATOM     31  N   UNL     1       5.118   4.893  18.248  0.00  0.00    +0.000 NA
ENDBRANCH  20  29
ENDBRANCH   1  23
BRANCH   4  32
ATOM     32  N   UNL     1      -4.206  12.527  18.766  0.00  0.00    +0.000 N 
ATOM     33  H   UNL     1      -4.391  12.912  17.845  0.00  0.00    +0.000 HD
ATOM     34  H   UNL     1      -4.319  13.192  19.523  0.00  0.00    +0.000 HD
ENDBRANCH   4  32
TORSDOF 4
ENDMDL
MODEL 8
REMARK VINA RESULT:      -6.5      7.002      9.770
REMARK  Name = 
REMARK  5 active torsions:
REMARK  status: ('A' for Active; 'I' for Inactive)
REMARK    1  A    between atoms: C_1  and  N_2
REMARK    2  A    between atoms: C_4  and  C_5
REMARK    3  A    between atoms: C_8  and  C_9
REMARK    4  A    between atoms: C_12  and  N_13
REMARK    5  A    between atoms: C_16  and  N_17
REMARK                            x       y       z     vdW  Elec       q    Type
REMARK                         _______ _______ _______ _____ _____    ______ ____
ROOT
ATOM      1  C   UNL     1       9.988  12.723  18.175  0.00  0.00    +0.000 A 
ATOM      2  C   UNL     1      10.889  12.835  17.098  0.00  0.00    +0.000 A 
ATOM      3  N   UNL     1      11.589  13.930  16.739  0.00  0.00    +0.000 NA
ATOM      4  C   UNL     1      11.398  15.025  17.479  0.00  0.00    +0.000 A 
ATOM      5  C   UNL     1      10.535  15.054  18.595  0.00  0.00    +0.000 A 
ATOM      6 CL   UNL     1      10.333  16.611  19.361  0.00  0.00    +0.000 Cl
ATOM      7  C   UNL     1       9.805  13.884  18.999  0.00  0.00    +0.000 A 
ENDROOT
BRANCH   7   8
ATOM      8  N   UNL     1       8.924  13.938  20.094  0.00  0.00    +0.000 N 
ATOM      9  C   UNL     1       7.508  14.298  19.972  0.00  0.00    +0.000 C 
ATOM     10  C   UNL     1       7.087  15.247  21.079  0.00  0.00    +0.000 C 
ATOM     11  C   UNL     1       7.473  14.736  22.482  0.00  0.00    +0.000 C 
ATOM     12  C   UNL     1       6.549  13.608  22.993  0.00  0.00    +0.000 C 
ATOM     13  C   UNL     1       5.361  14.346  23.585  0.00  0.00    +0.000 C 
ATOM     14  N   UNL     1       5.928  15.572  24.044  0.00  0.00    +0.000 N 
ATOM     15  C   UNL     1       7.160  15.843  23.468  0.00  0.00    +0.000 C 
ATOM     16  O   UNL     1       7.806  16.853  23.680  0.00  0.00    +0.000 OA
ATOM     17  C   UNL     1       8.956  14.334  22.506  0.00  0.00    +0.000 C 
ATOM     18  C   UNL     1       9.283  13.336  21.390  0.00  0.00    +0.000 C 
ATOM     19  H   UNL     1       5.484  16.251  24.648  0.00  0.00    +0.000 HD
ENDBRANCH   7   8
BRANCH   1  23
ATOM     20  C   UNL     1       8.277   8.748  18.315  0.00  0.00    +0.000 A 
ATOM     21  C   UNL     1       7.771   9.710  17.434  0.00  0.00    +0.000 A 
ATOM     22  C   UNL     1       8.222  11.040  17.475  0.00  0.00    +0.000 A 
ATOM     23  C   UNL     1       9.281  11.419  18.309  0.00  0.00    +0.000 A 
ATOM     24  C   UNL     1       9.709  10.470  19.258  0.00  0.00    +0.000 A 
ATOM     25  C   UNL     1       9.201   9.164  19.276  0.00  0.00    +0.000 A 
BRANCH  20  29
ATOM     26  C   UNL     1       6.313   4.493  16.648  0.00  0.00    +0.000 C 
ATOM     27  N   UNL     1       6.979   5.485  17.457  0.00  0.00    +0.000 N 
ATOM     28  C   UNL     1       7.165   6.803  17.154  0.00  0.00    +0.000 A 
ATOM     29  C   UNL     1       7.874   7.353  18.206  0.00  0.00    +0.000 A 
ATOM     30  C   UNL     1       8.028   6.269  19.103  0.00  0.00    +0.000 A 
ATOM     31  N   UNL     1       7.484   5.134  18.651  0.00  0.00    +0.000 NA
ENDBRANCH  20  29
ENDBRANCH   1  23
BRANCH   4  32
ATOM     32  N   UNL     1      12.052  16.164  17.004  0.00  0.00    +0.000 N 
ATOM     33  H   UNL     1      11.374  16.916  16.927  0.00  0.00    +0.000 HD
ATOM     34  H   UNL     1      12.566  15.983  16.149  0.00  0.00    +0.000 HD
ENDBRANCH   4  32
TORSDOF 4
ENDMDL
MODEL 9
REMARK VINA RESULT:      -6.3      1.288      1.673
REMARK  Name = 
REMARK  5 active torsions:
REMARK  status: ('A' for Active; 'I' for Inactive)
REMARK    1  A    between atoms: C_1  and  N_2
REMARK    2  A    between atoms: C_4  and  C_5
REMARK    3  A    between atoms: C_8  and  C_9
REMARK    4  A    between atoms: C_12  and  N_13
REMARK    5  A    between atoms: C_16  and  N_17
REMARK                            x       y       z     vdW  Elec       q    Type
REMARK                         _______ _______ _______ _____ _____    ______ ____
ROOT
ATOM      1  C   UNL     1      -2.282  12.788  22.567  0.00  0.00    +0.000 A 
ATOM      2  C   UNL     1      -3.378  12.280  23.293  0.00  0.00    +0.000 A 
ATOM      3  N   UNL     1      -4.392  12.989  23.829  0.00  0.00    +0.000 NA
ATOM      4  C   UNL     1      -4.344  14.313  23.660  0.00  0.00    +0.000 A 
ATOM      5  C   UNL     1      -3.314  14.957  22.944  0.00  0.00    +0.000 A 
ATOM      6 CL   UNL     1      -3.369  16.704  22.934  0.00  0.00    +0.000 Cl
ATOM      7  C   UNL     1      -2.243  14.206  22.347  0.00  0.00    +0.000 A 
ENDROOT
BRANCH   7   8
ATOM      8  N   UNL     1      -1.206  14.866  21.665  0.00  0.00    +0.000 N 
ATOM      9  C   UNL     1      -1.367  15.460  20.333  0.00  0.00    +0.000 C 
ATOM     10  C   UNL     1      -0.176  15.146  19.446  0.00  0.00    +0.000 C 
ATOM     11  C   UNL     1       1.172  15.487  20.113  0.00  0.00    +0.000 C 
ATOM     12  C   UNL     1       1.479  17.001  20.121  0.00  0.00    +0.000 C 
ATOM     13  C   UNL     1       2.087  17.260  18.753  0.00  0.00    +0.000 C 
ATOM     14  N   UNL     1       2.731  16.026  18.438  0.00  0.00    +0.000 N 
ATOM     15  C   UNL     1       2.269  14.969  19.207  0.00  0.00    +0.000 C 
ATOM     16  O   UNL     1       2.646  13.818  19.081  0.00  0.00    +0.000 OA
ATOM     17  C   UNL     1       1.234  14.871  21.519  0.00  0.00    +0.000 C 
ATOM     18  C   UNL     1       0.023  15.280  22.364  0.00  0.00    +0.000 C 
ATOM     19  H   UNL     1       3.387  15.866  17.686  0.00  0.00    +0.000 HD
ENDBRANCH   7   8
BRANCH   1  23
ATOM     20  C   UNL     1       0.363   9.657  21.174  0.00  0.00    +0.000 A 
ATOM     21  C   UNL     1      -0.003   9.731  22.522  0.00  0.00    +0.000 A 
ATOM     22  C   UNL     1      -0.745  10.819  23.013  0.00  0.00    +0.000 A 
ATOM     23  C   UNL     1      -1.253  11.796  22.149  0.00  0.00    +0.000 A 
ATOM     24  C   UNL     1      -0.794  11.764  20.817  0.00  0.00    +0.000 A 
ATOM     25  C   UNL     1       0.018  10.725  20.343  0.00  0.00    +0.000 A 
BRANCH  20  29
ATOM     26  C   UNL     1       2.158   5.045  20.662  0.00  0.00    +0.000 C 
ATOM     27  N   UNL     1       1.852   6.441  20.457  0.00  0.00    +0.000 N 
ATOM     28  C   UNL     1       1.088   7.241  21.258  0.00  0.00    +0.000 A 
ATOM     29  C   UNL     1       1.051   8.484  20.652  0.00  0.00    +0.000 A 
ATOM     30  C   UNL     1       1.862   8.316  19.505  0.00  0.00    +0.000 A 
ATOM     31  N   UNL     1       2.350   7.078  19.385  0.00  0.00    +0.000 NA
ENDBRANCH  20  29
ENDBRANCH   1  23
BRANCH   4  32
ATOM     32  N   UNL     1      -5.349  15.016  24.329  0.00  0.00    +0.000 N 
ATOM     33  H   UNL     1      -5.978  14.346  24.761  0.00  0.00    +0.000 HD
ATOM     34  H   UNL     1      -5.812  15.689  23.729  0.00  0.00    +0.000 HD
ENDBRANCH   4  32
TORSDOF 4
ENDMDL
