MODEL 1
REMARK VINA RESULT:      -7.2      0.000      0.000
REMARK  Name = 
REMARK  5 active torsions:
REMARK  status: ('A' for Active; 'I' for Inactive)
REMARK    1  A    between atoms: C_1  and  O_2
REMARK    2  A    between atoms: O_2  and  C_3
REMARK    3  A    between atoms: N_9  and  C_10
REMARK    4  A    between atoms: C_10  and  N_12
REMARK    5  A    between atoms: C_13  and  C_15
REMARK                            x       y       z     vdW  Elec       q    Type
REMARK                         _______ _______ _______ _____ _____    ______ ____
ROOT
ATOM      1  C   UNL     1       4.170   3.434  18.595  0.00  0.00    +0.000 C 
ATOM      2  S   UNL     1       4.406   2.451  19.930  0.00  0.00    +0.000 S 
ENDROOT
BRANCH   1   9
ATOM      3  C   UNL     1       6.897   5.500  16.012  0.00  0.00    +0.000 A 
ATOM      4  C   UNL     1       7.023   5.136  14.703  0.00  0.00    +0.000 A 
ATOM      5  C   UNL     1       6.230   4.078  14.350  0.00  0.00    +0.000 A 
ATOM      6 CL   UNL     1       6.306   3.434  12.759  0.00  0.00    +0.000 Cl
ATOM      7  N   UNL     1       5.380   3.436  15.168  0.00  0.00    +0.000 NA
ATOM      8  C   UNL     1       5.320   3.897  16.420  0.00  0.00    +0.000 A 
ATOM      9  N   UNL     1       4.464   3.214  17.275  0.00  0.00    +0.000 N 
ATOM     10  N   UNL     1       6.048   4.914  16.867  0.00  0.00    +0.000 NA
ATOM     11  H   UNL     1       4.009   2.428  16.817  0.00  0.00    +0.000 HD
BRANCH   3  13
ATOM     12  C   UNL     1       7.142   7.165  17.617  0.00  0.00    +0.000 C 
ATOM     13  O   UNL     1       7.707   6.516  16.475  0.00  0.00    +0.000 OA
ENDBRANCH   3  13
ENDBRANCH   1   9
BRANCH   1  14
ATOM     14  N   UNL     1       3.604   4.665  18.878  0.00  0.00    +0.000 N 
ATOM     15  C   UNL     1       2.427   5.192  18.382  0.00  0.00    +0.000 C 
ATOM     16  O   UNL     1       1.655   4.578  17.653  0.00  0.00    +0.000 OA
ATOM     17  H   UNL     1       4.208   5.249  19.440  0.00  0.00    +0.000 HD
BRANCH  15  18
ATOM     18  C   UNL     1       2.136   6.593  18.732  0.00  0.00    +0.000 A 
ATOM     19  C   UNL     1       2.146   7.647  17.815  0.00  0.00    +0.000 A 
ATOM     20  C   UNL     1       1.848   8.935  18.268  0.00  0.00    +0.000 A 
ATOM     21  C   UNL     1       1.548   9.105  19.613  0.00  0.00    +0.000 A 
ATOM     22 CL   UNL     1       1.160  10.651  20.242  0.00  0.00    +0.000 Cl
ATOM     23  N   UNL     1       1.532   8.111  20.520  0.00  0.00    +0.000 NA
ATOM     24  C   UNL     1       1.838   6.874  20.061  0.00  0.00    +0.000 A 
ENDBRANCH  15  18
ENDBRANCH   1  14
TORSDOF 4
ENDMDL
MODEL 2
REMARK VINA RESULT:      -7.0      1.625      1.820
REMARK  Name = 
REMARK  5 active torsions:
REMARK  status: ('A' for Active; 'I' for Inactive)
REMARK    1  A    between atoms: C_1  and  O_2
REMARK    2  A    between atoms: O_2  and  C_3
REMARK    3  A    between atoms: N_9  and  C_10
REMARK    4  A    between atoms: C_10  and  N_12
REMARK    5  A    between atoms: C_13  and  C_15
REMARK                            x       y       z     vdW  Elec       q    Type
REMARK                         _______ _______ _______ _____ _____    ______ ____
ROOT
ATOM      1  C   UNL     1       2.843   4.679  18.707  0.00  0.00    +0.000 C 
ATOM      2  S   UNL     1       2.842   3.689  20.056  0.00  0.00    +0.000 S 
ENDROOT
BRANCH   1   9
ATOM      3  C   UNL     1       6.937   4.528  17.444  0.00  0.00    +0.000 A 
ATOM      4  C   UNL     1       7.251   4.332  16.131  0.00  0.00    +0.000 A 
ATOM      5  C   UNL     1       6.157   4.178  15.323  0.00  0.00    +0.000 A 
ATOM      6 CL   UNL     1       6.358   3.852  13.649  0.00  0.00    +0.000 Cl
ATOM      7  N   UNL     1       4.877   4.225  15.729  0.00  0.00    +0.000 NA
ATOM      8  C   UNL     1       4.690   4.450  17.033  0.00  0.00    +0.000 A 
ATOM      9  N   UNL     1       3.368   4.468  17.458  0.00  0.00    +0.000 N 
ATOM     10  N   UNL     1       5.681   4.610  17.903  0.00  0.00    +0.000 NA
ATOM     11  H   UNL     1       2.716   4.284  16.699  0.00  0.00    +0.000 HD
BRANCH   3  13
ATOM     12  C   UNL     1       7.850   5.784  19.174  0.00  0.00    +0.000 C 
ATOM     13  O   UNL     1       7.978   4.628  18.343  0.00  0.00    +0.000 OA
ENDBRANCH   3  13
ENDBRANCH   1   9
BRANCH   1  14
ATOM     14  N   UNL     1       2.229   5.906  18.892  0.00  0.00    +0.000 N 
ATOM     15  C   UNL     1       2.638   7.139  18.420  0.00  0.00    +0.000 C 
ATOM     16  O   UNL     1       3.600   7.304  17.676  0.00  0.00    +0.000 OA
ATOM     17  H   UNL     1       1.451   5.857  19.535  0.00  0.00    +0.000 HD
BRANCH  15  18
ATOM     18  C   UNL     1       1.879   8.309  18.896  0.00  0.00    +0.000 A 
ATOM     19  C   UNL     1       1.527   9.395  18.090  0.00  0.00    +0.000 A 
ATOM     20  C   UNL     1       0.801  10.444  18.656  0.00  0.00    +0.000 A 
ATOM     21  C   UNL     1       0.456  10.356  19.998  0.00  0.00    +0.000 A 
ATOM     22 CL   UNL     1      -0.444  11.597  20.761  0.00  0.00    +0.000 Cl
ATOM     23  N   UNL     1       0.782   9.325  20.801  0.00  0.00    +0.000 NA
ATOM     24  C   UNL     1       1.498   8.325  20.233  0.00  0.00    +0.000 A 
ENDBRANCH  15  18
ENDBRANCH   1  14
TORSDOF 4
ENDMDL
MODEL 3
REMARK VINA RESULT:      -7.0      0.704      1.108
REMARK  Name = 
REMARK  5 active torsions:
REMARK  status: ('A' for Active; 'I' for Inactive)
REMARK    1  A    between atoms: C_1  and  O_2
REMARK    2  A    between atoms: O_2  and  C_3
REMARK    3  A    between atoms: N_9  and  C_10
REMARK    4  A    between atoms: C_10  and  N_12
REMARK    5  A    between atoms: C_13  and  C_15
REMARK                            x       y       z     vdW  Elec       q    Type
REMARK                         _______ _______ _______ _____ _____    ______ ____
ROOT
ATOM      1  C   UNL     1       4.255   3.313  18.876  0.00  0.00    +0.000 C 
ATOM      2  S   UNL     1       4.498   2.276  20.167  0.00  0.00    +0.000 S 
ENDROOT
BRANCH   1   9
ATOM      3  C   UNL     1       6.776   5.749  16.408  0.00  0.00    +0.000 A 
ATOM      4  C   UNL     1       6.959   5.445  15.091  0.00  0.00    +0.000 A 
ATOM      5  C   UNL     1       6.292   4.319  14.690  0.00  0.00    +0.000 A 
ATOM      6 CL   UNL     1       6.460   3.741  13.081  0.00  0.00    +0.000 Cl
ATOM      7  N   UNL     1       5.506   3.561  15.473  0.00  0.00    +0.000 NA
ATOM      8  C   UNL     1       5.379   3.971  16.738  0.00  0.00    +0.000 A 
ATOM      9  N   UNL     1       4.590   3.170  17.555  0.00  0.00    +0.000 N 
ATOM     10  N   UNL     1       5.985   5.047  17.229  0.00  0.00    +0.000 NA
ATOM     11  H   UNL     1       4.230   2.355  17.064  0.00  0.00    +0.000 HD
BRANCH   3  13
ATOM     12  C   UNL     1       7.758   6.666  18.306  0.00  0.00    +0.000 C 
ATOM     13  O   UNL     1       7.463   6.832  16.917  0.00  0.00    +0.000 OA
ENDBRANCH   3  13
ENDBRANCH   1   9
BRANCH   1  14
ATOM     14  N   UNL     1       3.633   4.505  19.204  0.00  0.00    +0.000 N 
ATOM     15  C   UNL     1       2.502   5.057  18.634  0.00  0.00    +0.000 C 
ATOM     16  O   UNL     1       1.825   4.499  17.777  0.00  0.00    +0.000 OA
ATOM     17  H   UNL     1       4.162   5.046  19.875  0.00  0.00    +0.000 HD
BRANCH  15  18
ATOM     18  C   UNL     1       2.142   6.417  19.072  0.00  0.00    +0.000 A 
ATOM     19  C   UNL     1       1.773   6.747  20.378  0.00  0.00    +0.000 A 
ATOM     20  C   UNL     1       1.458   8.076  20.672  0.00  0.00    +0.000 A 
ATOM     21  C   UNL     1       1.534   9.011  19.649  0.00  0.00    +0.000 A 
ATOM     22 CL   UNL     1       1.174  10.661  19.933  0.00  0.00    +0.000 Cl
ATOM     23  N   UNL     1       1.883   8.724  18.381  0.00  0.00    +0.000 NA
ATOM     24  C   UNL     1       2.171   7.427  18.116  0.00  0.00    +0.000 A 
ENDBRANCH  15  18
ENDBRANCH   1  14
TORSDOF 4
ENDMDL
MODEL 4
REMARK VINA RESULT:      -7.0      1.152      1.152
REMARK  Name = 
REMARK  5 active torsions:
REMARK  status: ('A' for Active; 'I' for Inactive)
REMARK    1  A    between atoms: C_1  and  O_2
REMARK    2  A    between atoms: O_2  and  C_3
REMARK    3  A    between atoms: N_9  and  C_10
REMARK    4  A    between atoms: C_10  and  N_12
REMARK    5  A    between atoms: C_13  and  C_15
REMARK                            x       y       z     vdW  Elec       q    Type
REMARK                         _______ _______ _______ _____ _____    ______ ____
ROOT
ATOM      1  C   UNL     1       3.251   3.896  17.827  0.00  0.00    +0.000 C 
ATOM      2  S   UNL     1       3.079   2.904  19.164  0.00  0.00    +0.000 S 
ENDROOT
BRANCH   1   9
ATOM      3  C   UNL     1       6.763   5.536  15.994  0.00  0.00    +0.000 A 
ATOM      4  C   UNL     1       7.129   5.157  14.735  0.00  0.00    +0.000 A 
ATOM      5  C   UNL     1       6.293   4.228  14.178  0.00  0.00    +0.000 A 
ATOM      6 CL   UNL     1       6.635   3.580  12.624  0.00  0.00    +0.000 Cl
ATOM      7  N   UNL     1       5.196   3.719  14.762  0.00  0.00    +0.000 NA
ATOM      8  C   UNL     1       4.920   4.183  15.983  0.00  0.00    +0.000 A 
ATOM      9  N   UNL     1       3.803   3.635  16.600  0.00  0.00    +0.000 N 
ATOM     10  N   UNL     1       5.667   5.082  16.616  0.00  0.00    +0.000 NA
ATOM     11  H   UNL     1       3.355   2.925  16.025  0.00  0.00    +0.000 HD
BRANCH   3  13
ATOM     12  C   UNL     1       7.514   6.244  18.077  0.00  0.00    +0.000 C 
ATOM     13  O   UNL     1       7.584   6.421  16.660  0.00  0.00    +0.000 OA
ENDBRANCH   3  13
ENDBRANCH   1   9
BRANCH   1  14
ATOM     14  N   UNL     1       2.775   5.184  18.000  0.00  0.00    +0.000 N 
ATOM     15  C   UNL     1       3.236   6.151  18.873  0.00  0.00    +0.000 C 
ATOM     16  O   UNL     1       4.224   6.013  19.587  0.00  0.00    +0.000 OA
ATOM     17  H   UNL     1       1.928   5.357  17.474  0.00  0.00    +0.000 HD
BRANCH  15  18
ATOM     18  C   UNL     1       2.444   7.390  18.959  0.00  0.00    +0.000 A 
ATOM     19  C   UNL     1       2.230   8.259  17.886  0.00  0.00    +0.000 A 
ATOM     20  C   UNL     1       1.455   9.402  18.092  0.00  0.00    +0.000 A 
ATOM     21  C   UNL     1       0.926   9.619  19.358  0.00  0.00    +0.000 A 
ATOM     22 CL   UNL     1      -0.044  10.992  19.686  0.00  0.00    +0.000 Cl
ATOM     23  N   UNL     1       1.117   8.803  20.411  0.00  0.00    +0.000 NA
ATOM     24  C   UNL     1       1.883   7.708  20.191  0.00  0.00    +0.000 A 
ENDBRANCH  15  18
ENDBRANCH   1  14
TORSDOF 4
ENDMDL
MODEL 5
REMARK VINA RESULT:      -6.9      1.693      2.046
REMARK  Name = 
REMARK  5 active torsions:
REMARK  status: ('A' for Active; 'I' for Inactive)
REMARK    1  A    between atoms: C_1  and  O_2
REMARK    2  A    between atoms: O_2  and  C_3
REMARK    3  A    between atoms: N_9  and  C_10
REMARK    4  A    between atoms: C_10  and  N_12
REMARK    5  A    between atoms: C_13  and  C_15
REMARK                            x       y       z     vdW  Elec       q    Type
REMARK                         _______ _______ _______ _____ _____    ______ ____
ROOT
ATOM      1  C   UNL     1       2.881   4.308  19.084  0.00  0.00    +0.000 C 
ATOM      2  S   UNL     1       2.972   3.203  20.337  0.00  0.00    +0.000 S 
ENDROOT
BRANCH   1   9
ATOM      3  C   UNL     1       6.890   4.504  17.577  0.00  0.00    +0.000 A 
ATOM      4  C   UNL     1       7.133   4.421  16.238  0.00  0.00    +0.000 A 
ATOM      5  C   UNL     1       6.001   4.255  15.485  0.00  0.00    +0.000 A 
ATOM      6 CL   UNL     1       6.116   4.060  13.783  0.00  0.00    +0.000 Cl
ATOM      7  N   UNL     1       4.749   4.193  15.968  0.00  0.00    +0.000 NA
ATOM      8  C   UNL     1       4.631   4.313  17.293  0.00  0.00    +0.000 A 
ATOM      9  N   UNL     1       3.339   4.219  17.794  0.00  0.00    +0.000 N 
ATOM     10  N   UNL     1       5.663   4.474  18.113  0.00  0.00    +0.000 NA
ATOM     11  H   UNL     1       2.653   4.046  17.063  0.00  0.00    +0.000 HD
BRANCH   3  13
ATOM     12  C   UNL     1       7.915   5.787  19.224  0.00  0.00    +0.000 C 
ATOM     13  O   UNL     1       7.978   4.607  18.420  0.00  0.00    +0.000 OA
ENDBRANCH   3  13
ENDBRANCH   1   9
BRANCH   1  14
ATOM     14  N   UNL     1       2.260   5.501  19.409  0.00  0.00    +0.000 N 
ATOM     15  C   UNL     1       2.583   6.773  18.977  0.00  0.00    +0.000 C 
ATOM     16  O   UNL     1       3.456   7.013  18.148  0.00  0.00    +0.000 OA
ATOM     17  H   UNL     1       1.556   5.387  20.127  0.00  0.00    +0.000 HD
BRANCH  15  18
ATOM     18  C   UNL     1       1.850   7.886  19.603  0.00  0.00    +0.000 A 
ATOM     19  C   UNL     1       1.416   7.889  20.932  0.00  0.00    +0.000 A 
ATOM     20  C   UNL     1       0.733   9.008  21.413  0.00  0.00    +0.000 A 
ATOM     21  C   UNL     1       0.522  10.073  20.546  0.00  0.00    +0.000 A 
ATOM     22 CL   UNL     1      -0.297  11.484  21.065  0.00  0.00    +0.000 Cl
ATOM     23  N   UNL     1       0.925  10.098  19.262  0.00  0.00    +0.000 NA
ATOM     24  C   UNL     1       1.573   8.997  18.814  0.00  0.00    +0.000 A 
ENDBRANCH  15  18
ENDBRANCH   1  14
TORSDOF 4
ENDMDL
MODEL 6
REMARK VINA RESULT:      -6.9      2.805      3.794
REMARK  Name = 
REMARK  5 active torsions:
REMARK  status: ('A' for Active; 'I' for Inactive)
REMARK    1  A    between atoms: C_1  and  O_2
REMARK    2  A    between atoms: O_2  and  C_3
REMARK    3  A    between atoms: N_9  and  C_10
REMARK    4  A    between atoms: C_10  and  N_12
REMARK    5  A    between atoms: C_13  and  C_15
REMARK                            x       y       z     vdW  Elec       q    Type
REMARK                         _______ _______ _______ _____ _____    ______ ____
ROOT
ATOM      1  C   UNL     1       2.228   5.347  20.379  0.00  0.00    +0.000 C 
ATOM      2  S   UNL     1       1.258   4.010  20.107  0.00  0.00    +0.000 S 
ENDROOT
BRANCH   1   9
ATOM      3  C   UNL     1       4.969   4.520  17.189  0.00  0.00    +0.000 A 
ATOM      4  C   UNL     1       6.312   4.682  17.368  0.00  0.00    +0.000 A 
ATOM      5  C   UNL     1       6.647   5.135  18.616  0.00  0.00    +0.000 A 
ATOM      6 CL   UNL     1       8.288   5.464  19.003  0.00  0.00    +0.000 Cl
ATOM      7  N   UNL     1       5.780   5.392  19.609  0.00  0.00    +0.000 NA
ATOM      8  C   UNL     1       4.493   5.172  19.327  0.00  0.00    +0.000 A 
ATOM      9  N   UNL     1       3.593   5.467  20.343  0.00  0.00    +0.000 N 
ATOM     10  N   UNL     1       4.061   4.736  18.148  0.00  0.00    +0.000 NA
ATOM     11  H   UNL     1       4.055   5.838  21.170  0.00  0.00    +0.000 HD
BRANCH   3  13
ATOM     12  C   UNL     1       5.530   4.347  14.938  0.00  0.00    +0.000 C 
ATOM     13  O   UNL     1       4.533   4.129  15.940  0.00  0.00    +0.000 OA
ENDBRANCH   3  13
ENDBRANCH   1   9
BRANCH   1  14
ATOM     14  N   UNL     1       1.540   6.502  20.707  0.00  0.00    +0.000 N 
ATOM     15  C   UNL     1       1.658   7.753  20.131  0.00  0.00    +0.000 C 
ATOM     16  O   UNL     1       2.364   7.994  19.157  0.00  0.00    +0.000 OA
ATOM     17  H   UNL     1       0.970   6.391  21.534  0.00  0.00    +0.000 HD
BRANCH  15  18
ATOM     18  C   UNL     1       0.914   8.847  20.778  0.00  0.00    +0.000 A 
ATOM     19  C   UNL     1       0.091   9.746  20.095  0.00  0.00    +0.000 A 
ATOM     20  C   UNL     1      -0.567  10.740  20.822  0.00  0.00    +0.000 A 
ATOM     21  C   UNL     1      -0.377  10.785  22.196  0.00  0.00    +0.000 A 
ATOM     22 CL   UNL     1      -1.159  11.967  23.158  0.00  0.00    +0.000 Cl
ATOM     23  N   UNL     1       0.411   9.935  22.882  0.00  0.00    +0.000 NA
ATOM     24  C   UNL     1       1.049   8.988  22.155  0.00  0.00    +0.000 A 
ENDBRANCH  15  18
ENDBRANCH   1  14
TORSDOF 4
ENDMDL
MODEL 7
REMARK VINA RESULT:      -6.8      1.244      1.490
REMARK  Name = 
REMARK  5 active torsions:
REMARK  status: ('A' for Active; 'I' for Inactive)
REMARK    1  A    between atoms: C_1  and  O_2
REMARK    2  A    between atoms: O_2  and  C_3
REMARK    3  A    between atoms: N_9  and  C_10
REMARK    4  A    between atoms: C_10  and  N_12
REMARK    5  A    between atoms: C_13  and  C_15
REMARK                            x       y       z     vdW  Elec       q    Type
REMARK                         _______ _______ _______ _____ _____    ______ ____
ROOT
ATOM      1  C   UNL     1       3.480   3.698  17.884  0.00  0.00    +0.000 C 
ATOM      2  S   UNL     1       3.404   2.668  19.201  0.00  0.00    +0.000 S 
ENDROOT
BRANCH   1   9
ATOM      3  C   UNL     1       6.837   5.522  15.940  0.00  0.00    +0.000 A 
ATOM      4  C   UNL     1       7.162   5.188  14.658  0.00  0.00    +0.000 A 
ATOM      5  C   UNL     1       6.340   4.238  14.114  0.00  0.00    +0.000 A 
ATOM      6 CL   UNL     1       6.638   3.641  12.532  0.00  0.00    +0.000 Cl
ATOM      7  N   UNL     1       5.291   3.671  14.733  0.00  0.00    +0.000 NA
ATOM      8  C   UNL     1       5.052   4.096  15.977  0.00  0.00    +0.000 A 
ATOM      9  N   UNL     1       3.986   3.488  16.627  0.00  0.00    +0.000 N 
ATOM     10  N   UNL     1       5.789   5.010  16.598  0.00  0.00    +0.000 NA
ATOM     11  H   UNL     1       3.542   2.774  16.055  0.00  0.00    +0.000 HD
BRANCH   3  13
ATOM     12  C   UNL     1       7.397   6.448  17.998  0.00  0.00    +0.000 C 
ATOM     13  O   UNL     1       7.651   6.425  16.592  0.00  0.00    +0.000 OA
ENDBRANCH   3  13
ENDBRANCH   1   9
BRANCH   1  14
ATOM     14  N   UNL     1       2.964   4.963  18.110  0.00  0.00    +0.000 N 
ATOM     15  C   UNL     1       3.425   5.923  18.991  0.00  0.00    +0.000 C 
ATOM     16  O   UNL     1       4.445   5.803  19.662  0.00  0.00    +0.000 OA
ATOM     17  H   UNL     1       2.092   5.117  17.623  0.00  0.00    +0.000 HD
BRANCH  15  18
ATOM     18  C   UNL     1       2.592   7.129  19.142  0.00  0.00    +0.000 A 
ATOM     19  C   UNL     1       1.941   7.487  20.326  0.00  0.00    +0.000 A 
ATOM     20  C   UNL     1       1.183   8.659  20.347  0.00  0.00    +0.000 A 
ATOM     21  C   UNL     1       1.117   9.421  19.187  0.00  0.00    +0.000 A 
ATOM     22 CL   UNL     1       0.218  10.877  19.138  0.00  0.00    +0.000 Cl
ATOM     23  N   UNL     1       1.731   9.101  18.032  0.00  0.00    +0.000 NA
ATOM     24  C   UNL     1       2.449   7.953  18.032  0.00  0.00    +0.000 A 
ENDBRANCH  15  18
ENDBRANCH   1  14
TORSDOF 4
ENDMDL
MODEL 8
REMARK VINA RESULT:      -6.6      2.901      3.977
REMARK  Name = 
REMARK  5 active torsions:
REMARK  status: ('A' for Active; 'I' for Inactive)
REMARK    1  A    between atoms: C_1  and  O_2
REMARK    2  A    between atoms: O_2  and  C_3
REMARK    3  A    between atoms: N_9  and  C_10
REMARK    4  A    between atoms: C_10  and  N_12
REMARK    5  A    between atoms: C_13  and  C_15
REMARK                            x       y       z     vdW  Elec       q    Type
REMARK                         _______ _______ _______ _____ _____    ______ ____
ROOT
ATOM      1  C   UNL     1       2.190   5.403  20.362  0.00  0.00    +0.000 C 
ATOM      2  S   UNL     1       1.209   4.104  19.973  0.00  0.00    +0.000 S 
ENDROOT
BRANCH   1   9
ATOM      3  C   UNL     1       4.942   4.626  17.168  0.00  0.00    +0.000 A 
ATOM      4  C   UNL     1       6.284   4.776  17.357  0.00  0.00    +0.000 A 
ATOM      5  C   UNL     1       6.616   5.200  18.616  0.00  0.00    +0.000 A 
ATOM      6 CL   UNL     1       8.257   5.511  19.018  0.00  0.00    +0.000 Cl
ATOM      7  N   UNL     1       5.745   5.442  19.610  0.00  0.00    +0.000 NA
ATOM      8  C   UNL     1       4.459   5.236  19.317  0.00  0.00    +0.000 A 
ATOM      9  N   UNL     1       3.556   5.516  20.335  0.00  0.00    +0.000 N 
ATOM     10  N   UNL     1       4.030   4.828  18.127  0.00  0.00    +0.000 NA
ATOM     11  H   UNL     1       4.015   5.866  21.172  0.00  0.00    +0.000 HD
BRANCH   3  13
ATOM     12  C   UNL     1       5.580   4.262  14.962  0.00  0.00    +0.000 C 
ATOM     13  O   UNL     1       4.509   4.265  15.909  0.00  0.00    +0.000 OA
ENDBRANCH   3  13
ENDBRANCH   1   9
BRANCH   1  14
ATOM     14  N   UNL     1       1.511   6.530  20.792  0.00  0.00    +0.000 N 
ATOM     15  C   UNL     1       1.570   7.807  20.268  0.00  0.00    +0.000 C 
ATOM     16  O   UNL     1       2.200   8.106  19.259  0.00  0.00    +0.000 OA
ATOM     17  H   UNL     1       1.004   6.372  21.652  0.00  0.00    +0.000 HD
BRANCH  15  18
ATOM     18  C   UNL     1       0.859   8.858  21.017  0.00  0.00    +0.000 A 
ATOM     19  C   UNL     1       0.434   8.724  22.341  0.00  0.00    +0.000 A 
ATOM     20  C   UNL     1      -0.227   9.795  22.946  0.00  0.00    +0.000 A 
ATOM     21  C   UNL     1      -0.425  10.950  22.203  0.00  0.00    +0.000 A 
ATOM     22 CL   UNL     1      -1.216  12.311  22.878  0.00  0.00    +0.000 Cl
ATOM     23  N   UNL     1      -0.029  11.109  20.925  0.00  0.00    +0.000 NA
ATOM     24  C   UNL     1       0.598  10.052  20.355  0.00  0.00    +0.000 A 
ENDBRANCH  15  18
ENDBRANCH   1  14
TORSDOF 4
ENDMDL
MODEL 9
REMARK VINA RESULT:      -6.5      2.672      6.944
REMARK  Name = 
REMARK  5 active torsions:
REMARK  status: ('A' for Active; 'I' for Inactive)
REMARK    1  A    between atoms: C_1  and  O_2
REMARK    2  A    between atoms: O_2  and  C_3
REMARK    3  A    between atoms: N_9  and  C_10
REMARK    4  A    between atoms: C_10  and  N_12
REMARK    5  A    between atoms: C_13  and  C_15
REMARK                            x       y       z     vdW  Elec       q    Type
REMARK                         _______ _______ _______ _____ _____    ______ ____
ROOT
ATOM      1  C   UNL     1       6.679   4.747  18.468  0.00  0.00    +0.000 C 
ATOM      2  S   UNL     1       7.765   5.813  19.167  0.00  0.00    +0.000 S 
ENDROOT
BRANCH   1   9
ATOM      3  C   UNL     1       2.747   6.053  19.569  0.00  0.00    +0.000 A 
ATOM      4  C   UNL     1       1.867   5.189  20.152  0.00  0.00    +0.000 A 
ATOM      5  C   UNL     1       2.365   3.924  20.310  0.00  0.00    +0.000 A 
ATOM      6 CL   UNL     1       1.375   2.681  20.963  0.00  0.00    +0.000 Cl
ATOM      7  N   UNL     1       3.599   3.524  19.960  0.00  0.00    +0.000 NA
ATOM      8  C   UNL     1       4.382   4.463  19.423  0.00  0.00    +0.000 A 
ATOM      9  N   UNL     1       5.647   4.043  19.033  0.00  0.00    +0.000 N 
ATOM     10  N   UNL     1       3.997   5.719  19.223  0.00  0.00    +0.000 NA
ATOM     11  H   UNL     1       5.792   3.050  19.198  0.00  0.00    +0.000 HD
BRANCH   3  13
ATOM     12  C   UNL     1       2.766   7.804  18.039  0.00  0.00    +0.000 C 
ATOM     13  O   UNL     1       2.309   7.335  19.310  0.00  0.00    +0.000 OA
ENDBRANCH   3  13
ENDBRANCH   1   9
BRANCH   1  14
ATOM     14  N   UNL     1       6.867   4.538  17.113  0.00  0.00    +0.000 N 
ATOM     15  C   UNL     1       6.503   5.364  16.067  0.00  0.00    +0.000 C 
ATOM     16  O   UNL     1       6.012   6.479  16.214  0.00  0.00    +0.000 OA
ATOM     17  H   UNL     1       7.228   3.615  16.911  0.00  0.00    +0.000 HD
BRANCH  15  18
ATOM     18  C   UNL     1       6.685   4.824  14.709  0.00  0.00    +0.000 A 
ATOM     19  C   UNL     1       7.585   5.342  13.774  0.00  0.00    +0.000 A 
ATOM     20  C   UNL     1       7.671   4.739  12.518  0.00  0.00    +0.000 A 
ATOM     21  C   UNL     1       6.859   3.644  12.257  0.00  0.00    +0.000 A 
ATOM     22 CL   UNL     1       6.915   2.843  10.745  0.00  0.00    +0.000 Cl
ATOM     23  N   UNL     1       5.981   3.123  13.135  0.00  0.00    +0.000 NA
ATOM     24  C   UNL     1       5.906   3.732  14.343  0.00  0.00    +0.000 A 
ENDBRANCH  15  18
ENDBRANCH   1  14
TORSDOF 4
ENDMDL
