MODEL 1
REMARK VINA RESULT:      -9.5      0.000      0.000
REMARK  Name = 
REMARK  7 active torsions:
REMARK  status: ('A' for Active; 'I' for Inactive)
REMARK    1  A    between atoms: C_1  and  C_2
REMARK    2  A    between atoms: C_5  and  C_6
REMARK    3  A    between atoms: C_6  and  N_7
REMARK    4  A    between atoms: C_8  and  C_10
REMARK    5  A    between atoms: C_10  and  N_11
REMARK    6  A    between atoms: C_19  and  S_20
REMARK    7  A    between atoms: S_20  and  N_23
REMARK                            x       y       z     vdW  Elec       q    Type
REMARK                         _______ _______ _______ _____ _____    ______ ____
ROOT
ATOM      1  N   UNL     1       0.789  11.058  19.308  0.00  0.00    +0.000 N 
ATOM      2  C   UNL     1       1.008  11.652  20.555  0.00  0.00    +0.000 C 
ATOM      3  O   UNL     1       1.516  12.778  20.600  0.00  0.00    +0.000 OA
ATOM      4  C   UNL     1       0.253  11.134  21.766  0.00  0.00    +0.000 C 
ATOM      5  C   UNL     1       0.134   9.629  21.852  0.00  0.00    +0.000 C 
ATOM      6  C   UNL     1       0.688   8.322  21.365  0.00  0.00    +0.000 C 
ATOM      7  C   UNL     1       1.337   8.457  20.007  0.00  0.00    +0.000 A 
ATOM      8  C   UNL     1       2.106   7.243  19.802  0.00  0.00    +0.000 A 
ATOM      9  C   UNL     1       2.864   7.023  18.681  0.00  0.00    +0.000 A 
ATOM     10  C   UNL     1       2.666   7.955  17.651  0.00  0.00    +0.000 A 
ATOM     11  C   UNL     1       1.851   9.179  17.830  0.00  0.00    +0.000 A 
ATOM     12  C   UNL     1       1.202   9.538  19.044  0.00  0.00    +0.000 A 
ENDROOT
BRANCH   9  13
ATOM     13  S   UNL     1       3.743   5.442  18.593  0.00  0.00    +0.000 S 
ATOM     14  O   UNL     1       4.038   5.189  17.209  0.00  0.00    +0.000 OA
ATOM     15  O   UNL     1       4.838   5.552  19.566  0.00  0.00    +0.000 OA
BRANCH  13  16
ATOM     16  N   UNL     1       2.750   4.194  19.140  0.00  0.00    +0.000 NA
ATOM     17  C   UNL     1       1.514   3.771  18.481  0.00  0.00    +0.000 C 
ATOM     18  C   UNL     1       0.743   3.027  19.573  0.00  0.00    +0.000 C 
ATOM     19  C   UNL     1       1.829   2.383  20.418  0.00  0.00    +0.000 C 
ATOM     20  C   UNL     1       3.047   3.317  20.288  0.00  0.00    +0.000 C 
ENDBRANCH  13  16
ENDBRANCH   9  13
BRANCH   1  21
ATOM     21  C   UNL     1      -0.395  11.820  18.683  0.00  0.00    +0.000 C 
BRANCH  21  23
ATOM     22  N   UNL     1      -3.103  12.468  19.146  0.00  0.00    +0.000 N 
ATOM     23  C   UNL     1      -2.141  11.563  18.716  0.00  0.00    +0.000 C 
ATOM     24  O   UNL     1      -2.542  10.495  18.220  0.00  0.00    +0.000 OA
ATOM     25  H   UNL     1      -2.751  13.153  19.769  0.00  0.00    +0.000 HD
BRANCH  22  26
ATOM     26  C   UNL     1      -4.616  12.195  19.260  0.00  0.00    +0.000 C 
BRANCH  26  31
ATOM     27  C   UNL     1      -7.685  13.448  24.269  0.00  0.00    +0.000 C 
ATOM     28  C   UNL     1      -6.922  13.112  23.009  0.00  0.00    +0.000 A 
ATOM     29  C   UNL     1      -5.594  13.518  22.832  0.00  0.00    +0.000 A 
ATOM     30  C   UNL     1      -4.858  13.235  21.649  0.00  0.00    +0.000 A 
ATOM     31  C   UNL     1      -5.408  12.523  20.580  0.00  0.00    +0.000 A 
ATOM     32  C   UNL     1      -6.761  12.102  20.775  0.00  0.00    +0.000 A 
ATOM     33  C   UNL     1      -7.503  12.393  21.962  0.00  0.00    +0.000 A 
ENDBRANCH  26  31
ENDBRANCH  22  26
ENDBRANCH  21  23
ENDBRANCH   1  21
TORSDOF 6
ENDMDL
MODEL 2
REMARK VINA RESULT:      -9.4      0.359      1.114
REMARK  Name = 
REMARK  7 active torsions:
REMARK  status: ('A' for Active; 'I' for Inactive)
REMARK    1  A    between atoms: C_1  and  C_2
REMARK    2  A    between atoms: C_5  and  C_6
REMARK    3  A    between atoms: C_6  and  N_7
REMARK    4  A    between atoms: C_8  and  C_10
REMARK    5  A    between atoms: C_10  and  N_11
REMARK    6  A    between atoms: C_19  and  S_20
REMARK    7  A    between atoms: S_20  and  N_23
REMARK                            x       y       z     vdW  Elec       q    Type
REMARK                         _______ _______ _______ _____ _____    ______ ____
ROOT
ATOM      1  N   UNL     1       0.839  11.083  19.527  0.00  0.00    +0.000 N 
ATOM      2  C   UNL     1       1.016  11.587  20.819  0.00  0.00    +0.000 C 
ATOM      3  O   UNL     1       1.555  12.691  20.962  0.00  0.00    +0.000 OA
ATOM      4  C   UNL     1       0.188  11.017  21.958  0.00  0.00    +0.000 C 
ATOM      5  C   UNL     1       0.022   9.514  21.938  0.00  0.00    +0.000 C 
ATOM      6  C   UNL     1       0.559   8.224  21.391  0.00  0.00    +0.000 C 
ATOM      7  C   UNL     1       1.275   8.426  20.076  0.00  0.00    +0.000 A 
ATOM      8  C   UNL     1       2.016   7.202  19.826  0.00  0.00    +0.000 A 
ATOM      9  C   UNL     1       2.820   7.031  18.728  0.00  0.00    +0.000 A 
ATOM     10  C   UNL     1       2.699   8.034  17.755  0.00  0.00    +0.000 A 
ATOM     11  C   UNL     1       1.914   9.270  17.977  0.00  0.00    +0.000 A 
ATOM     12  C   UNL     1       1.218   9.571  19.182  0.00  0.00    +0.000 A 
ENDROOT
BRANCH   9  13
ATOM     13  S   UNL     1       3.655   5.431  18.576  0.00  0.00    +0.000 S 
ATOM     14  O   UNL     1       4.058   5.284  17.203  0.00  0.00    +0.000 OA
ATOM     15  O   UNL     1       4.667   5.419  19.640  0.00  0.00    +0.000 OA
BRANCH  13  16
ATOM     16  N   UNL     1       2.582   4.180  18.930  0.00  0.00    +0.000 NA
ATOM     17  C   UNL     1       2.410   3.591  20.259  0.00  0.00    +0.000 C 
ATOM     18  C   UNL     1       1.773   2.227  19.984  0.00  0.00    +0.000 C 
ATOM     19  C   UNL     1       0.916   2.461  18.751  0.00  0.00    +0.000 C 
ATOM     20  C   UNL     1       1.624   3.589  17.978  0.00  0.00    +0.000 C 
ENDBRANCH  13  16
ENDBRANCH   9  13
BRANCH   1  21
ATOM     21  C   UNL     1      -0.292  11.922  18.900  0.00  0.00    +0.000 C 
BRANCH  21  23
ATOM     22  N   UNL     1      -2.997  12.606  19.325  0.00  0.00    +0.000 N 
ATOM     23  C   UNL     1      -2.044  11.721  18.837  0.00  0.00    +0.000 C 
ATOM     24  O   UNL     1      -2.453  10.726  18.212  0.00  0.00    +0.000 OA
ATOM     25  H   UNL     1      -2.652  13.208  20.032  0.00  0.00    +0.000 HD
BRANCH  22  26
ATOM     26  C   UNL     1      -4.520  12.372  19.349  0.00  0.00    +0.000 C 
BRANCH  26  31
ATOM     27  C   UNL     1      -7.737  13.526  24.290  0.00  0.00    +0.000 C 
ATOM     28  C   UNL     1      -6.913  13.252  23.053  0.00  0.00    +0.000 A 
ATOM     29  C   UNL     1      -7.518  13.007  21.814  0.00  0.00    +0.000 A 
ATOM     30  C   UNL     1      -6.770  12.726  20.638  0.00  0.00    +0.000 A 
ATOM     31  C   UNL     1      -5.373  12.680  20.636  0.00  0.00    +0.000 A 
ATOM     32  C   UNL     1      -4.764  12.942  21.903  0.00  0.00    +0.000 A 
ATOM     33  C   UNL     1      -5.517  13.217  23.087  0.00  0.00    +0.000 A 
ENDBRANCH  26  31
ENDBRANCH  22  26
ENDBRANCH  21  23
ENDBRANCH   1  21
TORSDOF 6
ENDMDL
MODEL 3
REMARK VINA RESULT:      -9.3      1.944      2.810
REMARK  Name = 
REMARK  7 active torsions:
REMARK  status: ('A' for Active; 'I' for Inactive)
REMARK    1  A    between atoms: C_1  and  C_2
REMARK    2  A    between atoms: C_5  and  C_6
REMARK    3  A    between atoms: C_6  and  N_7
REMARK    4  A    between atoms: C_8  and  C_10
REMARK    5  A    between atoms: C_10  and  N_11
REMARK    6  A    between atoms: C_19  and  S_20
REMARK    7  A    between atoms: S_20  and  N_23
REMARK                            x       y       z     vdW  Elec       q    Type
REMARK                         _______ _______ _______ _____ _____    ______ ____
ROOT
ATOM      1  N   UNL     1       0.798  11.245  19.025  0.00  0.00    +0.000 N 
ATOM      2  C   UNL     1       1.044  11.936  20.215  0.00  0.00    +0.000 C 
ATOM      3  O   UNL     1       1.552  13.062  20.159  0.00  0.00    +0.000 OA
ATOM      4  C   UNL     1       0.316  11.517  21.480  0.00  0.00    +0.000 C 
ATOM      5  C   UNL     1       0.201  10.023  21.688  0.00  0.00    +0.000 C 
ATOM      6  C   UNL     1       0.746   8.681  21.294  0.00  0.00    +0.000 C 
ATOM      7  C   UNL     1       1.365   8.708  19.916  0.00  0.00    +0.000 A 
ATOM      8  C   UNL     1       2.130   7.480  19.791  0.00  0.00    +0.000 A 
ATOM      9  C   UNL     1       2.864   7.171  18.675  0.00  0.00    +0.000 A 
ATOM     10  C   UNL     1       2.642   8.018  17.579  0.00  0.00    +0.000 A 
ATOM     11  C   UNL     1       1.830   9.253  17.678  0.00  0.00    +0.000 A 
ATOM     12  C   UNL     1       1.207   9.709  18.873  0.00  0.00    +0.000 A 
ENDROOT
BRANCH   9  13
ATOM     13  S   UNL     1       3.742   5.588  18.694  0.00  0.00    +0.000 S 
ATOM     14  O   UNL     1       3.635   5.051  20.024  0.00  0.00    +0.000 OA
ATOM     15  O   UNL     1       3.203   4.832  17.556  0.00  0.00    +0.000 OA
BRANCH  13  16
ATOM     16  N   UNL     1       5.379   5.827  18.369  0.00  0.00    +0.000 NA
ATOM     17  C   UNL     1       6.470   5.201  19.116  0.00  0.00    +0.000 C 
ATOM     18  C   UNL     1       7.682   6.086  18.820  0.00  0.00    +0.000 C 
ATOM     19  C   UNL     1       7.443   6.579  17.403  0.00  0.00    +0.000 C 
ATOM     20  C   UNL     1       5.912   6.615  17.242  0.00  0.00    +0.000 C 
ENDBRANCH  13  16
ENDBRANCH   9  13
BRANCH   1  21
ATOM     21  C   UNL     1      -0.401  11.955  18.367  0.00  0.00    +0.000 C 
BRANCH  21  23
ATOM     22  N   UNL     1      -2.994  12.015  17.255  0.00  0.00    +0.000 N 
ATOM     23  C   UNL     1      -2.108  11.537  18.212  0.00  0.00    +0.000 C 
ATOM     24  O   UNL     1      -2.524  10.659  18.990  0.00  0.00    +0.000 OA
ATOM     25  H   UNL     1      -2.719  12.880  16.859  0.00  0.00    +0.000 HD
BRANCH  22  26
ATOM     26  C   UNL     1      -4.505  11.716  17.191  0.00  0.00    +0.000 C 
BRANCH  26  31
ATOM     27  C   UNL     1      -7.916  11.607  22.134  0.00  0.00    +0.000 C 
ATOM     28  C   UNL     1      -7.055  11.612  20.893  0.00  0.00    +0.000 A 
ATOM     29  C   UNL     1      -6.141  12.644  20.645  0.00  0.00    +0.000 A 
ATOM     30  C   UNL     1      -5.333  12.686  19.476  0.00  0.00    +0.000 A 
ATOM     31  C   UNL     1      -5.389  11.694  18.494  0.00  0.00    +0.000 A 
ATOM     32  C   UNL     1      -6.317  10.639  18.761  0.00  0.00    +0.000 A 
ATOM     33  C   UNL     1      -7.134  10.600  19.933  0.00  0.00    +0.000 A 
ENDBRANCH  26  31
ENDBRANCH  22  26
ENDBRANCH  21  23
ENDBRANCH   1  21
TORSDOF 6
ENDMDL
MODEL 4
REMARK VINA RESULT:      -9.2      2.490      3.639
REMARK  Name = 
REMARK  7 active torsions:
REMARK  status: ('A' for Active; 'I' for Inactive)
REMARK    1  A    between atoms: C_1  and  C_2
REMARK    2  A    between atoms: C_5  and  C_6
REMARK    3  A    between atoms: C_6  and  N_7
REMARK    4  A    between atoms: C_8  and  C_10
REMARK    5  A    between atoms: C_10  and  N_11
REMARK    6  A    between atoms: C_19  and  S_20
REMARK    7  A    between atoms: S_20  and  N_23
REMARK                            x       y       z     vdW  Elec       q    Type
REMARK                         _______ _______ _______ _____ _____    ______ ____
ROOT
ATOM      1  N   UNL     1       0.593   9.240  20.387  0.00  0.00    +0.000 N 
ATOM      2  C   UNL     1      -0.071   9.965  19.393  0.00  0.00    +0.000 C 
ATOM      3  O   UNL     1      -1.273  10.220  19.542  0.00  0.00    +0.000 OA
ATOM      4  C   UNL     1       0.739  10.782  18.402  0.00  0.00    +0.000 C 
ATOM      5  C   UNL     1       1.992  10.107  17.889  0.00  0.00    +0.000 C 
ATOM      6  C   UNL     1       2.703   8.796  17.727  0.00  0.00    +0.000 C 
ATOM      7  C   UNL     1       2.266   7.786  18.762  0.00  0.00    +0.000 A 
ATOM      8  C   UNL     1       2.759   6.499  18.306  0.00  0.00    +0.000 A 
ATOM      9  C   UNL     1       2.522   5.330  18.983  0.00  0.00    +0.000 A 
ATOM     10  C   UNL     1       1.963   5.498  20.258  0.00  0.00    +0.000 A 
ATOM     11  C   UNL     1       1.493   6.811  20.756  0.00  0.00    +0.000 A 
ATOM     12  C   UNL     1       1.548   8.018  20.005  0.00  0.00    +0.000 A 
ENDROOT
BRANCH   9  13
ATOM     13  S   UNL     1       3.229   3.822  18.271  0.00  0.00    +0.000 S 
ATOM     14  O   UNL     1       3.504   2.920  19.356  0.00  0.00    +0.000 OA
ATOM     15  O   UNL     1       2.299   3.423  17.206  0.00  0.00    +0.000 OA
BRANCH  13  16
ATOM     16  N   UNL     1       4.693   4.170  17.511  0.00  0.00    +0.000 NA
ATOM     17  C   UNL     1       4.862   4.305  16.064  0.00  0.00    +0.000 C 
ATOM     18  C   UNL     1       6.362   4.096  15.841  0.00  0.00    +0.000 C 
ATOM     19  C   UNL     1       7.005   4.665  17.094  0.00  0.00    +0.000 C 
ATOM     20  C   UNL     1       5.959   4.471  18.207  0.00  0.00    +0.000 C 
ENDBRANCH  13  16
ENDBRANCH   9  13
BRANCH   1  21
ATOM     21  C   UNL     1       0.755  10.207  21.575  0.00  0.00    +0.000 C 
BRANCH  21  23
ATOM     22  N   UNL     1      -0.802  12.370  22.505  0.00  0.00    +0.000 N 
ATOM     23  C   UNL     1      -0.404  11.044  22.611  0.00  0.00    +0.000 C 
ATOM     24  O   UNL     1      -0.977  10.340  23.461  0.00  0.00    +0.000 OA
ATOM     25  H   UNL     1      -0.148  12.943  22.031  0.00  0.00    +0.000 HD
BRANCH  22  26
ATOM     26  C   UNL     1      -1.742  13.113  23.475  0.00  0.00    +0.000 C 
BRANCH  26  31
ATOM     27  C   UNL     1      -7.709  12.538  23.099  0.00  0.00    +0.000 C 
ATOM     28  C   UNL     1      -6.211  12.694  23.213  0.00  0.00    +0.000 A 
ATOM     29  C   UNL     1      -5.422  12.993  22.095  0.00  0.00    +0.000 A 
ATOM     30  C   UNL     1      -4.009  13.125  22.168  0.00  0.00    +0.000 A 
ATOM     31  C   UNL     1      -3.306  12.972  23.366  0.00  0.00    +0.000 A 
ATOM     32  C   UNL     1      -4.120  12.677  24.504  0.00  0.00    +0.000 A 
ATOM     33  C   UNL     1      -5.541  12.538  24.429  0.00  0.00    +0.000 A 
ENDBRANCH  26  31
ENDBRANCH  22  26
ENDBRANCH  21  23
ENDBRANCH   1  21
TORSDOF 6
ENDMDL
MODEL 5
REMARK VINA RESULT:      -9.1      4.346     10.114
REMARK  Name = 
REMARK  7 active torsions:
REMARK  status: ('A' for Active; 'I' for Inactive)
REMARK    1  A    between atoms: C_1  and  C_2
REMARK    2  A    between atoms: C_5  and  C_6
REMARK    3  A    between atoms: C_6  and  N_7
REMARK    4  A    between atoms: C_8  and  C_10
REMARK    5  A    between atoms: C_10  and  N_11
REMARK    6  A    between atoms: C_19  and  S_20
REMARK    7  A    between atoms: S_20  and  N_23
REMARK                            x       y       z     vdW  Elec       q    Type
REMARK                         _______ _______ _______ _____ _____    ______ ____
ROOT
ATOM      1  N   UNL     1       3.538   5.998  17.921  0.00  0.00    +0.000 N 
ATOM      2  C   UNL     1       2.926   4.755  18.114  0.00  0.00    +0.000 C 
ATOM      3  O   UNL     1       2.841   3.976  17.157  0.00  0.00    +0.000 OA
ATOM      4  C   UNL     1       2.778   4.212  19.524  0.00  0.00    +0.000 C 
ATOM      5  C   UNL     1       2.365   5.231  20.562  0.00  0.00    +0.000 C 
ATOM      6  C   UNL     1       1.753   6.584  20.783  0.00  0.00    +0.000 C 
ATOM      7  C   UNL     1       1.942   7.489  19.588  0.00  0.00    +0.000 A 
ATOM      8  C   UNL     1       1.044   8.613  19.784  0.00  0.00    +0.000 A 
ATOM      9  C   UNL     1       0.917   9.631  18.875  0.00  0.00    +0.000 A 
ATOM     10  C   UNL     1       1.877   9.622  17.852  0.00  0.00    +0.000 A 
ATOM     11  C   UNL     1       2.828   8.502  17.662  0.00  0.00    +0.000 A 
ATOM     12  C   UNL     1       2.864   7.335  18.474  0.00  0.00    +0.000 A 
ENDROOT
BRANCH   9  13
ATOM     13  S   UNL     1      -0.242  10.957  19.297  0.00  0.00    +0.000 S 
ATOM     14  O   UNL     1      -0.615  10.781  20.675  0.00  0.00    +0.000 OA
ATOM     15  O   UNL     1       0.418  12.198  18.872  0.00  0.00    +0.000 OA
BRANCH  13  16
ATOM     16  N   UNL     1      -1.642  10.824  18.368  0.00  0.00    +0.000 NA
ATOM     17  C   UNL     1      -2.849  11.625  18.572  0.00  0.00    +0.000 C 
ATOM     18  C   UNL     1      -3.954  10.819  17.885  0.00  0.00    +0.000 C 
ATOM     19  C   UNL     1      -3.250  10.145  16.720  0.00  0.00    +0.000 C 
ATOM     20  C   UNL     1      -1.793   9.958  17.183  0.00  0.00    +0.000 C 
ENDBRANCH  13  16
ENDBRANCH   9  13
BRANCH   1  21
ATOM     21  C   UNL     1       5.045   5.706  17.785  0.00  0.00    +0.000 C 
BRANCH  21  23
ATOM     22  N   UNL     1       7.061   7.674  17.968  0.00  0.00    +0.000 N 
ATOM     23  C   UNL     1       6.414   6.680  17.244  0.00  0.00    +0.000 C 
ATOM     24  O   UNL     1       6.892   6.376  16.137  0.00  0.00    +0.000 OA
ATOM     25  H   UNL     1       6.503   8.066  18.686  0.00  0.00    +0.000 HD
BRANCH  22  26
ATOM     26  C   UNL     1       8.192   8.582  17.446  0.00  0.00    +0.000 C 
BRANCH  26  31
ATOM     27  C   UNL     1       9.897  13.447  20.530  0.00  0.00    +0.000 C 
ATOM     28  C   UNL     1       9.486  12.212  19.763  0.00  0.00    +0.000 A 
ATOM     29  C   UNL     1       9.013  12.296  18.447  0.00  0.00    +0.000 A 
ATOM     30  C   UNL     1       8.599  11.154  17.708  0.00  0.00    +0.000 A 
ATOM     31  C   UNL     1       8.643   9.863  18.242  0.00  0.00    +0.000 A 
ATOM     32  C   UNL     1       9.138   9.786  19.582  0.00  0.00    +0.000 A 
ATOM     33  C   UNL     1       9.547  10.936  20.327  0.00  0.00    +0.000 A 
ENDBRANCH  26  31
ENDBRANCH  22  26
ENDBRANCH  21  23
ENDBRANCH   1  21
TORSDOF 6
ENDMDL
MODEL 6
REMARK VINA RESULT:      -8.9      3.226      4.472
REMARK  Name = 
REMARK  7 active torsions:
REMARK  status: ('A' for Active; 'I' for Inactive)
REMARK    1  A    between atoms: C_1  and  C_2
REMARK    2  A    between atoms: C_5  and  C_6
REMARK    3  A    between atoms: C_6  and  N_7
REMARK    4  A    between atoms: C_8  and  C_10
REMARK    5  A    between atoms: C_10  and  N_11
REMARK    6  A    between atoms: C_19  and  S_20
REMARK    7  A    between atoms: S_20  and  N_23
REMARK                            x       y       z     vdW  Elec       q    Type
REMARK                         _______ _______ _______ _____ _____    ______ ____
ROOT
ATOM      1  N   UNL     1       0.636   9.050  20.296  0.00  0.00    +0.000 N 
ATOM      2  C   UNL     1       0.007   9.806  19.301  0.00  0.00    +0.000 C 
ATOM      3  O   UNL     1      -1.200  10.051  19.410  0.00  0.00    +0.000 OA
ATOM      4  C   UNL     1       0.853  10.657  18.371  0.00  0.00    +0.000 C 
ATOM      5  C   UNL     1       2.128  10.004  17.886  0.00  0.00    +0.000 C 
ATOM      6  C   UNL     1       2.851   8.701  17.709  0.00  0.00    +0.000 C 
ATOM      7  C   UNL     1       2.378   7.656  18.693  0.00  0.00    +0.000 A 
ATOM      8  C   UNL     1       2.895   6.386  18.215  0.00  0.00    +0.000 A 
ATOM      9  C   UNL     1       2.636   5.195  18.843  0.00  0.00    +0.000 A 
ATOM     10  C   UNL     1       2.027   5.319  20.100  0.00  0.00    +0.000 A 
ATOM     11  C   UNL     1       1.530   6.613  20.621  0.00  0.00    +0.000 A 
ATOM     12  C   UNL     1       1.610   7.845  19.913  0.00  0.00    +0.000 A 
ENDROOT
BRANCH   9  13
ATOM     13  S   UNL     1       3.378   3.714  18.110  0.00  0.00    +0.000 S 
ATOM     14  O   UNL     1       3.650   2.793  19.180  0.00  0.00    +0.000 OA
ATOM     15  O   UNL     1       2.470   3.323  17.023  0.00  0.00    +0.000 OA
BRANCH  13  16
ATOM     16  N   UNL     1       4.848   4.100  17.381  0.00  0.00    +0.000 NA
ATOM     17  C   UNL     1       5.042   4.249  15.939  0.00  0.00    +0.000 C 
ATOM     18  C   UNL     1       6.549   4.075  15.743  0.00  0.00    +0.000 C 
ATOM     19  C   UNL     1       7.155   4.650  17.012  0.00  0.00    +0.000 C 
ATOM     20  C   UNL     1       6.092   4.425  18.104  0.00  0.00    +0.000 C 
ENDBRANCH  13  16
ENDBRANCH   9  13
BRANCH   1  21
ATOM     21  C   UNL     1       0.746   9.978  21.521  0.00  0.00    +0.000 C 
BRANCH  21  23
ATOM     22  N   UNL     1      -1.530  11.458  22.295  0.00  0.00    +0.000 N 
ATOM     23  C   UNL     1      -0.450  10.651  22.631  0.00  0.00    +0.000 C 
ATOM     24  O   UNL     1      -0.354  10.287  23.817  0.00  0.00    +0.000 OA
ATOM     25  H   UNL     1      -1.413  11.937  21.437  0.00  0.00    +0.000 HD
BRANCH  22  26
ATOM     26  C   UNL     1      -2.510  12.117  23.286  0.00  0.00    +0.000 C 
BRANCH  26  31
ATOM     27  C   UNL     1      -1.514  17.663  25.366  0.00  0.00    +0.000 C 
ATOM     28  C   UNL     1      -1.757  16.275  24.823  0.00  0.00    +0.000 A 
ATOM     29  C   UNL     1      -2.898  15.544  25.176  0.00  0.00    +0.000 A 
ATOM     30  C   UNL     1      -3.143  14.228  24.697  0.00  0.00    +0.000 A 
ATOM     31  C   UNL     1      -2.263  13.572  23.832  0.00  0.00    +0.000 A 
ATOM     32  C   UNL     1      -1.106  14.331  23.468  0.00  0.00    +0.000 A 
ATOM     33  C   UNL     1      -0.857  15.651  23.956  0.00  0.00    +0.000 A 
ENDBRANCH  26  31
ENDBRANCH  22  26
ENDBRANCH  21  23
ENDBRANCH   1  21
TORSDOF 6
ENDMDL
MODEL 7
REMARK VINA RESULT:      -8.8      3.139      4.422
REMARK  Name = 
REMARK  7 active torsions:
REMARK  status: ('A' for Active; 'I' for Inactive)
REMARK    1  A    between atoms: C_1  and  C_2
REMARK    2  A    between atoms: C_5  and  C_6
REMARK    3  A    between atoms: C_6  and  N_7
REMARK    4  A    between atoms: C_8  and  C_10
REMARK    5  A    between atoms: C_10  and  N_11
REMARK    6  A    between atoms: C_19  and  S_20
REMARK    7  A    between atoms: S_20  and  N_23
REMARK                            x       y       z     vdW  Elec       q    Type
REMARK                         _______ _______ _______ _____ _____    ______ ____
ROOT
ATOM      1  N   UNL     1       0.676   9.062  20.254  0.00  0.00    +0.000 N 
ATOM      2  C   UNL     1       0.023   9.760  19.233  0.00  0.00    +0.000 C 
ATOM      3  O   UNL     1      -1.191   9.972  19.335  0.00  0.00    +0.000 OA
ATOM      4  C   UNL     1       0.842  10.601  18.270  0.00  0.00    +0.000 C 
ATOM      5  C   UNL     1       2.136   9.969  17.807  0.00  0.00    +0.000 C 
ATOM      6  C   UNL     1       2.899   8.684  17.678  0.00  0.00    +0.000 C 
ATOM      7  C   UNL     1       2.459   7.663  18.701  0.00  0.00    +0.000 A 
ATOM      8  C   UNL     1       3.014   6.392  18.270  0.00  0.00    +0.000 A 
ATOM      9  C   UNL     1       2.793   5.218  18.943  0.00  0.00    +0.000 A 
ATOM     10  C   UNL     1       2.181   5.370  20.195  0.00  0.00    +0.000 A 
ATOM     11  C   UNL     1       1.646   6.668  20.669  0.00  0.00    +0.000 A 
ATOM     12  C   UNL     1       1.687   7.873  19.914  0.00  0.00    +0.000 A 
ENDROOT
BRANCH   9  13
ATOM     13  S   UNL     1       3.580   3.734  18.265  0.00  0.00    +0.000 S 
ATOM     14  O   UNL     1       3.844   2.846  19.364  0.00  0.00    +0.000 OA
ATOM     15  O   UNL     1       2.705   3.299  17.167  0.00  0.00    +0.000 OA
BRANCH  13  16
ATOM     16  N   UNL     1       5.059   4.130  17.561  0.00  0.00    +0.000 NA
ATOM     17  C   UNL     1       6.231   4.594  18.304  0.00  0.00    +0.000 C 
ATOM     18  C   UNL     1       7.090   5.295  17.250  0.00  0.00    +0.000 C 
ATOM     19  C   UNL     1       6.819   4.515  15.975  0.00  0.00    +0.000 C 
ATOM     20  C   UNL     1       5.387   3.972  16.131  0.00  0.00    +0.000 C 
ENDBRANCH  13  16
ENDBRANCH   9  13
BRANCH   1  21
ATOM     21  C   UNL     1       0.758  10.038  21.443  0.00  0.00    +0.000 C 
BRANCH  21  23
ATOM     22  N   UNL     1      -1.566  11.405  22.280  0.00  0.00    +0.000 N 
ATOM     23  C   UNL     1      -0.443  10.646  22.585  0.00  0.00    +0.000 C 
ATOM     24  O   UNL     1      -0.304  10.278  23.765  0.00  0.00    +0.000 OA
ATOM     25  H   UNL     1      -1.490  11.896  21.424  0.00  0.00    +0.000 HD
BRANCH  22  26
ATOM     26  C   UNL     1      -2.552  12.010  23.298  0.00  0.00    +0.000 C 
BRANCH  26  31
ATOM     27  C   UNL     1      -1.914  17.620  25.348  0.00  0.00    +0.000 C 
ATOM     28  C   UNL     1      -2.086  16.203  24.852  0.00  0.00    +0.000 A 
ATOM     29  C   UNL     1      -1.050  15.533  24.189  0.00  0.00    +0.000 A 
ATOM     30  C   UNL     1      -1.189  14.209  23.692  0.00  0.00    +0.000 A 
ATOM     31  C   UNL     1      -2.371  13.477  23.838  0.00  0.00    +0.000 A 
ATOM     32  C   UNL     1      -3.420  14.166  24.526  0.00  0.00    +0.000 A 
ATOM     33  C   UNL     1      -3.281  15.500  25.018  0.00  0.00    +0.000 A 
ENDBRANCH  26  31
ENDBRANCH  22  26
ENDBRANCH  21  23
ENDBRANCH   1  21
TORSDOF 6
ENDMDL
MODEL 8
REMARK VINA RESULT:      -8.7      4.462     10.362
REMARK  Name = 
REMARK  7 active torsions:
REMARK  status: ('A' for Active; 'I' for Inactive)
REMARK    1  A    between atoms: C_1  and  C_2
REMARK    2  A    between atoms: C_5  and  C_6
REMARK    3  A    between atoms: C_6  and  N_7
REMARK    4  A    between atoms: C_8  and  C_10
REMARK    5  A    between atoms: C_10  and  N_11
REMARK    6  A    between atoms: C_19  and  S_20
REMARK    7  A    between atoms: S_20  and  N_23
REMARK                            x       y       z     vdW  Elec       q    Type
REMARK                         _______ _______ _______ _____ _____    ______ ____
ROOT
ATOM      1  N   UNL     1       3.918   5.958  17.830  0.00  0.00    +0.000 N 
ATOM      2  C   UNL     1       3.382   4.672  17.945  0.00  0.00    +0.000 C 
ATOM      3  O   UNL     1       3.378   3.935  16.951  0.00  0.00    +0.000 OA
ATOM      4  C   UNL     1       3.223   4.054  19.323  0.00  0.00    +0.000 C 
ATOM      5  C   UNL     1       2.712   4.995  20.391  0.00  0.00    +0.000 C 
ATOM      6  C   UNL     1       2.007   6.294  20.651  0.00  0.00    +0.000 C 
ATOM      7  C   UNL     1       2.175   7.264  19.505  0.00  0.00    +0.000 A 
ATOM      8  C   UNL     1       1.200   8.319  19.721  0.00  0.00    +0.000 A 
ATOM      9  C   UNL     1       1.037   9.369  18.854  0.00  0.00    +0.000 A 
ATOM     10  C   UNL     1       2.028   9.469  17.867  0.00  0.00    +0.000 A 
ATOM     11  C   UNL     1       3.055   8.422  17.659  0.00  0.00    +0.000 A 
ATOM     12  C   UNL     1       3.141   7.222  18.419  0.00  0.00    +0.000 A 
ENDROOT
BRANCH   9  13
ATOM     13  S   UNL     1      -0.218  10.597  19.295  0.00  0.00    +0.000 S 
ATOM     14  O   UNL     1      -1.239  10.553  18.284  0.00  0.00    +0.000 OA
ATOM     15  O   UNL     1      -0.564  10.313  20.695  0.00  0.00    +0.000 OA
BRANCH  13  16
ATOM     16  N   UNL     1       0.451  12.144  19.279  0.00  0.00    +0.000 NA
ATOM     17  C   UNL     1       1.654  12.532  20.015  0.00  0.00    +0.000 C 
ATOM     18  C   UNL     1       1.558  14.056  20.113  0.00  0.00    +0.000 C 
ATOM     19  C   UNL     1       0.861  14.465  18.827  0.00  0.00    +0.000 C 
ATOM     20  C   UNL     1      -0.032  13.267  18.454  0.00  0.00    +0.000 C 
ENDBRANCH  13  16
ENDBRANCH   9  13
BRANCH   1  21
ATOM     21  C   UNL     1       5.444   5.769  17.735  0.00  0.00    +0.000 C 
BRANCH  21  23
ATOM     22  N   UNL     1       7.136   8.024  17.884  0.00  0.00    +0.000 N 
ATOM     23  C   UNL     1       6.761   6.843  17.256  0.00  0.00    +0.000 C 
ATOM     24  O   UNL     1       7.469   6.446  16.314  0.00  0.00    +0.000 OA
ATOM     25  H   UNL     1       6.411   8.434  18.420  0.00  0.00    +0.000 HD
BRANCH  22  26
ATOM     26  C   UNL     1       8.225   9.000  17.398  0.00  0.00    +0.000 C 
BRANCH  26  31
ATOM     27  C   UNL     1      10.174  13.440  20.945  0.00  0.00    +0.000 C 
ATOM     28  C   UNL     1       9.700  12.309  20.061  0.00  0.00    +0.000 A 
ATOM     29  C   UNL     1       9.320  12.534  18.732  0.00  0.00    +0.000 A 
ATOM     30  C   UNL     1       8.850  11.495  17.883  0.00  0.00    +0.000 A 
ATOM     31  C   UNL     1       8.741  10.170  18.316  0.00  0.00    +0.000 A 
ATOM     32  C   UNL     1       9.141   9.949  19.671  0.00  0.00    +0.000 A 
ATOM     33  C   UNL     1       9.607  10.996  20.526  0.00  0.00    +0.000 A 
ENDBRANCH  26  31
ENDBRANCH  22  26
ENDBRANCH  21  23
ENDBRANCH   1  21
TORSDOF 6
ENDMDL
MODEL 9
REMARK VINA RESULT:      -8.7      2.143      2.766
REMARK  Name = 
REMARK  7 active torsions:
REMARK  status: ('A' for Active; 'I' for Inactive)
REMARK    1  A    between atoms: C_1  and  C_2
REMARK    2  A    between atoms: C_5  and  C_6
REMARK    3  A    between atoms: C_6  and  N_7
REMARK    4  A    between atoms: C_8  and  C_10
REMARK    5  A    between atoms: C_10  and  N_11
REMARK    6  A    between atoms: C_19  and  S_20
REMARK    7  A    between atoms: S_20  and  N_23
REMARK                            x       y       z     vdW  Elec       q    Type
REMARK                         _______ _______ _______ _____ _____    ______ ____
ROOT
ATOM      1  N   UNL     1       1.094  10.059  18.831  0.00  0.00    +0.000 N 
ATOM      2  C   UNL     1       0.986  10.692  20.073  0.00  0.00    +0.000 C 
ATOM      3  O   UNL     1       1.303  11.884  20.166  0.00  0.00    +0.000 OA
ATOM      4  C   UNL     1       0.104  10.077  21.145  0.00  0.00    +0.000 C 
ATOM      5  C   UNL     1       0.197   8.572  21.266  0.00  0.00    +0.000 C 
ATOM      6  C   UNL     1       1.021   7.361  20.939  0.00  0.00    +0.000 C 
ATOM      7  C   UNL     1       1.884   7.581  19.718  0.00  0.00    +0.000 A 
ATOM      8  C   UNL     1       2.849   6.496  19.704  0.00  0.00    +0.000 A 
ATOM      9  C   UNL     1       3.828   6.384  18.750  0.00  0.00    +0.000 A 
ATOM     10  C   UNL     1       3.688   7.264  17.667  0.00  0.00    +0.000 A 
ATOM     11  C   UNL     1       2.682   8.350  17.646  0.00  0.00    +0.000 A 
ATOM     12  C   UNL     1       1.771   8.618  18.706  0.00  0.00    +0.000 A 
ENDROOT
BRANCH   9  13
ATOM     13  S   UNL     1       4.933   4.956  18.885  0.00  0.00    +0.000 S 
ATOM     14  O   UNL     1       6.014   5.328  19.757  0.00  0.00    +0.000 OA
ATOM     15  O   UNL     1       4.064   3.826  19.241  0.00  0.00    +0.000 OA
BRANCH  13  16
ATOM     16  N   UNL     1       5.594   4.588  17.379  0.00  0.00    +0.000 NA
ATOM     17  C   UNL     1       7.013   4.713  17.046  0.00  0.00    +0.000 C 
ATOM     18  C   UNL     1       7.035   4.780  15.518  0.00  0.00    +0.000 C 
ATOM     19  C   UNL     1       5.865   3.908  15.093  0.00  0.00    +0.000 C 
ATOM     20  C   UNL     1       4.849   4.009  16.246  0.00  0.00    +0.000 C 
ENDBRANCH  13  16
ENDBRANCH   9  13
BRANCH   1  21
ATOM     21  C   UNL     1      -0.053  10.623  17.971  0.00  0.00    +0.000 C 
BRANCH  21  23
ATOM     22  N   UNL     1      -2.621  11.793  17.994  0.00  0.00    +0.000 N 
ATOM     23  C   UNL     1      -1.803  10.689  18.195  0.00  0.00    +0.000 C 
ATOM     24  O   UNL     1      -2.354   9.610  18.476  0.00  0.00    +0.000 OA
ATOM     25  H   UNL     1      -2.141  12.657  18.050  0.00  0.00    +0.000 HD
BRANCH  22  26
ATOM     26  C   UNL     1      -4.133  11.863  18.286  0.00  0.00    +0.000 C 
BRANCH  26  31
ATOM     27  C   UNL     1      -6.139  13.253  23.775  0.00  0.00    +0.000 C 
ATOM     28  C   UNL     1      -5.622  12.922  22.394  0.00  0.00    +0.000 A 
ATOM     29  C   UNL     1      -6.459  12.370  21.416  0.00  0.00    +0.000 A 
ATOM     30  C   UNL     1      -5.997  12.030  20.116  0.00  0.00    +0.000 A 
ATOM     31  C   UNL     1      -4.672  12.230  19.719  0.00  0.00    +0.000 A 
ATOM     32  C   UNL     1      -3.827  12.804  20.720  0.00  0.00    +0.000 A 
ATOM     33  C   UNL     1      -4.291  13.139  22.030  0.00  0.00    +0.000 A 
ENDBRANCH  26  31
ENDBRANCH  22  26
ENDBRANCH  21  23
ENDBRANCH   1  21
TORSDOF 6
ENDMDL
