MODEL 1
REMARK VINA RESULT:      -8.0      0.000      0.000
REMARK  Name = 
REMARK  12 active torsions:
REMARK  status: ('A' for Active; 'I' for Inactive)
REMARK    1  A    between atoms: C_1  and  O_2
REMARK    2  A    between atoms: O_2  and  C_3
REMARK    3  A    between atoms: C_6  and  N_7
REMARK    4  A    between atoms: C_10  and  C_11
REMARK    5  A    between atoms: C_11  and  C_12
REMARK    6  A    between atoms: C_12  and  C_13
REMARK    7  A    between atoms: C_13  and  C_14
REMARK    8  A    between atoms: C_20  and  C_21
REMARK    9  A    between atoms: C_24  and  O_25
REMARK   10  A    between atoms: O_25  and  C_26
REMARK   11  A    between atoms: C_27  and  O_28
REMARK   12  A    between atoms: O_28  and  C_29
REMARK                            x       y       z     vdW  Elec       q    Type
REMARK                         _______ _______ _______ _____ _____    ______ ____
ROOT
ATOM      1  N   UNL     1      -0.398  11.387  22.235  0.00  0.00    +0.000 N 
ATOM      2  C   UNL     1       0.009  10.168  22.684  0.00  0.00    +0.000 C 
ATOM      3  O   UNL     1      -0.199   9.527  23.683  0.00  0.00    +0.000 OA
ATOM      4  C   UNL     1       0.831   9.919  21.419  0.00  0.00    +0.000 C 
ATOM      5  C   UNL     1       0.143  11.225  20.874  0.00  0.00    +0.000 C 
ENDROOT
BRANCH   1   9
ATOM      6  C   UNL     1      -3.037  14.190  23.960  0.00  0.00    +0.000 A 
ATOM      7  C   UNL     1      -1.781  14.571  23.500  0.00  0.00    +0.000 A 
ATOM      8  C   UNL     1      -0.933  13.638  22.905  0.00  0.00    +0.000 A 
ATOM      9  C   UNL     1      -1.305  12.295  22.782  0.00  0.00    +0.000 A 
ATOM     10  C   UNL     1      -2.570  11.917  23.242  0.00  0.00    +0.000 A 
ATOM     11  C   UNL     1      -3.430  12.863  23.839  0.00  0.00    +0.000 A 
BRANCH   6  13
ATOM     12  C   UNL     1      -3.005  16.289  25.046  0.00  0.00    +0.000 C 
ATOM     13  O   UNL     1      -3.758  15.195  24.542  0.00  0.00    +0.000 OA
ENDBRANCH   6  13
ENDBRANCH   1   9
BRANCH   5  14
ATOM     14  C   UNL     1      -0.926  11.086  19.709  0.00  0.00    +0.000 A 
ATOM     15  C   UNL     1      -0.685  10.357  18.539  0.00  0.00    +0.000 A 
ATOM     16  C   UNL     1      -1.634  10.299  17.517  0.00  0.00    +0.000 A 
ATOM     17  C   UNL     1      -2.872  10.945  17.642  0.00  0.00    +0.000 A 
ATOM     18  C   UNL     1      -3.156  11.674  18.803  0.00  0.00    +0.000 A 
ATOM     19  C   UNL     1      -2.184  11.724  19.804  0.00  0.00    +0.000 A 
BRANCH  17  20
ATOM     20  O   UNL     1      -3.662  10.820  16.529  0.00  0.00    +0.000 OA
ATOM     21  C   UNL     1      -2.986  10.637  15.292  0.00  0.00    +0.000 C 
ENDBRANCH  17  20
BRANCH  18  22
ATOM     22  O   UNL     1      -4.349  12.339  18.902  0.00  0.00    +0.000 OA
ATOM     23  C   UNL     1      -4.759  12.788  20.191  0.00  0.00    +0.000 C 
ENDBRANCH  18  22
ENDBRANCH   5  14
BRANCH   4  24
ATOM     24  C   UNL     1       0.619   8.564  20.749  0.00  0.00    +0.000 C 
BRANCH  24  25
ATOM     25  C   UNL     1       1.845   7.670  20.919  0.00  0.00    +0.000 C 
BRANCH  25  26
ATOM     26  C   UNL     1       2.346   7.103  19.585  0.00  0.00    +0.000 C 
BRANCH  26  27
ATOM     27  C   UNL     1       1.982   5.650  19.459  0.00  0.00    +0.000 A 
ATOM     28  C   UNL     1       2.037   5.018  18.210  0.00  0.00    +0.000 A 
ATOM     29  C   UNL     1       1.597   3.702  18.070  0.00  0.00    +0.000 A 
ATOM     30  C   UNL     1       1.112   3.011  19.178  0.00  0.00    +0.000 A 
ATOM     31  C   UNL     1       1.084   3.625  20.430  0.00  0.00    +0.000 A 
ATOM     32  C   UNL     1       1.516   4.942  20.571  0.00  0.00    +0.000 A 
ENDBRANCH  26  27
ENDBRANCH  25  26
ENDBRANCH  24  25
ENDBRANCH   4  24
TORSDOF 9
ENDMDL
MODEL 2
REMARK VINA RESULT:      -7.9      5.048      8.772
REMARK  Name = 
REMARK  12 active torsions:
REMARK  status: ('A' for Active; 'I' for Inactive)
REMARK    1  A    between atoms: C_1  and  O_2
REMARK    2  A    between atoms: O_2  and  C_3
REMARK    3  A    between atoms: C_6  and  N_7
REMARK    4  A    between atoms: C_10  and  C_11
REMARK    5  A    between atoms: C_11  and  C_12
REMARK    6  A    between atoms: C_12  and  C_13
REMARK    7  A    between atoms: C_13  and  C_14
REMARK    8  A    between atoms: C_20  and  C_21
REMARK    9  A    between atoms: C_24  and  O_25
REMARK   10  A    between atoms: O_25  and  C_26
REMARK   11  A    between atoms: C_27  and  O_28
REMARK   12  A    between atoms: O_28  and  C_29
REMARK                            x       y       z     vdW  Elec       q    Type
REMARK                         _______ _______ _______ _____ _____    ______ ____
ROOT
ATOM      1  N   UNL     1       6.590   6.301  17.252  0.00  0.00    +0.000 N 
ATOM      2  C   UNL     1       6.853   4.977  17.427  0.00  0.00    +0.000 C 
ATOM      3  O   UNL     1       7.774   4.358  17.898  0.00  0.00    +0.000 OA
ATOM      4  C   UNL     1       5.518   4.576  16.800  0.00  0.00    +0.000 C 
ATOM      5  C   UNL     1       5.189   6.115  16.838  0.00  0.00    +0.000 C 
ENDROOT
BRANCH   1   9
ATOM      6  C   UNL     1       8.735   9.665  18.627  0.00  0.00    +0.000 A 
ATOM      7  C   UNL     1       8.952   8.401  19.167  0.00  0.00    +0.000 A 
ATOM      8  C   UNL     1       8.257   7.295  18.680  0.00  0.00    +0.000 A 
ATOM      9  C   UNL     1       7.305   7.427  17.663  0.00  0.00    +0.000 A 
ATOM     10  C   UNL     1       7.093   8.698  17.121  0.00  0.00    +0.000 A 
ATOM     11  C   UNL     1       7.801   9.816  17.610  0.00  0.00    +0.000 A 
BRANCH   6  13
ATOM     12  C   UNL     1       9.299  10.817  20.612  0.00  0.00    +0.000 C 
ATOM     13  O   UNL     1       9.463  10.663  19.210  0.00  0.00    +0.000 OA
ENDBRANCH   6  13
ENDBRANCH   1   9
BRANCH   5  14
ATOM     14  C   UNL     1       4.085   6.625  17.858  0.00  0.00    +0.000 A 
ATOM     15  C   UNL     1       3.884   6.043  19.115  0.00  0.00    +0.000 A 
ATOM     16  C   UNL     1       2.869   6.492  19.962  0.00  0.00    +0.000 A 
ATOM     17  C   UNL     1       2.038   7.559  19.595  0.00  0.00    +0.000 A 
ATOM     18  C   UNL     1       2.216   8.176  18.351  0.00  0.00    +0.000 A 
ATOM     19  C   UNL     1       3.231   7.699  17.518  0.00  0.00    +0.000 A 
BRANCH  17  20
ATOM     20  O   UNL     1       1.072   7.838  20.526  0.00  0.00    +0.000 OA
ATOM     21  C   UNL     1       1.471   8.644  21.627  0.00  0.00    +0.000 C 
ENDBRANCH  17  20
BRANCH  18  22
ATOM     22  O   UNL     1       1.375   9.189  17.978  0.00  0.00    +0.000 OA
ATOM     23  C   UNL     1       1.749  10.524  18.305  0.00  0.00    +0.000 C 
ENDBRANCH  18  22
ENDBRANCH   5  14
BRANCH   4  24
ATOM     24  C   UNL     1       4.695   3.562  17.591  0.00  0.00    +0.000 C 
BRANCH  24  25
ATOM     25  C   UNL     1       3.439   3.157  16.822  0.00  0.00    +0.000 C 
BRANCH  25  26
ATOM     26  C   UNL     1       2.603   2.116  17.575  0.00  0.00    +0.000 C 
BRANCH  26  27
ATOM     27  C   UNL     1       2.258   2.610  18.952  0.00  0.00    +0.000 A 
ATOM     28  C   UNL     1       3.074   2.280  20.042  0.00  0.00    +0.000 A 
ATOM     29  C   UNL     1       2.700   2.645  21.334  0.00  0.00    +0.000 A 
ATOM     30  C   UNL     1       1.516   3.350  21.540  0.00  0.00    +0.000 A 
ATOM     31  C   UNL     1       0.716   3.709  20.457  0.00  0.00    +0.000 A 
ATOM     32  C   UNL     1       1.085   3.339  19.165  0.00  0.00    +0.000 A 
ENDBRANCH  26  27
ENDBRANCH  25  26
ENDBRANCH  24  25
ENDBRANCH   4  24
TORSDOF 9
ENDMDL
MODEL 3
REMARK VINA RESULT:      -7.8      5.099      8.851
REMARK  Name = 
REMARK  12 active torsions:
REMARK  status: ('A' for Active; 'I' for Inactive)
REMARK    1  A    between atoms: C_1  and  O_2
REMARK    2  A    between atoms: O_2  and  C_3
REMARK    3  A    between atoms: C_6  and  N_7
REMARK    4  A    between atoms: C_10  and  C_11
REMARK    5  A    between atoms: C_11  and  C_12
REMARK    6  A    between atoms: C_12  and  C_13
REMARK    7  A    between atoms: C_13  and  C_14
REMARK    8  A    between atoms: C_20  and  C_21
REMARK    9  A    between atoms: C_24  and  O_25
REMARK   10  A    between atoms: O_25  and  C_26
REMARK   11  A    between atoms: C_27  and  O_28
REMARK   12  A    between atoms: O_28  and  C_29
REMARK                            x       y       z     vdW  Elec       q    Type
REMARK                         _______ _______ _______ _____ _____    ______ ____
ROOT
ATOM      1  N   UNL     1       6.674   6.358  17.184  0.00  0.00    +0.000 N 
ATOM      2  C   UNL     1       6.976   5.031  17.215  0.00  0.00    +0.000 C 
ATOM      3  O   UNL     1       7.927   4.394  17.593  0.00  0.00    +0.000 OA
ATOM      4  C   UNL     1       5.632   4.657  16.590  0.00  0.00    +0.000 C 
ATOM      5  C   UNL     1       5.265   6.175  16.795  0.00  0.00    +0.000 C 
ENDROOT
BRANCH   1   9
ATOM      6  C   UNL     1       8.810   9.721  18.575  0.00  0.00    +0.000 A 
ATOM      7  C   UNL     1       7.909   9.824  17.519  0.00  0.00    +0.000 A 
ATOM      8  C   UNL     1       7.189   8.710  17.092  0.00  0.00    +0.000 A 
ATOM      9  C   UNL     1       7.373   7.456  17.687  0.00  0.00    +0.000 A 
ATOM     10  C   UNL     1       8.276   7.358  18.749  0.00  0.00    +0.000 A 
ATOM     11  C   UNL     1       9.000   8.487  19.185  0.00  0.00    +0.000 A 
BRANCH   6  13
ATOM     12  C   UNL     1       9.001  12.049  18.217  0.00  0.00    +0.000 C 
ATOM     13  O   UNL     1       9.466  10.881  18.877  0.00  0.00    +0.000 OA
ENDBRANCH   6  13
ENDBRANCH   1   9
BRANCH   5  14
ATOM     14  C   UNL     1       4.182   6.548  17.893  0.00  0.00    +0.000 A 
ATOM     15  C   UNL     1       4.087   5.886  19.123  0.00  0.00    +0.000 A 
ATOM     16  C   UNL     1       3.089   6.213  20.042  0.00  0.00    +0.000 A 
ATOM     17  C   UNL     1       2.167   7.235  19.777  0.00  0.00    +0.000 A 
ATOM     18  C   UNL     1       2.236   7.929  18.563  0.00  0.00    +0.000 A 
ATOM     19  C   UNL     1       3.238   7.573  17.657  0.00  0.00    +0.000 A 
BRANCH  17  20
ATOM     20  O   UNL     1       1.233   7.392  20.767  0.00  0.00    +0.000 OA
ATOM     21  C   UNL     1       1.363   8.553  21.578  0.00  0.00    +0.000 C 
ENDBRANCH  17  20
BRANCH  18  22
ATOM     22  O   UNL     1       1.308   8.896  18.289  0.00  0.00    +0.000 OA
ATOM     23  C   UNL     1       1.751  10.249  18.218  0.00  0.00    +0.000 C 
ENDBRANCH  18  22
ENDBRANCH   5  14
BRANCH   4  24
ATOM     24  C   UNL     1       4.860   3.546  17.297  0.00  0.00    +0.000 C 
BRANCH  24  25
ATOM     25  C   UNL     1       3.432   3.446  16.766  0.00  0.00    +0.000 C 
BRANCH  25  26
ATOM     26  C   UNL     1       2.665   2.264  17.368  0.00  0.00    +0.000 C 
BRANCH  26  27
ATOM     27  C   UNL     1       2.227   2.578  18.771  0.00  0.00    +0.000 A 
ATOM     28  C   UNL     1       1.032   3.276  18.995  0.00  0.00    +0.000 A 
ATOM     29  C   UNL     1       0.678   3.663  20.287  0.00  0.00    +0.000 A 
ATOM     30  C   UNL     1       1.509   3.344  21.359  0.00  0.00    +0.000 A 
ATOM     31  C   UNL     1       2.683   2.623  21.146  0.00  0.00    +0.000 A 
ATOM     32  C   UNL     1       3.043   2.242  19.855  0.00  0.00    +0.000 A 
ENDBRANCH  26  27
ENDBRANCH  25  26
ENDBRANCH  24  25
ENDBRANCH   4  24
TORSDOF 9
ENDMDL
MODEL 4
REMARK VINA RESULT:      -7.6      0.621      1.029
REMARK  Name = 
REMARK  12 active torsions:
REMARK  status: ('A' for Active; 'I' for Inactive)
REMARK    1  A    between atoms: C_1  and  O_2
REMARK    2  A    between atoms: O_2  and  C_3
REMARK    3  A    between atoms: C_6  and  N_7
REMARK    4  A    between atoms: C_10  and  C_11
REMARK    5  A    between atoms: C_11  and  C_12
REMARK    6  A    between atoms: C_12  and  C_13
REMARK    7  A    between atoms: C_13  and  C_14
REMARK    8  A    between atoms: C_20  and  C_21
REMARK    9  A    between atoms: C_24  and  O_25
REMARK   10  A    between atoms: O_25  and  C_26
REMARK   11  A    between atoms: C_27  and  O_28
REMARK   12  A    between atoms: O_28  and  C_29
REMARK                            x       y       z     vdW  Elec       q    Type
REMARK                         _______ _______ _______ _____ _____    ______ ____
ROOT
ATOM      1  N   UNL     1      -0.307  11.315  22.190  0.00  0.00    +0.000 N 
ATOM      2  C   UNL     1       0.051  10.089  22.661  0.00  0.00    +0.000 C 
ATOM      3  O   UNL     1      -0.186   9.473  23.670  0.00  0.00    +0.000 OA
ATOM      4  C   UNL     1       0.868   9.787  21.404  0.00  0.00    +0.000 C 
ATOM      5  C   UNL     1       0.233  11.110  20.834  0.00  0.00    +0.000 C 
ENDROOT
BRANCH   1   9
ATOM      6  C   UNL     1      -2.842  14.251  23.849  0.00  0.00    +0.000 A 
ATOM      7  C   UNL     1      -1.596  14.585  23.329  0.00  0.00    +0.000 A 
ATOM      8  C   UNL     1      -0.783  13.607  22.757  0.00  0.00    +0.000 A 
ATOM      9  C   UNL     1      -1.180  12.266  22.717  0.00  0.00    +0.000 A 
ATOM     10  C   UNL     1      -2.435  11.936  23.238  0.00  0.00    +0.000 A 
ATOM     11  C   UNL     1      -3.259  12.926  23.812  0.00  0.00    +0.000 A 
BRANCH   6  13
ATOM     12  C   UNL     1      -4.747  15.647  23.765  0.00  0.00    +0.000 C 
ATOM     13  O   UNL     1      -3.526  15.298  24.400  0.00  0.00    +0.000 OA
ENDBRANCH   6  13
ENDBRANCH   1   9
BRANCH   5  14
ATOM     14  C   UNL     1      -0.835  10.992  19.667  0.00  0.00    +0.000 A 
ATOM     15  C   UNL     1      -0.626  10.218  18.519  0.00  0.00    +0.000 A 
ATOM     16  C   UNL     1      -1.571  10.181  17.493  0.00  0.00    +0.000 A 
ATOM     17  C   UNL     1      -2.775  10.893  17.591  0.00  0.00    +0.000 A 
ATOM     18  C   UNL     1      -3.027  11.669  18.729  0.00  0.00    +0.000 A 
ATOM     19  C   UNL     1      -2.058  11.697  19.735  0.00  0.00    +0.000 A 
BRANCH  17  20
ATOM     20  O   UNL     1      -3.564  10.777  16.477  0.00  0.00    +0.000 OA
ATOM     21  C   UNL     1      -3.090   9.910  15.455  0.00  0.00    +0.000 C 
ENDBRANCH  17  20
BRANCH  18  22
ATOM     22  O   UNL     1      -4.184  12.397  18.801  0.00  0.00    +0.000 OA
ATOM     23  C   UNL     1      -5.327  11.780  19.387  0.00  0.00    +0.000 C 
ENDBRANCH  18  22
ENDBRANCH   5  14
BRANCH   4  24
ATOM     24  C   UNL     1       0.606   8.430  20.756  0.00  0.00    +0.000 C 
BRANCH  24  25
ATOM     25  C   UNL     1       1.828   7.950  19.976  0.00  0.00    +0.000 C 
BRANCH  25  26
ATOM     26  C   UNL     1       2.429   6.667  20.561  0.00  0.00    +0.000 C 
BRANCH  26  27
ATOM     27  C   UNL     1       1.926   5.461  19.816  0.00  0.00    +0.000 A 
ATOM     28  C   UNL     1       1.248   4.444  20.501  0.00  0.00    +0.000 A 
ATOM     29  C   UNL     1       0.876   3.277  19.835  0.00  0.00    +0.000 A 
ATOM     30  C   UNL     1       1.172   3.127  18.482  0.00  0.00    +0.000 A 
ATOM     31  C   UNL     1       1.819   4.148  17.788  0.00  0.00    +0.000 A 
ATOM     32  C   UNL     1       2.197   5.313  18.453  0.00  0.00    +0.000 A 
ENDBRANCH  26  27
ENDBRANCH  25  26
ENDBRANCH  24  25
ENDBRANCH   4  24
TORSDOF 9
ENDMDL
MODEL 5
REMARK VINA RESULT:      -7.5      0.697      1.094
REMARK  Name = 
REMARK  12 active torsions:
REMARK  status: ('A' for Active; 'I' for Inactive)
REMARK    1  A    between atoms: C_1  and  O_2
REMARK    2  A    between atoms: O_2  and  C_3
REMARK    3  A    between atoms: C_6  and  N_7
REMARK    4  A    between atoms: C_10  and  C_11
REMARK    5  A    between atoms: C_11  and  C_12
REMARK    6  A    between atoms: C_12  and  C_13
REMARK    7  A    between atoms: C_13  and  C_14
REMARK    8  A    between atoms: C_20  and  C_21
REMARK    9  A    between atoms: C_24  and  O_25
REMARK   10  A    between atoms: O_25  and  C_26
REMARK   11  A    between atoms: C_27  and  O_28
REMARK   12  A    between atoms: O_28  and  C_29
REMARK                            x       y       z     vdW  Elec       q    Type
REMARK                         _______ _______ _______ _____ _____    ______ ____
ROOT
ATOM      1  N   UNL     1      -0.024  11.337  21.797  0.00  0.00    +0.000 N 
ATOM      2  C   UNL     1       0.478  10.133  22.186  0.00  0.00    +0.000 C 
ATOM      3  O   UNL     1       0.420   9.486  23.201  0.00  0.00    +0.000 OA
ATOM      4  C   UNL     1       1.141   9.912  20.826  0.00  0.00    +0.000 C 
ATOM      5  C   UNL     1       0.345  11.194  20.377  0.00  0.00    +0.000 C 
ENDROOT
BRANCH   1   9
ATOM      6  C   UNL     1      -2.735  13.921  23.740  0.00  0.00    +0.000 A 
ATOM      7  C   UNL     1      -2.958  12.549  23.688  0.00  0.00    +0.000 A 
ATOM      8  C   UNL     1      -2.037  11.705  23.068  0.00  0.00    +0.000 A 
ATOM      9  C   UNL     1      -0.885  12.214  22.458  0.00  0.00    +0.000 A 
ATOM     10  C   UNL     1      -0.663  13.593  22.516  0.00  0.00    +0.000 A 
ATOM     11  C   UNL     1      -1.593  14.445  23.148  0.00  0.00    +0.000 A 
BRANCH   6  13
ATOM     12  C   UNL     1      -4.690  15.228  23.497  0.00  0.00    +0.000 C 
ATOM     13  O   UNL     1      -3.726  14.634  24.355  0.00  0.00    +0.000 OA
ENDBRANCH   6  13
ENDBRANCH   1   9
BRANCH   5  14
ATOM     14  C   UNL     1      -0.857  11.017  19.357  0.00  0.00    +0.000 A 
ATOM     15  C   UNL     1      -0.800  10.153  18.257  0.00  0.00    +0.000 A 
ATOM     16  C   UNL     1      -1.862  10.063  17.356  0.00  0.00    +0.000 A 
ATOM     17  C   UNL     1      -3.032  10.813  17.539  0.00  0.00    +0.000 A 
ATOM     18  C   UNL     1      -3.133  11.680  18.633  0.00  0.00    +0.000 A 
ATOM     19  C   UNL     1      -2.050  11.758  19.513  0.00  0.00    +0.000 A 
BRANCH  17  20
ATOM     20  O   UNL     1      -3.951  10.634  16.538  0.00  0.00    +0.000 OA
ATOM     21  C   UNL     1      -3.456  10.700  15.207  0.00  0.00    +0.000 C 
ENDBRANCH  17  20
BRANCH  18  22
ATOM     22  O   UNL     1      -4.259  12.442  18.784  0.00  0.00    +0.000 OA
ATOM     23  C   UNL     1      -5.447  11.799  19.236  0.00  0.00    +0.000 C 
ENDBRANCH  18  22
ENDBRANCH   5  14
BRANCH   4  24
ATOM     24  C   UNL     1       0.892   8.550  20.183  0.00  0.00    +0.000 C 
BRANCH  24  25
ATOM     25  C   UNL     1       2.018   7.573  20.515  0.00  0.00    +0.000 C 
BRANCH  25  26
ATOM     26  C   UNL     1       2.479   6.774  19.290  0.00  0.00    +0.000 C 
BRANCH  26  27
ATOM     27  C   UNL     1       2.017   5.347  19.387  0.00  0.00    +0.000 A 
ATOM     28  C   UNL     1       1.874   4.574  18.226  0.00  0.00    +0.000 A 
ATOM     29  C   UNL     1       1.344   3.287  18.301  0.00  0.00    +0.000 A 
ATOM     30  C   UNL     1       0.966   2.764  19.536  0.00  0.00    +0.000 A 
ATOM     31  C   UNL     1       1.135   3.515  20.698  0.00  0.00    +0.000 A 
ATOM     32  C   UNL     1       1.658   4.805  20.624  0.00  0.00    +0.000 A 
ENDBRANCH  26  27
ENDBRANCH  25  26
ENDBRANCH  24  25
ENDBRANCH   4  24
TORSDOF 9
ENDMDL
MODEL 6
REMARK VINA RESULT:      -7.5      0.982      1.398
REMARK  Name = 
REMARK  12 active torsions:
REMARK  status: ('A' for Active; 'I' for Inactive)
REMARK    1  A    between atoms: C_1  and  O_2
REMARK    2  A    between atoms: O_2  and  C_3
REMARK    3  A    between atoms: C_6  and  N_7
REMARK    4  A    between atoms: C_10  and  C_11
REMARK    5  A    between atoms: C_11  and  C_12
REMARK    6  A    between atoms: C_12  and  C_13
REMARK    7  A    between atoms: C_13  and  C_14
REMARK    8  A    between atoms: C_20  and  C_21
REMARK    9  A    between atoms: C_24  and  O_25
REMARK   10  A    between atoms: O_25  and  C_26
REMARK   11  A    between atoms: C_27  and  O_28
REMARK   12  A    between atoms: O_28  and  C_29
REMARK                            x       y       z     vdW  Elec       q    Type
REMARK                         _______ _______ _______ _____ _____    ______ ____
ROOT
ATOM      1  N   UNL     1      -0.007  11.436  21.918  0.00  0.00    +0.000 N 
ATOM      2  C   UNL     1       0.283  10.249  22.518  0.00  0.00    +0.000 C 
ATOM      3  O   UNL     1       0.048   9.773  23.600  0.00  0.00    +0.000 OA
ATOM      4  C   UNL     1       1.021   9.743  21.277  0.00  0.00    +0.000 C 
ATOM      5  C   UNL     1       0.457  11.036  20.578  0.00  0.00    +0.000 C 
ENDROOT
BRANCH   1   9
ATOM      6  C   UNL     1      -2.479  14.603  23.208  0.00  0.00    +0.000 A 
ATOM      7  C   UNL     1      -2.840  13.275  23.415  0.00  0.00    +0.000 A 
ATOM      8  C   UNL     1      -1.998  12.241  23.010  0.00  0.00    +0.000 A 
ATOM      9  C   UNL     1      -0.787  12.505  22.360  0.00  0.00    +0.000 A 
ATOM     10  C   UNL     1      -0.425  13.840  22.157  0.00  0.00    +0.000 A 
ATOM     11  C   UNL     1      -1.276  14.886  22.573  0.00  0.00    +0.000 A 
BRANCH   6  13
ATOM     12  C   UNL     1      -3.411  15.794  25.024  0.00  0.00    +0.000 C 
ATOM     13  O   UNL     1      -3.403  15.515  23.631  0.00  0.00    +0.000 OA
ENDBRANCH   6  13
ENDBRANCH   1   9
BRANCH   5  14
ATOM     14  C   UNL     1      -0.667  10.865  19.471  0.00  0.00    +0.000 A 
ATOM     15  C   UNL     1      -0.487  10.095  18.316  0.00  0.00    +0.000 A 
ATOM     16  C   UNL     1      -1.485  10.010  17.344  0.00  0.00    +0.000 A 
ATOM     17  C   UNL     1      -2.711  10.670  17.505  0.00  0.00    +0.000 A 
ATOM     18  C   UNL     1      -2.934  11.441  18.652  0.00  0.00    +0.000 A 
ATOM     19  C   UNL     1      -1.914  11.517  19.603  0.00  0.00    +0.000 A 
BRANCH  17  20
ATOM     20  O   UNL     1      -3.554  10.513  16.436  0.00  0.00    +0.000 OA
ATOM     21  C   UNL     1      -2.948  10.507  15.150  0.00  0.00    +0.000 C 
ENDBRANCH  17  20
BRANCH  18  22
ATOM     22  O   UNL     1      -4.116  12.118  18.785  0.00  0.00    +0.000 OA
ATOM     23  C   UNL     1      -4.438  12.657  20.064  0.00  0.00    +0.000 C 
ENDBRANCH  18  22
ENDBRANCH   5  14
BRANCH   4  24
ATOM     24  C   UNL     1       0.635   8.344  20.803  0.00  0.00    +0.000 C 
BRANCH  24  25
ATOM     25  C   UNL     1       1.875   7.486  20.562  0.00  0.00    +0.000 C 
BRANCH  25  26
ATOM     26  C   UNL     1       2.259   7.416  19.080  0.00  0.00    +0.000 C 
BRANCH  26  27
ATOM     27  C   UNL     1       2.771   6.046  18.731  0.00  0.00    +0.000 A 
ATOM     28  C   UNL     1       2.006   5.194  17.922  0.00  0.00    +0.000 A 
ATOM     29  C   UNL     1       2.427   3.886  17.687  0.00  0.00    +0.000 A 
ATOM     30  C   UNL     1       3.617   3.429  18.248  0.00  0.00    +0.000 A 
ATOM     31  C   UNL     1       4.398   4.281  19.027  0.00  0.00    +0.000 A 
ATOM     32  C   UNL     1       3.976   5.586  19.270  0.00  0.00    +0.000 A 
ENDBRANCH  26  27
ENDBRANCH  25  26
ENDBRANCH  24  25
ENDBRANCH   4  24
TORSDOF 9
ENDMDL
MODEL 7
REMARK VINA RESULT:      -7.5      2.917      4.021
REMARK  Name = 
REMARK  12 active torsions:
REMARK  status: ('A' for Active; 'I' for Inactive)
REMARK    1  A    between atoms: C_1  and  O_2
REMARK    2  A    between atoms: O_2  and  C_3
REMARK    3  A    between atoms: C_6  and  N_7
REMARK    4  A    between atoms: C_10  and  C_11
REMARK    5  A    between atoms: C_11  and  C_12
REMARK    6  A    between atoms: C_12  and  C_13
REMARK    7  A    between atoms: C_13  and  C_14
REMARK    8  A    between atoms: C_20  and  C_21
REMARK    9  A    between atoms: C_24  and  O_25
REMARK   10  A    between atoms: O_25  and  C_26
REMARK   11  A    between atoms: C_27  and  O_28
REMARK   12  A    between atoms: O_28  and  C_29
REMARK                            x       y       z     vdW  Elec       q    Type
REMARK                         _______ _______ _______ _____ _____    ______ ____
ROOT
ATOM      1  N   UNL     1       0.778  12.293  19.406  0.00  0.00    +0.000 N 
ATOM      2  C   UNL     1       0.998  11.631  20.575  0.00  0.00    +0.000 C 
ATOM      3  O   UNL     1       1.340  11.967  21.680  0.00  0.00    +0.000 OA
ATOM      4  C   UNL     1       0.632  10.288  19.943  0.00  0.00    +0.000 C 
ATOM      5  C   UNL     1       0.182  11.145  18.701  0.00  0.00    +0.000 C 
ENDROOT
BRANCH   1   9
ATOM      6  C   UNL     1       0.710  16.412  18.492  0.00  0.00    +0.000 A 
ATOM      7  C   UNL     1      -0.420  15.763  18.980  0.00  0.00    +0.000 A 
ATOM      8  C   UNL     1      -0.372  14.408  19.305  0.00  0.00    +0.000 A 
ATOM      9  C   UNL     1       0.797  13.660  19.124  0.00  0.00    +0.000 A 
ATOM     10  C   UNL     1       1.931  14.317  18.638  0.00  0.00    +0.000 A 
ATOM     11  C   UNL     1       1.883  15.689  18.313  0.00  0.00    +0.000 A 
BRANCH   6  13
ATOM     12  C   UNL     1      -0.697  18.052  17.537  0.00  0.00    +0.000 C 
ATOM     13  O   UNL     1       0.522  17.731  18.191  0.00  0.00    +0.000 OA
ENDBRANCH   6  13
ENDBRANCH   1   9
BRANCH   5  14
ATOM     14  C   UNL     1      -1.368  11.250  18.379  0.00  0.00    +0.000 A 
ATOM     15  C   UNL     1      -2.279  11.892  19.227  0.00  0.00    +0.000 A 
ATOM     16  C   UNL     1      -3.643  11.920  18.929  0.00  0.00    +0.000 A 
ATOM     17  C   UNL     1      -4.140  11.333  17.758  0.00  0.00    +0.000 A 
ATOM     18  C   UNL     1      -3.260  10.692  16.878  0.00  0.00    +0.000 A 
ATOM     19  C   UNL     1      -1.902  10.669  17.207  0.00  0.00    +0.000 A 
BRANCH  17  20
ATOM     20  O   UNL     1      -5.504  11.417  17.648  0.00  0.00    +0.000 OA
ATOM     21  C   UNL     1      -6.023  12.646  17.158  0.00  0.00    +0.000 C 
ENDBRANCH  17  20
BRANCH  18  22
ATOM     22  O   UNL     1      -3.755  10.083  15.758  0.00  0.00    +0.000 OA
ATOM     23  C   UNL     1      -3.027  10.224  14.541  0.00  0.00    +0.000 C 
ENDBRANCH  18  22
ENDBRANCH   5  14
BRANCH   4  24
ATOM     24  C   UNL     1      -0.361   9.436  20.729  0.00  0.00    +0.000 C 
BRANCH  24  25
ATOM     25  C   UNL     1       0.312   8.184  21.288  0.00  0.00    +0.000 C 
BRANCH  25  26
ATOM     26  C   UNL     1       1.765   8.044  20.822  0.00  0.00    +0.000 C 
BRANCH  26  27
ATOM     27  C   UNL     1       1.959   6.752  20.078  0.00  0.00    +0.000 A 
ATOM     28  C   UNL     1       2.433   6.764  18.759  0.00  0.00    +0.000 A 
ATOM     29  C   UNL     1       2.510   5.578  18.030  0.00  0.00    +0.000 A 
ATOM     30  C   UNL     1       2.126   4.376  18.620  0.00  0.00    +0.000 A 
ATOM     31  C   UNL     1       1.683   4.352  19.941  0.00  0.00    +0.000 A 
ATOM     32  C   UNL     1       1.598   5.538  20.669  0.00  0.00    +0.000 A 
ENDBRANCH  26  27
ENDBRANCH  25  26
ENDBRANCH  24  25
ENDBRANCH   4  24
TORSDOF 9
ENDMDL
MODEL 8
REMARK VINA RESULT:      -7.5      3.589      7.674
REMARK  Name = 
REMARK  12 active torsions:
REMARK  status: ('A' for Active; 'I' for Inactive)
REMARK    1  A    between atoms: C_1  and  O_2
REMARK    2  A    between atoms: O_2  and  C_3
REMARK    3  A    between atoms: C_6  and  N_7
REMARK    4  A    between atoms: C_10  and  C_11
REMARK    5  A    between atoms: C_11  and  C_12
REMARK    6  A    between atoms: C_12  and  C_13
REMARK    7  A    between atoms: C_13  and  C_14
REMARK    8  A    between atoms: C_20  and  C_21
REMARK    9  A    between atoms: C_24  and  O_25
REMARK   10  A    between atoms: O_25  and  C_26
REMARK   11  A    between atoms: C_27  and  O_28
REMARK   12  A    between atoms: O_28  and  C_29
REMARK                            x       y       z     vdW  Elec       q    Type
REMARK                         _______ _______ _______ _____ _____    ______ ____
ROOT
ATOM      1  N   UNL     1       0.356  11.958  19.299  0.00  0.00    +0.000 N 
ATOM      2  C   UNL     1      -0.691  12.096  18.441  0.00  0.00    +0.000 C 
ATOM      3  O   UNL     1      -1.005  12.922  17.621  0.00  0.00    +0.000 OA
ATOM      4  C   UNL     1      -1.318  10.783  18.914  0.00  0.00    +0.000 C 
ATOM      5  C   UNL     1       0.027  10.582  19.708  0.00  0.00    +0.000 C 
ENDROOT
BRANCH   1   9
ATOM      6  C   UNL     1       3.773  14.374  19.841  0.00  0.00    +0.000 A 
ATOM      7  C   UNL     1       2.975  14.002  20.918  0.00  0.00    +0.000 A 
ATOM      8  C   UNL     1       1.867  13.178  20.726  0.00  0.00    +0.000 A 
ATOM      9  C   UNL     1       1.509  12.730  19.449  0.00  0.00    +0.000 A 
ATOM     10  C   UNL     1       2.316  13.104  18.370  0.00  0.00    +0.000 A 
ATOM     11  C   UNL     1       3.440  13.933  18.567  0.00  0.00    +0.000 A 
BRANCH   6  13
ATOM     12  C   UNL     1       4.749  16.516  19.632  0.00  0.00    +0.000 C 
ATOM     13  O   UNL     1       4.812  15.201  20.164  0.00  0.00    +0.000 OA
ENDBRANCH   6  13
ENDBRANCH   1   9
BRANCH   5  14
ATOM     14  C   UNL     1       1.027   9.450  19.224  0.00  0.00    +0.000 A 
ATOM     15  C   UNL     1       1.619   9.450  17.955  0.00  0.00    +0.000 A 
ATOM     16  C   UNL     1       2.456   8.409  17.550  0.00  0.00    +0.000 A 
ATOM     17  C   UNL     1       2.755   7.345  18.411  0.00  0.00    +0.000 A 
ATOM     18  C   UNL     1       2.193   7.314  19.693  0.00  0.00    +0.000 A 
ATOM     19  C   UNL     1       1.350   8.363  20.067  0.00  0.00    +0.000 A 
BRANCH  17  20
ATOM     20  O   UNL     1       3.556   6.392  17.836  0.00  0.00    +0.000 OA
ATOM     21  C   UNL     1       4.745   6.860  17.214  0.00  0.00    +0.000 C 
ENDBRANCH  17  20
BRANCH  18  22
ATOM     22  O   UNL     1       2.453   6.251  20.515  0.00  0.00    +0.000 OA
ATOM     23  C   UNL     1       1.553   5.147  20.487  0.00  0.00    +0.000 C 
ENDBRANCH  18  22
ENDBRANCH   5  14
BRANCH   4  24
ATOM     24  C   UNL     1      -1.747   9.820  17.811  0.00  0.00    +0.000 C 
BRANCH  24  25
ATOM     25  C   UNL     1      -3.269   9.723  17.728  0.00  0.00    +0.000 C 
BRANCH  25  26
ATOM     26  C   UNL     1      -3.876  10.809  16.833  0.00  0.00    +0.000 C 
BRANCH  26  27
ATOM     27  C   UNL     1      -5.111  11.387  17.467  0.00  0.00    +0.000 A 
ATOM     28  C   UNL     1      -5.698  10.752  18.569  0.00  0.00    +0.000 A 
ATOM     29  C   UNL     1      -6.902  11.223  19.091  0.00  0.00    +0.000 A 
ATOM     30  C   UNL     1      -7.517  12.336  18.520  0.00  0.00    +0.000 A 
ATOM     31  C   UNL     1      -6.922  12.991  17.443  0.00  0.00    +0.000 A 
ATOM     32  C   UNL     1      -5.722  12.517  16.916  0.00  0.00    +0.000 A 
ENDBRANCH  26  27
ENDBRANCH  25  26
ENDBRANCH  24  25
ENDBRANCH   4  24
TORSDOF 9
ENDMDL
MODEL 9
REMARK VINA RESULT:      -7.5      0.954      1.843
REMARK  Name = 
REMARK  12 active torsions:
REMARK  status: ('A' for Active; 'I' for Inactive)
REMARK    1  A    between atoms: C_1  and  O_2
REMARK    2  A    between atoms: O_2  and  C_3
REMARK    3  A    between atoms: C_6  and  N_7
REMARK    4  A    between atoms: C_10  and  C_11
REMARK    5  A    between atoms: C_11  and  C_12
REMARK    6  A    between atoms: C_12  and  C_13
REMARK    7  A    between atoms: C_13  and  C_14
REMARK    8  A    between atoms: C_20  and  C_21
REMARK    9  A    between atoms: C_24  and  O_25
REMARK   10  A    between atoms: O_25  and  C_26
REMARK   11  A    between atoms: C_27  and  O_28
REMARK   12  A    between atoms: O_28  and  C_29
REMARK                            x       y       z     vdW  Elec       q    Type
REMARK                         _______ _______ _______ _____ _____    ______ ____
ROOT
ATOM      1  N   UNL     1      -0.604  11.901  22.181  0.00  0.00    +0.000 N 
ATOM      2  C   UNL     1      -0.084  10.691  22.524  0.00  0.00    +0.000 C 
ATOM      3  O   UNL     1      -0.085  10.031  23.532  0.00  0.00    +0.000 OA
ATOM      4  C   UNL     1       0.499  10.487  21.125  0.00  0.00    +0.000 C 
ATOM      5  C   UNL     1      -0.318  11.777  20.740  0.00  0.00    +0.000 C 
ENDROOT
BRANCH   1   9
ATOM      6  C   UNL     1      -2.971  14.571  24.433  0.00  0.00    +0.000 A 
ATOM      7  C   UNL     1      -1.718  14.944  23.957  0.00  0.00    +0.000 A 
ATOM      8  C   UNL     1      -0.962  14.060  23.189  0.00  0.00    +0.000 A 
ATOM      9  C   UNL     1      -1.423  12.771  22.902  0.00  0.00    +0.000 A 
ATOM     10  C   UNL     1      -2.685  12.401  23.379  0.00  0.00    +0.000 A 
ATOM     11  C   UNL     1      -3.452  13.298  24.152  0.00  0.00    +0.000 A 
BRANCH   6  13
ATOM     12  C   UNL     1      -4.560  16.318  24.520  0.00  0.00    +0.000 C 
ATOM     13  O   UNL     1      -3.596  15.520  25.191  0.00  0.00    +0.000 OA
ENDBRANCH   6  13
ENDBRANCH   1   9
BRANCH   5  14
ATOM     14  C   UNL     1      -1.577  11.616  19.789  0.00  0.00    +0.000 A 
ATOM     15  C   UNL     1      -2.781  12.301  19.998  0.00  0.00    +0.000 A 
ATOM     16  C   UNL     1      -3.881  12.094  19.165  0.00  0.00    +0.000 A 
ATOM     17  C   UNL     1      -3.809  11.218  18.074  0.00  0.00    +0.000 A 
ATOM     18  C   UNL     1      -2.619  10.523  17.824  0.00  0.00    +0.000 A 
ATOM     19  C   UNL     1      -1.537  10.740  18.681  0.00  0.00    +0.000 A 
BRANCH  17  20
ATOM     20  O   UNL     1      -4.992  11.104  17.391  0.00  0.00    +0.000 OA
ATOM     21  C   UNL     1      -6.174  11.064  18.180  0.00  0.00    +0.000 C 
ENDBRANCH  17  20
BRANCH  18  22
ATOM     22  O   UNL     1      -2.566   9.635  16.783  0.00  0.00    +0.000 OA
ATOM     23  C   UNL     1      -2.620  10.154  15.458  0.00  0.00    +0.000 C 
ENDBRANCH  18  22
ENDBRANCH   5  14
BRANCH   4  24
ATOM     24  C   UNL     1       0.210   9.135  20.479  0.00  0.00    +0.000 C 
BRANCH  24  25
ATOM     25  C   UNL     1       1.231   8.087  20.919  0.00  0.00    +0.000 C 
BRANCH  25  26
ATOM     26  C   UNL     1       2.131   7.628  19.766  0.00  0.00    +0.000 C 
BRANCH  26  27
ATOM     27  C   UNL     1       1.981   6.150  19.536  0.00  0.00    +0.000 A 
ATOM     28  C   UNL     1       2.177   5.614  18.257  0.00  0.00    +0.000 A 
ATOM     29  C   UNL     1       1.934   4.262  18.017  0.00  0.00    +0.000 A 
ATOM     30  C   UNL     1       1.504   3.440  19.057  0.00  0.00    +0.000 A 
ATOM     31  C   UNL     1       1.337   3.961  20.339  0.00  0.00    +0.000 A 
ATOM     32  C   UNL     1       1.573   5.313  20.579  0.00  0.00    +0.000 A 
ENDBRANCH  26  27
ENDBRANCH  25  26
ENDBRANCH  24  25
ENDBRANCH   4  24
TORSDOF 9
ENDMDL
