MODEL 1
REMARK VINA RESULT:      -7.3      0.000      0.000
REMARK  Name = 
REMARK  9 active torsions:
REMARK  status: ('A' for Active; 'I' for Inactive)
REMARK    1  A    between atoms: C_1  and  C_2
REMARK    2  A    between atoms: C_7  and  C_8
REMARK    3  A    between atoms: C_8  and  C_13
REMARK    4  A    between atoms: C_9  and  C_10
REMARK    5  A    between atoms: C_10  and  O_12
REMARK    6  A    between atoms: C_19  and  O_20
REMARK    7  A    between atoms: C_24  and  C_25
REMARK    8  A    between atoms: C_27  and  C_28
REMARK    9  A    between atoms: C_27  and  C_29
REMARK                            x       y       z     vdW  Elec       q    Type
REMARK                         _______ _______ _______ _____ _____    ______ ____
ROOT
ATOM      1  C   UNL     1       1.242  11.647  20.628  0.00  0.00    +0.000 C 
ATOM      2  C   UNL     1      -0.191  11.251  20.257  0.00  0.00    +0.000 C 
ATOM      3  O   UNL     1      -1.012  12.326  20.734  0.00  0.00    +0.000 OA
ATOM      4  C   UNL     1      -2.311  12.364  20.297  0.00  0.00    +0.000 A 
ATOM      5  C   UNL     1      -3.215  13.137  21.052  0.00  0.00    +0.000 A 
ATOM      6  C   UNL     1      -4.559  13.262  20.641  0.00  0.00    +0.000 A 
ATOM      7  C   UNL     1      -4.995  12.697  19.422  0.00  0.00    +0.000 A 
ATOM      8  C   UNL     1      -4.062  11.942  18.677  0.00  0.00    +0.000 A 
ATOM      9  C   UNL     1      -2.753  11.721  19.142  0.00  0.00    +0.000 A 
ATOM     10  C   UNL     1      -1.807  10.812  18.454  0.00  0.00    +0.000 C 
ATOM     11  O   UNL     1      -2.194   9.935  17.690  0.00  0.00    +0.000 OA
ATOM     12  C   UNL     1      -0.338  11.028  18.753  0.00  0.00    +0.000 C 
ATOM     13  C   UNL     1       0.483   9.832  18.261  0.00  0.00    +0.000 C 
ATOM     14  O   UNL     1      -5.479  13.954  21.401  0.00  0.00    +0.000 OA
ATOM     15  C   UNL     1      -5.197  14.076  22.818  0.00  0.00    +0.000 C 
ATOM     16  C   UNL     1      -5.917  15.342  23.297  0.00  0.00    +0.000 C 
ATOM     17  C   UNL     1      -5.787  12.855  23.538  0.00  0.00    +0.000 C 
ATOM     18  C   UNL     1      -3.730  14.210  23.134  0.00  0.00    +0.000 C 
ATOM     19  C   UNL     1      -2.785  13.787  22.290  0.00  0.00    +0.000 C 
ENDROOT
BRANCH   7  20
ATOM     20  C   UNL     1      -6.421  12.785  18.983  0.00  0.00    +0.000 C 
ATOM     21  C   UNL     1      -7.387  11.890  19.280  0.00  0.00    +0.000 C 
BRANCH  20  22
ATOM     22  C   UNL     1      -6.936  13.962  18.237  0.00  0.00    +0.000 A 
ATOM     23  C   UNL     1      -6.913  13.961  16.834  0.00  0.00    +0.000 A 
ATOM     24  C   UNL     1      -7.344  15.076  16.116  0.00  0.00    +0.000 A 
ATOM     25  C   UNL     1      -7.796  16.205  16.794  0.00  0.00    +0.000 A 
ATOM     26  C   UNL     1      -7.808  16.222  18.189  0.00  0.00    +0.000 A 
ATOM     27  C   UNL     1      -7.376  15.106  18.912  0.00  0.00    +0.000 A 
ENDBRANCH  20  22
BRANCH  21  28
ATOM     28  C   UNL     1      -7.359  10.679  20.105  0.00  0.00    +0.000 C 
ATOM     29  O   UNL     1      -7.187  10.681  21.312  0.00  0.00    +0.000 OA
BRANCH  28  30
ATOM     30  O   UNL     1      -7.375   9.538  19.405  0.00  0.00    +0.000 OA
ATOM     31  H   UNL     1      -6.988   8.891  20.031  0.00  0.00    +0.000 HD
ENDBRANCH  28  30
ENDBRANCH  21  28
ENDBRANCH   7  20
BRANCH   8  32
ATOM     32  O   UNL     1      -4.408  11.453  17.444  0.00  0.00    +0.000 OA
ATOM     33  H   UNL     1      -4.074  12.067  16.769  0.00  0.00    +0.000 HD
ENDBRANCH   8  32
TORSDOF 5
ENDMDL
MODEL 2
REMARK VINA RESULT:      -7.2      2.817      7.876
REMARK  Name = 
REMARK  9 active torsions:
REMARK  status: ('A' for Active; 'I' for Inactive)
REMARK    1  A    between atoms: C_1  and  C_2
REMARK    2  A    between atoms: C_7  and  C_8
REMARK    3  A    between atoms: C_8  and  C_13
REMARK    4  A    between atoms: C_9  and  C_10
REMARK    5  A    between atoms: C_10  and  O_12
REMARK    6  A    between atoms: C_19  and  O_20
REMARK    7  A    between atoms: C_24  and  C_25
REMARK    8  A    between atoms: C_27  and  C_28
REMARK    9  A    between atoms: C_27  and  C_29
REMARK                            x       y       z     vdW  Elec       q    Type
REMARK                         _______ _______ _______ _____ _____    ______ ____
ROOT
ATOM      1  C   UNL     1      -5.503  14.419  22.762  0.00  0.00    +0.000 C 
ATOM      2  C   UNL     1      -4.233  13.584  22.575  0.00  0.00    +0.000 C 
ATOM      3  O   UNL     1      -4.081  13.444  21.156  0.00  0.00    +0.000 OA
ATOM      4  C   UNL     1      -2.879  12.973  20.697  0.00  0.00    +0.000 A 
ATOM      5  C   UNL     1      -2.856  12.451  19.389  0.00  0.00    +0.000 A 
ATOM      6  C   UNL     1      -1.646  11.988  18.829  0.00  0.00    +0.000 A 
ATOM      7  C   UNL     1      -0.428  12.128  19.530  0.00  0.00    +0.000 A 
ATOM      8  C   UNL     1      -0.479  12.671  20.834  0.00  0.00    +0.000 A 
ATOM      9  C   UNL     1      -1.699  13.027  21.437  0.00  0.00    +0.000 A 
ATOM     10  C   UNL     1      -1.791  13.457  22.851  0.00  0.00    +0.000 C 
ATOM     11  O   UNL     1      -0.919  13.180  23.669  0.00  0.00    +0.000 OA
ATOM     12  C   UNL     1      -3.023  14.252  23.228  0.00  0.00    +0.000 C 
ATOM     13  C   UNL     1      -3.157  14.331  24.751  0.00  0.00    +0.000 C 
ATOM     14  O   UNL     1      -1.612  11.407  17.578  0.00  0.00    +0.000 OA
ATOM     15  C   UNL     1      -2.843  10.810  17.100  0.00  0.00    +0.000 C 
ATOM     16  C   UNL     1      -2.774  10.837  15.568  0.00  0.00    +0.000 C 
ATOM     17  C   UNL     1      -2.895   9.352  17.578  0.00  0.00    +0.000 C 
ATOM     18  C   UNL     1      -4.083  11.548  17.537  0.00  0.00    +0.000 C 
ATOM     19  C   UNL     1      -4.089  12.345  18.608  0.00  0.00    +0.000 C 
ENDROOT
BRANCH   7  20
ATOM     20  C   UNL     1       0.860  11.612  18.974  0.00  0.00    +0.000 C 
ATOM     21  C   UNL     1       1.847  12.372  18.454  0.00  0.00    +0.000 C 
BRANCH  20  22
ATOM     22  C   UNL     1       1.218  10.172  19.043  0.00  0.00    +0.000 A 
ATOM     23  C   UNL     1       1.152   9.496  20.271  0.00  0.00    +0.000 A 
ATOM     24  C   UNL     1       1.532   8.158  20.367  0.00  0.00    +0.000 A 
ATOM     25  C   UNL     1       1.988   7.484  19.237  0.00  0.00    +0.000 A 
ATOM     26  C   UNL     1       2.072   8.151  18.014  0.00  0.00    +0.000 A 
ATOM     27  C   UNL     1       1.691   9.493  17.915  0.00  0.00    +0.000 A 
ENDBRANCH  20  22
BRANCH  21  28
ATOM     28  C   UNL     1       1.980  13.827  18.330  0.00  0.00    +0.000 C 
ATOM     29  O   UNL     1       1.220  14.627  18.846  0.00  0.00    +0.000 OA
BRANCH  28  30
ATOM     30  O   UNL     1       2.920  14.219  17.461  0.00  0.00    +0.000 OA
ATOM     31  H   UNL     1       3.162  13.384  17.007  0.00  0.00    +0.000 HD
ENDBRANCH  28  30
ENDBRANCH  21  28
ENDBRANCH   7  20
BRANCH   8  32
ATOM     32  O   UNL     1       0.683  12.913  21.518  0.00  0.00    +0.000 OA
ATOM     33  H   UNL     1       0.567  12.606  22.433  0.00  0.00    +0.000 HD
ENDBRANCH   8  32
TORSDOF 5
ENDMDL
MODEL 3
REMARK VINA RESULT:      -7.2      3.489      6.769
REMARK  Name = 
REMARK  9 active torsions:
REMARK  status: ('A' for Active; 'I' for Inactive)
REMARK    1  A    between atoms: C_1  and  C_2
REMARK    2  A    between atoms: C_7  and  C_8
REMARK    3  A    between atoms: C_8  and  C_13
REMARK    4  A    between atoms: C_9  and  C_10
REMARK    5  A    between atoms: C_10  and  O_12
REMARK    6  A    between atoms: C_19  and  O_20
REMARK    7  A    between atoms: C_24  and  C_25
REMARK    8  A    between atoms: C_27  and  C_28
REMARK    9  A    between atoms: C_27  and  C_29
REMARK                            x       y       z     vdW  Elec       q    Type
REMARK                         _______ _______ _______ _____ _____    ______ ____
ROOT
ATOM      1  C   UNL     1       1.877  18.358  19.937  0.00  0.00    +0.000 C 
ATOM      2  C   UNL     1       2.005  16.832  19.902  0.00  0.00    +0.000 C 
ATOM      3  O   UNL     1       0.661  16.341  19.989  0.00  0.00    +0.000 OA
ATOM      4  C   UNL     1       0.457  15.015  19.707  0.00  0.00    +0.000 A 
ATOM      5  C   UNL     1      -0.740  14.439  20.178  0.00  0.00    +0.000 A 
ATOM      6  C   UNL     1      -1.042  13.092  19.889  0.00  0.00    +0.000 A 
ATOM      7  C   UNL     1      -0.201  12.330  19.048  0.00  0.00    +0.000 A 
ATOM      8  C   UNL     1       0.984  12.938  18.577  0.00  0.00    +0.000 A 
ATOM      9  C   UNL     1       1.343  14.244  18.957  0.00  0.00    +0.000 A 
ATOM     10  C   UNL     1       2.648  14.847  18.597  0.00  0.00    +0.000 C 
ATOM     11  O   UNL     1       3.615  14.158  18.291  0.00  0.00    +0.000 OA
ATOM     12  C   UNL     1       2.717  16.358  18.635  0.00  0.00    +0.000 C 
ATOM     13  C   UNL     1       4.176  16.822  18.583  0.00  0.00    +0.000 C 
ATOM     14  O   UNL     1      -2.172  12.486  20.398  0.00  0.00    +0.000 OA
ATOM     15  C   UNL     1      -2.727  13.052  21.611  0.00  0.00    +0.000 C 
ATOM     16  C   UNL     1      -4.219  12.697  21.614  0.00  0.00    +0.000 C 
ATOM     17  C   UNL     1      -2.046  12.386  22.815  0.00  0.00    +0.000 C 
ATOM     18  C   UNL     1      -2.591  14.550  21.697  0.00  0.00    +0.000 C 
ATOM     19  C   UNL     1      -1.665  15.216  21.003  0.00  0.00    +0.000 C 
ENDROOT
BRANCH   7  20
ATOM     20  C   UNL     1      -0.480  10.890  18.756  0.00  0.00    +0.000 C 
ATOM     21  C   UNL     1      -1.435  10.432  17.919  0.00  0.00    +0.000 C 
BRANCH  20  22
ATOM     22  C   UNL     1       0.370   9.804  19.310  0.00  0.00    +0.000 A 
ATOM     23  C   UNL     1       1.267   9.127  18.472  0.00  0.00    +0.000 A 
ATOM     24  C   UNL     1       2.037   8.071  18.959  0.00  0.00    +0.000 A 
ATOM     25  C   UNL     1       1.911   7.678  20.288  0.00  0.00    +0.000 A 
ATOM     26  C   UNL     1       1.010   8.334  21.127  0.00  0.00    +0.000 A 
ATOM     27  C   UNL     1       0.237   9.393  20.641  0.00  0.00    +0.000 A 
ENDBRANCH  20  22
BRANCH  21  28
ATOM     28  C   UNL     1      -2.384  11.144  17.058  0.00  0.00    +0.000 C 
ATOM     29  O   UNL     1      -2.348  11.123  15.841  0.00  0.00    +0.000 OA
BRANCH  28  30
ATOM     30  O   UNL     1      -3.212  11.964  17.717  0.00  0.00    +0.000 OA
ATOM     31  H   UNL     1      -2.704  12.186  18.526  0.00  0.00    +0.000 HD
ENDBRANCH  28  30
ENDBRANCH  21  28
ENDBRANCH   7  20
BRANCH   8  32
ATOM     32  O   UNL     1       1.785  12.275  17.684  0.00  0.00    +0.000 OA
ATOM     33  H   UNL     1       1.800  11.334  17.930  0.00  0.00    +0.000 HD
ENDBRANCH   8  32
TORSDOF 5
ENDMDL
MODEL 4
REMARK VINA RESULT:      -7.1      2.427      7.604
REMARK  Name = 
REMARK  9 active torsions:
REMARK  status: ('A' for Active; 'I' for Inactive)
REMARK    1  A    between atoms: C_1  and  C_2
REMARK    2  A    between atoms: C_7  and  C_8
REMARK    3  A    between atoms: C_8  and  C_13
REMARK    4  A    between atoms: C_9  and  C_10
REMARK    5  A    between atoms: C_10  and  O_12
REMARK    6  A    between atoms: C_19  and  O_20
REMARK    7  A    between atoms: C_24  and  C_25
REMARK    8  A    between atoms: C_27  and  C_28
REMARK    9  A    between atoms: C_27  and  C_29
REMARK                            x       y       z     vdW  Elec       q    Type
REMARK                         _______ _______ _______ _____ _____    ______ ____
ROOT
ATOM      1  C   UNL     1      -7.393  13.098  22.149  0.00  0.00    +0.000 C 
ATOM      2  C   UNL     1      -5.974  12.523  22.111  0.00  0.00    +0.000 C 
ATOM      3  O   UNL     1      -5.572  12.605  20.737  0.00  0.00    +0.000 OA
ATOM      4  C   UNL     1      -4.245  12.410  20.458  0.00  0.00    +0.000 A 
ATOM      5  C   UNL     1      -3.914  12.082  19.128  0.00  0.00    +0.000 A 
ATOM      6  C   UNL     1      -2.564  11.910  18.753  0.00  0.00    +0.000 A 
ATOM      7  C   UNL     1      -1.524  12.156  19.676  0.00  0.00    +0.000 A 
ATOM      8  C   UNL     1      -1.885  12.500  20.998  0.00  0.00    +0.000 A 
ATOM      9  C   UNL     1      -3.231  12.560  21.403  0.00  0.00    +0.000 A 
ATOM     10  C   UNL     1      -3.629  12.772  22.813  0.00  0.00    +0.000 C 
ATOM     11  O   UNL     1      -2.864  12.537  23.743  0.00  0.00    +0.000 OA
ATOM     12  C   UNL     1      -5.033  13.289  23.040  0.00  0.00    +0.000 C 
ATOM     13  C   UNL     1      -5.422  13.136  24.513  0.00  0.00    +0.000 C 
ATOM     14  O   UNL     1      -2.220  11.519  17.476  0.00  0.00    +0.000 OA
ATOM     15  C   UNL     1      -3.223  10.795  16.721  0.00  0.00    +0.000 C 
ATOM     16  C   UNL     1      -2.915  11.041  15.239  0.00  0.00    +0.000 C 
ATOM     17  C   UNL     1      -3.074   9.297  17.026  0.00  0.00    +0.000 C 
ATOM     18  C   UNL     1      -4.633  11.246  16.999  0.00  0.00    +0.000 C 
ATOM     19  C   UNL     1      -4.963  11.877  18.129  0.00  0.00    +0.000 C 
ENDROOT
BRANCH   7  20
ATOM     20  C   UNL     1      -0.089  11.945  19.314  0.00  0.00    +0.000 C 
ATOM     21  C   UNL     1       0.795  12.922  19.018  0.00  0.00    +0.000 C 
BRANCH  20  22
ATOM     22  C   UNL     1       0.534  10.597  19.348  0.00  0.00    +0.000 A 
ATOM     23  C   UNL     1       0.526   9.857  20.540  0.00  0.00    +0.000 A 
ATOM     24  C   UNL     1       1.149   8.611  20.607  0.00  0.00    +0.000 A 
ATOM     25  C   UNL     1       1.792   8.096  19.485  0.00  0.00    +0.000 A 
ATOM     26  C   UNL     1       1.819   8.831  18.299  0.00  0.00    +0.000 A 
ATOM     27  C   UNL     1       1.195  10.080  18.229  0.00  0.00    +0.000 A 
ENDBRANCH  20  22
BRANCH  21  28
ATOM     28  C   UNL     1       0.653  14.381  19.014  0.00  0.00    +0.000 C 
ATOM     29  O   UNL     1       1.335  15.134  19.686  0.00  0.00    +0.000 OA
BRANCH  28  30
ATOM     30  O   UNL     1      -0.406  14.826  18.327  0.00  0.00    +0.000 OA
ATOM     31  H   UNL     1      -0.364  15.796  18.462  0.00  0.00    +0.000 HD
ENDBRANCH  28  30
ENDBRANCH  21  28
ENDBRANCH   7  20
BRANCH   8  32
ATOM     32  O   UNL     1      -0.915  12.839  21.905  0.00  0.00    +0.000 OA
ATOM     33  H   UNL     1      -1.071  12.334  22.721  0.00  0.00    +0.000 HD
ENDBRANCH   8  32
TORSDOF 5
ENDMDL
MODEL 5
REMARK VINA RESULT:      -7.1      2.681      7.704
REMARK  Name = 
REMARK  9 active torsions:
REMARK  status: ('A' for Active; 'I' for Inactive)
REMARK    1  A    between atoms: C_1  and  C_2
REMARK    2  A    between atoms: C_7  and  C_8
REMARK    3  A    between atoms: C_8  and  C_13
REMARK    4  A    between atoms: C_9  and  C_10
REMARK    5  A    between atoms: C_10  and  O_12
REMARK    6  A    between atoms: C_19  and  O_20
REMARK    7  A    between atoms: C_24  and  C_25
REMARK    8  A    between atoms: C_27  and  C_28
REMARK    9  A    between atoms: C_27  and  C_29
REMARK                            x       y       z     vdW  Elec       q    Type
REMARK                         _______ _______ _______ _____ _____    ______ ____
ROOT
ATOM      1  C   UNL     1      -6.111  13.566  23.020  0.00  0.00    +0.000 C 
ATOM      2  C   UNL     1      -4.753  12.900  22.777  0.00  0.00    +0.000 C 
ATOM      3  O   UNL     1      -4.570  12.931  21.355  0.00  0.00    +0.000 OA
ATOM      4  C   UNL     1      -3.318  12.645  20.877  0.00  0.00    +0.000 A 
ATOM      5  C   UNL     1      -3.221  12.272  19.522  0.00  0.00    +0.000 A 
ATOM      6  C   UNL     1      -1.961  12.007  18.945  0.00  0.00    +0.000 A 
ATOM      7  C   UNL     1      -0.775  12.202  19.686  0.00  0.00    +0.000 A 
ATOM      8  C   UNL     1      -0.901  12.594  21.038  0.00  0.00    +0.000 A 
ATOM      9  C   UNL     1      -2.159  12.748  21.646  0.00  0.00    +0.000 A 
ATOM     10  C   UNL     1      -2.315  13.012  23.095  0.00  0.00    +0.000 C 
ATOM     11  O   UNL     1      -1.428  12.745  23.900  0.00  0.00    +0.000 OA
ATOM     12  C   UNL     1      -3.633  13.622  23.524  0.00  0.00    +0.000 C 
ATOM     13  C   UNL     1      -3.792  13.522  25.044  0.00  0.00    +0.000 C 
ATOM     14  O   UNL     1      -1.848  11.570  17.642  0.00  0.00    +0.000 OA
ATOM     15  C   UNL     1      -2.999  10.897  17.075  0.00  0.00    +0.000 C 
ATOM     16  C   UNL     1      -2.916  11.096  15.556  0.00  0.00    +0.000 C 
ATOM     17  C   UNL     1      -2.895   9.400  17.395  0.00  0.00    +0.000 C 
ATOM     18  C   UNL     1      -4.318  11.444  17.557  0.00  0.00    +0.000 C 
ATOM     19  C   UNL     1      -4.426  12.116  18.706  0.00  0.00    +0.000 C 
ENDROOT
BRANCH   7  20
ATOM     20  C   UNL     1       0.570  11.893  19.109  0.00  0.00    +0.000 C 
ATOM     21  C   UNL     1       1.450  12.806  18.646  0.00  0.00    +0.000 C 
BRANCH  20  22
ATOM     22  C   UNL     1       1.109  10.509  19.089  0.00  0.00    +0.000 A 
ATOM     23  C   UNL     1       1.688  10.005  17.915  0.00  0.00    +0.000 A 
ATOM     24  C   UNL     1       2.155   8.692  17.859  0.00  0.00    +0.000 A 
ATOM     25  C   UNL     1       2.041   7.868  18.976  0.00  0.00    +0.000 A 
ATOM     26  C   UNL     1       1.453   8.355  20.144  0.00  0.00    +0.000 A 
ATOM     27  C   UNL     1       0.984   9.671  20.203  0.00  0.00    +0.000 A 
ENDBRANCH  20  22
BRANCH  21  28
ATOM     28  C   UNL     1       1.395  14.270  18.616  0.00  0.00    +0.000 C 
ATOM     29  O   UNL     1       0.377  14.910  18.421  0.00  0.00    +0.000 OA
BRANCH  28  30
ATOM     30  O   UNL     1       2.594  14.864  18.660  0.00  0.00    +0.000 OA
ATOM     31  H   UNL     1       3.141  14.298  18.076  0.00  0.00    +0.000 HD
ENDBRANCH  28  30
ENDBRANCH  21  28
ENDBRANCH   7  20
BRANCH   8  32
ATOM     32  O   UNL     1       0.219  12.887  21.771  0.00  0.00    +0.000 OA
ATOM     33  H   UNL     1       0.803  13.443  21.226  0.00  0.00    +0.000 HD
ENDBRANCH   8  32
TORSDOF 5
ENDMDL
MODEL 6
REMARK VINA RESULT:      -6.8      4.208      6.767
REMARK  Name = 
REMARK  9 active torsions:
REMARK  status: ('A' for Active; 'I' for Inactive)
REMARK    1  A    between atoms: C_1  and  C_2
REMARK    2  A    between atoms: C_7  and  C_8
REMARK    3  A    between atoms: C_8  and  C_13
REMARK    4  A    between atoms: C_9  and  C_10
REMARK    5  A    between atoms: C_10  and  O_12
REMARK    6  A    between atoms: C_19  and  O_20
REMARK    7  A    between atoms: C_24  and  C_25
REMARK    8  A    between atoms: C_27  and  C_28
REMARK    9  A    between atoms: C_27  and  C_29
REMARK                            x       y       z     vdW  Elec       q    Type
REMARK                         _______ _______ _______ _____ _____    ______ ____
ROOT
ATOM      1  C   UNL     1       2.169   5.339  21.164  0.00  0.00    +0.000 C 
ATOM      2  C   UNL     1       1.654   6.435  20.226  0.00  0.00    +0.000 C 
ATOM      3  O   UNL     1       1.448   7.580  21.065  0.00  0.00    +0.000 OA
ATOM      4  C   UNL     1       1.248   8.785  20.443  0.00  0.00    +0.000 A 
ATOM      5  C   UNL     1       0.649   9.805  21.208  0.00  0.00    +0.000 A 
ATOM      6  C   UNL     1       0.451  11.087  20.653  0.00  0.00    +0.000 A 
ATOM      7  C   UNL     1       0.933  11.395  19.361  0.00  0.00    +0.000 A 
ATOM      8  C   UNL     1       1.545  10.357  18.624  0.00  0.00    +0.000 A 
ATOM      9  C   UNL     1       1.641   9.049  19.132  0.00  0.00    +0.000 A 
ATOM     10  C   UNL     1       2.142   7.915  18.321  0.00  0.00    +0.000 C 
ATOM     11  O   UNL     1       2.146   7.949  17.095  0.00  0.00    +0.000 OA
ATOM     12  C   UNL     1       2.642   6.712  19.093  0.00  0.00    +0.000 C 
ATOM     13  C   UNL     1       2.801   5.511  18.157  0.00  0.00    +0.000 C 
ATOM     14  O   UNL     1      -0.197  12.080  21.357  0.00  0.00    +0.000 OA
ATOM     15  C   UNL     1      -1.108  11.654  22.401  0.00  0.00    +0.000 C 
ATOM     16  C   UNL     1      -1.181  12.806  23.412  0.00  0.00    +0.000 C 
ATOM     17  C   UNL     1      -2.495  11.439  21.779  0.00  0.00    +0.000 C 
ATOM     18  C   UNL     1      -0.661  10.410  23.124  0.00  0.00    +0.000 C 
ATOM     19  C   UNL     1       0.190   9.541  22.572  0.00  0.00    +0.000 C 
ENDROOT
BRANCH   7  20
ATOM     20  C   UNL     1       0.704  12.733  18.737  0.00  0.00    +0.000 C 
ATOM     21  C   UNL     1      -0.407  13.103  18.064  0.00  0.00    +0.000 C 
BRANCH  20  22
ATOM     22  C   UNL     1       1.677  13.845  18.897  0.00  0.00    +0.000 A 
ATOM     23  C   UNL     1       1.430  14.856  19.837  0.00  0.00    +0.000 A 
ATOM     24  C   UNL     1       2.304  15.935  19.968  0.00  0.00    +0.000 A 
ATOM     25  C   UNL     1       3.430  16.016  19.153  0.00  0.00    +0.000 A 
ATOM     26  C   UNL     1       3.677  15.024  18.204  0.00  0.00    +0.000 A 
ATOM     27  C   UNL     1       2.802  13.941  18.071  0.00  0.00    +0.000 A 
ENDBRANCH  20  22
BRANCH  21  28
ATOM     28  C   UNL     1      -1.659  12.386  17.804  0.00  0.00    +0.000 C 
ATOM     29  O   UNL     1      -2.449  12.058  18.671  0.00  0.00    +0.000 OA
BRANCH  28  30
ATOM     30  O   UNL     1      -1.798  11.969  16.540  0.00  0.00    +0.000 OA
ATOM     31  H   UNL     1      -0.871  11.881  16.234  0.00  0.00    +0.000 HD
ENDBRANCH  28  30
ENDBRANCH  21  28
ENDBRANCH   7  20
BRANCH   8  32
ATOM     32  O   UNL     1       2.112  10.627  17.406  0.00  0.00    +0.000 OA
ATOM     33  H   UNL     1       2.769  11.334  17.526  0.00  0.00    +0.000 HD
ENDBRANCH   8  32
TORSDOF 5
ENDMDL
MODEL 7
REMARK VINA RESULT:      -6.7      4.065      7.173
REMARK  Name = 
REMARK  9 active torsions:
REMARK  status: ('A' for Active; 'I' for Inactive)
REMARK    1  A    between atoms: C_1  and  C_2
REMARK    2  A    between atoms: C_7  and  C_8
REMARK    3  A    between atoms: C_8  and  C_13
REMARK    4  A    between atoms: C_9  and  C_10
REMARK    5  A    between atoms: C_10  and  O_12
REMARK    6  A    between atoms: C_19  and  O_20
REMARK    7  A    between atoms: C_24  and  C_25
REMARK    8  A    between atoms: C_27  and  C_28
REMARK    9  A    between atoms: C_27  and  C_29
REMARK                            x       y       z     vdW  Elec       q    Type
REMARK                         _______ _______ _______ _____ _____    ______ ____
ROOT
ATOM      1  C   UNL     1      -0.459  17.685  25.085  0.00  0.00    +0.000 C 
ATOM      2  C   UNL     1      -1.047  16.555  24.235  0.00  0.00    +0.000 C 
ATOM      3  O   UNL     1       0.061  16.029  23.492  0.00  0.00    +0.000 OA
ATOM      4  C   UNL     1      -0.123  14.831  22.852  0.00  0.00    +0.000 A 
ATOM      5  C   UNL     1       0.776  14.517  21.814  0.00  0.00    +0.000 A 
ATOM      6  C   UNL     1       0.679  13.282  21.138  0.00  0.00    +0.000 A 
ATOM      7  C   UNL     1      -0.255  12.307  21.553  0.00  0.00    +0.000 A 
ATOM      8  C   UNL     1      -1.133  12.643  22.608  0.00  0.00    +0.000 A 
ATOM      9  C   UNL     1      -1.113  13.915  23.206  0.00  0.00    +0.000 A 
ATOM     10  C   UNL     1      -2.118  14.339  24.208  0.00  0.00    +0.000 C 
ATOM     11  O   UNL     1      -3.209  13.787  24.302  0.00  0.00    +0.000 OA
ATOM     12  C   UNL     1      -1.721  15.494  25.104  0.00  0.00    +0.000 C 
ATOM     13  C   UNL     1      -2.949  16.041  25.837  0.00  0.00    +0.000 C 
ATOM     14  O   UNL     1       1.501  12.982  20.073  0.00  0.00    +0.000 OA
ATOM     15  C   UNL     1       2.062  14.102  19.344  0.00  0.00    +0.000 C 
ATOM     16  C   UNL     1       3.361  13.598  18.703  0.00  0.00    +0.000 C 
ATOM     17  C   UNL     1       1.076  14.506  18.238  0.00  0.00    +0.000 C 
ATOM     18  C   UNL     1       2.386  15.289  20.214  0.00  0.00    +0.000 C 
ATOM     19  C   UNL     1       1.796  15.479  21.397  0.00  0.00    +0.000 C 
ENDROOT
BRANCH   7  20
ATOM     20  C   UNL     1      -0.403  11.006  20.830  0.00  0.00    +0.000 C 
ATOM     21  C   UNL     1       0.039   9.810  21.275  0.00  0.00    +0.000 C 
BRANCH  20  22
ATOM     22  C   UNL     1      -1.167  10.902  19.560  0.00  0.00    +0.000 A 
ATOM     23  C   UNL     1      -0.739  10.014  18.562  0.00  0.00    +0.000 A 
ATOM     24  C   UNL     1      -1.412   9.938  17.343  0.00  0.00    +0.000 A 
ATOM     25  C   UNL     1      -2.515  10.755  17.107  0.00  0.00    +0.000 A 
ATOM     26  C   UNL     1      -2.939  11.653  18.088  0.00  0.00    +0.000 A 
ATOM     27  C   UNL     1      -2.266  11.731  19.311  0.00  0.00    +0.000 A 
ENDBRANCH  20  22
BRANCH  21  28
ATOM     28  C   UNL     1       0.699   9.431  22.527  0.00  0.00    +0.000 C 
ATOM     29  O   UNL     1       0.269   9.704  23.634  0.00  0.00    +0.000 OA
BRANCH  28  30
ATOM     30  O   UNL     1       1.914   8.894  22.365  0.00  0.00    +0.000 OA
ATOM     31  H   UNL     1       2.469   9.411  22.986  0.00  0.00    +0.000 HD
ENDBRANCH  28  30
ENDBRANCH  21  28
ENDBRANCH   7  20
BRANCH   8  32
ATOM     32  O   UNL     1      -1.992  11.700  23.108  0.00  0.00    +0.000 OA
ATOM     33  H   UNL     1      -2.514  11.341  22.370  0.00  0.00    +0.000 HD
ENDBRANCH   8  32
TORSDOF 5
ENDMDL
MODEL 8
REMARK VINA RESULT:      -6.7      3.373      5.537
REMARK  Name = 
REMARK  9 active torsions:
REMARK  status: ('A' for Active; 'I' for Inactive)
REMARK    1  A    between atoms: C_1  and  C_2
REMARK    2  A    between atoms: C_7  and  C_8
REMARK    3  A    between atoms: C_8  and  C_13
REMARK    4  A    between atoms: C_9  and  C_10
REMARK    5  A    between atoms: C_10  and  O_12
REMARK    6  A    between atoms: C_19  and  O_20
REMARK    7  A    between atoms: C_24  and  C_25
REMARK    8  A    between atoms: C_27  and  C_28
REMARK    9  A    between atoms: C_27  and  C_29
REMARK                            x       y       z     vdW  Elec       q    Type
REMARK                         _______ _______ _______ _____ _____    ______ ____
ROOT
ATOM      1  C   UNL     1       2.279  18.009  20.746  0.00  0.00    +0.000 C 
ATOM      2  C   UNL     1       2.201  16.494  20.538  0.00  0.00    +0.000 C 
ATOM      3  O   UNL     1       0.812  16.166  20.684  0.00  0.00    +0.000 OA
ATOM      4  C   UNL     1       0.416  14.918  20.281  0.00  0.00    +0.000 A 
ATOM      5  C   UNL     1      -0.811  14.444  20.784  0.00  0.00    +0.000 A 
ATOM      6  C   UNL     1      -1.309  13.187  20.379  0.00  0.00    +0.000 A 
ATOM      7  C   UNL     1      -0.636  12.430  19.395  0.00  0.00    +0.000 A 
ATOM      8  C   UNL     1       0.584  12.937  18.895  0.00  0.00    +0.000 A 
ATOM      9  C   UNL     1       1.139  14.135  19.381  0.00  0.00    +0.000 A 
ATOM     10  C   UNL     1       2.484  14.609  18.981  0.00  0.00    +0.000 C 
ATOM     11  O   UNL     1       3.328  13.846  18.524  0.00  0.00    +0.000 OA
ATOM     12  C   UNL     1       2.755  16.086  19.174  0.00  0.00    +0.000 C 
ATOM     13  C   UNL     1       4.255  16.369  19.050  0.00  0.00    +0.000 C 
ATOM     14  O   UNL     1      -2.471  12.671  20.913  0.00  0.00    +0.000 OA
ATOM     15  C   UNL     1      -2.862  13.156  22.221  0.00  0.00    +0.000 C 
ATOM     16  C   UNL     1      -4.384  12.990  22.311  0.00  0.00    +0.000 C 
ATOM     17  C   UNL     1      -2.194  12.275  23.287  0.00  0.00    +0.000 C 
ATOM     18  C   UNL     1      -2.523  14.606  22.456  0.00  0.00    +0.000 C 
ATOM     19  C   UNL     1      -1.567  15.228  21.761  0.00  0.00    +0.000 C 
ENDROOT
BRANCH   7  20
ATOM     20  C   UNL     1      -1.122  11.079  18.976  0.00  0.00    +0.000 C 
ATOM     21  C   UNL     1      -0.838   9.917  19.601  0.00  0.00    +0.000 C 
BRANCH  20  22
ATOM     22  C   UNL     1      -2.078  10.910  17.851  0.00  0.00    +0.000 A 
ATOM     23  C   UNL     1      -3.272  11.644  17.837  0.00  0.00    +0.000 A 
ATOM     24  C   UNL     1      -4.206  11.463  16.817  0.00  0.00    +0.000 A 
ATOM     25  C   UNL     1      -3.956  10.539  15.805  0.00  0.00    +0.000 A 
ATOM     26  C   UNL     1      -2.777   9.793  15.818  0.00  0.00    +0.000 A 
ATOM     27  C   UNL     1      -1.840   9.973  16.840  0.00  0.00    +0.000 A 
ENDBRANCH  20  22
BRANCH  21  28
ATOM     28  C   UNL     1      -0.072   9.640  20.820  0.00  0.00    +0.000 C 
ATOM     29  O   UNL     1      -0.572   9.505  21.923  0.00  0.00    +0.000 OA
BRANCH  28  30
ATOM     30  O   UNL     1       1.255   9.706  20.659  0.00  0.00    +0.000 OA
ATOM     31  H   UNL     1       1.519   8.763  20.616  0.00  0.00    +0.000 HD
ENDBRANCH  28  30
ENDBRANCH  21  28
ENDBRANCH   7  20
BRANCH   8  32
ATOM     32  O   UNL     1       1.227  12.288  17.873  0.00  0.00    +0.000 OA
ATOM     33  H   UNL     1       2.051  12.767  17.680  0.00  0.00    +0.000 HD
ENDBRANCH   8  32
TORSDOF 5
ENDMDL
MODEL 9
REMARK VINA RESULT:      -6.6      2.416      6.864
REMARK  Name = 
REMARK  9 active torsions:
REMARK  status: ('A' for Active; 'I' for Inactive)
REMARK    1  A    between atoms: C_1  and  C_2
REMARK    2  A    between atoms: C_7  and  C_8
REMARK    3  A    between atoms: C_8  and  C_13
REMARK    4  A    between atoms: C_9  and  C_10
REMARK    5  A    between atoms: C_10  and  O_12
REMARK    6  A    between atoms: C_19  and  O_20
REMARK    7  A    between atoms: C_24  and  C_25
REMARK    8  A    between atoms: C_27  and  C_28
REMARK    9  A    between atoms: C_27  and  C_29
REMARK                            x       y       z     vdW  Elec       q    Type
REMARK                         _______ _______ _______ _____ _____    ______ ____
ROOT
ATOM      1  C   UNL     1      -7.916  12.733  22.025  0.00  0.00    +0.000 C 
ATOM      2  C   UNL     1      -6.420  12.409  22.060  0.00  0.00    +0.000 C 
ATOM      3  O   UNL     1      -5.989  12.480  20.694  0.00  0.00    +0.000 OA
ATOM      4  C   UNL     1      -4.638  12.500  20.462  0.00  0.00    +0.000 A 
ATOM      5  C   UNL     1      -4.209  12.159  19.164  0.00  0.00    +0.000 A 
ATOM      6  C   UNL     1      -2.837  12.200  18.835  0.00  0.00    +0.000 A 
ATOM      7  C   UNL     1      -1.887  12.674  19.767  0.00  0.00    +0.000 A 
ATOM      8  C   UNL     1      -2.349  13.026  21.055  0.00  0.00    +0.000 A 
ATOM      9  C   UNL     1      -3.699  12.877  21.421  0.00  0.00    +0.000 A 
ATOM     10  C   UNL     1      -4.178  13.098  22.805  0.00  0.00    +0.000 C 
ATOM     11  O   UNL     1      -3.417  13.051  23.766  0.00  0.00    +0.000 OA
ATOM     12  C   UNL     1      -5.657  13.377  22.963  0.00  0.00    +0.000 C 
ATOM     13  C   UNL     1      -6.067  13.244  24.432  0.00  0.00    +0.000 C 
ATOM     14  O   UNL     1      -2.386  11.802  17.594  0.00  0.00    +0.000 OA
ATOM     15  C   UNL     1      -3.223  10.873  16.861  0.00  0.00    +0.000 C 
ATOM     16  C   UNL     1      -2.909  11.084  15.375  0.00  0.00    +0.000 C 
ATOM     17  C   UNL     1      -2.833   9.444  17.263  0.00  0.00    +0.000 C 
ATOM     18  C   UNL     1      -4.699  11.091  17.074  0.00  0.00    +0.000 C 
ATOM     19  C   UNL     1      -5.171  11.720  18.153  0.00  0.00    +0.000 C 
ENDROOT
BRANCH   7  20
ATOM     20  C   UNL     1      -0.425  12.693  19.456  0.00  0.00    +0.000 C 
ATOM     21  C   UNL     1       0.370  11.605  19.369  0.00  0.00    +0.000 C 
BRANCH  20  22
ATOM     22  C   UNL     1       0.280  13.952  19.103  0.00  0.00    +0.000 A 
ATOM     23  C   UNL     1       1.683  13.984  19.092  0.00  0.00    +0.000 A 
ATOM     24  C   UNL     1       2.364  15.168  18.814  0.00  0.00    +0.000 A 
ATOM     25  C   UNL     1       1.650  16.334  18.551  0.00  0.00    +0.000 A 
ATOM     26  C   UNL     1       0.255  16.317  18.575  0.00  0.00    +0.000 A 
ATOM     27  C   UNL     1      -0.431  15.131  18.854  0.00  0.00    +0.000 A 
ENDBRANCH  20  22
BRANCH  21  28
ATOM     28  C   UNL     1       0.066  10.177  19.488  0.00  0.00    +0.000 C 
ATOM     29  O   UNL     1      -0.469   9.672  20.460  0.00  0.00    +0.000 OA
BRANCH  28  30
ATOM     30  O   UNL     1       0.571   9.425  18.503  0.00  0.00    +0.000 OA
ATOM     31  H   UNL     1       0.366   8.512  18.795  0.00  0.00    +0.000 HD
ENDBRANCH  28  30
ENDBRANCH  21  28
ENDBRANCH   7  20
BRANCH   8  32
ATOM     32  O   UNL     1      -1.484  13.578  21.964  0.00  0.00    +0.000 OA
ATOM     33  H   UNL     1      -1.829  14.451  22.220  0.00  0.00    +0.000 HD
ENDBRANCH   8  32
TORSDOF 5
ENDMDL
