MODEL 1
REMARK VINA RESULT:      -8.0      0.000      0.000
REMARK  Name = 
REMARK  11 active torsions:
REMARK  status: ('A' for Active; 'I' for Inactive)
REMARK    1  A    between atoms: C_1  and  O_2
REMARK    2  A    between atoms: O_2  and  C_3
REMARK    3  A    between atoms: C_3  and  C_5
REMARK    4  A    between atoms: C_6  and  N_7
REMARK    5  A    between atoms: N_7  and  C_8
REMARK    6  A    between atoms: C_11  and  C_12
REMARK    7  A    between atoms: C_15  and  O_16
REMARK    8  A    between atoms: O_16  and  C_17
REMARK    9  A    between atoms: C_18  and  O_19
REMARK   10  A    between atoms: O_19  and  C_20
REMARK   11  A    between atoms: N_30  and  O_31
REMARK                            x       y       z     vdW  Elec       q    Type
REMARK                         _______ _______ _______ _____ _____    ______ ____
ROOT
ATOM      1  N   UNL     1       0.079  11.730  19.265  0.00  0.00    +0.000 N 
ATOM      2  H   UNL     1       0.707  12.437  19.654  0.00  0.00    +0.000 HD
ENDROOT
BRANCH   1   4
ATOM      3  C   UNL     1      -1.636  12.448  20.860  0.00  0.00    +0.000 A 
ATOM      4  C   UNL     1      -1.247  11.955  19.656  0.00  0.00    +0.000 A 
ATOM      5  C   UNL     1      -2.289  11.716  18.615  0.00  0.00    +0.000 A 
ATOM      6  N   UNL     1      -1.900  11.372  17.357  0.00  0.00    +0.000 NA
ATOM      7  C   UNL     1      -2.887  11.190  16.449  0.00  0.00    +0.000 A 
ATOM      8  C   UNL     1      -4.224  11.343  16.771  0.00  0.00    +0.000 A 
ATOM      9  N   UNL     1      -4.634  11.684  18.014  0.00  0.00    +0.000 NA
ATOM     10  C   UNL     1      -3.636  11.870  18.924  0.00  0.00    +0.000 A 
ATOM     11  N   UNL     1      -3.981  12.273  20.213  0.00  0.00    +0.000 N 
ATOM     12  C   UNL     1      -3.091  12.634  21.191  0.00  0.00    +0.000 A 
ATOM     13  O   UNL     1      -3.439  13.104  22.271  0.00  0.00    +0.000 OA
BRANCH   3  14
ATOM     14  C   UNL     1      -0.642  12.743  21.934  0.00  0.00    +0.000 C 
ATOM     15  O   UNL     1      -0.426  12.024  22.896  0.00  0.00    +0.000 OA
BRANCH  14  17
ATOM     16  C   UNL     1      -0.234  14.965  22.669  0.00  0.00    +0.000 C 
ATOM     17  O   UNL     1      -0.011  13.931  21.703  0.00  0.00    +0.000 OA
ENDBRANCH  14  17
ENDBRANCH   3  14
BRANCH  11  18
ATOM     18  O   UNL     1      -5.364  12.465  20.461  0.00  0.00    +0.000 OA
ATOM     19  H   UNL     1      -5.751  11.644  20.097  0.00  0.00    +0.000 HD
ENDBRANCH  11  18
ENDBRANCH   1   4
BRANCH   1  20
ATOM     20  C   UNL     1       0.733  10.470  19.346  0.00  0.00    +0.000 A 
ATOM     21  C   UNL     1       0.701   9.650  20.473  0.00  0.00    +0.000 A 
ATOM     22  C   UNL     1       1.271   8.370  20.449  0.00  0.00    +0.000 A 
ATOM     23  C   UNL     1       1.898   7.858  19.299  0.00  0.00    +0.000 A 
ATOM     24  C   UNL     1       1.934   8.695  18.173  0.00  0.00    +0.000 A 
ATOM     25  C   UNL     1       1.346   9.967  18.191  0.00  0.00    +0.000 A 
BRANCH  23  26
ATOM     26  C   UNL     1       2.483   6.498  19.277  0.00  0.00    +0.000 A 
ATOM     27  C   UNL     1       3.267   6.042  18.210  0.00  0.00    +0.000 A 
ATOM     28  C   UNL     1       3.820   4.758  18.218  0.00  0.00    +0.000 A 
ATOM     29  C   UNL     1       3.592   3.872  19.279  0.00  0.00    +0.000 A 
ATOM     30  C   UNL     1       2.782   4.290  20.343  0.00  0.00    +0.000 A 
ATOM     31  C   UNL     1       2.264   5.598  20.338  0.00  0.00    +0.000 A 
BRANCH  29  32
ATOM     32  O   UNL     1       4.216   2.668  19.094  0.00  0.00    +0.000 OA
ATOM     33  C   UNL     1       3.525   1.647  18.391  0.00  0.00    +0.000 C 
ENDBRANCH  29  32
BRANCH  30  34
ATOM     34  O   UNL     1       2.558   3.445  21.399  0.00  0.00    +0.000 OA
ATOM     35  C   UNL     1       1.311   2.757  21.390  0.00  0.00    +0.000 C 
ENDBRANCH  30  34
ENDBRANCH  23  26
ENDBRANCH   1  20
TORSDOF 8
ENDMDL
MODEL 2
REMARK VINA RESULT:      -7.9      0.920      1.767
REMARK  Name = 
REMARK  11 active torsions:
REMARK  status: ('A' for Active; 'I' for Inactive)
REMARK    1  A    between atoms: C_1  and  O_2
REMARK    2  A    between atoms: O_2  and  C_3
REMARK    3  A    between atoms: C_3  and  C_5
REMARK    4  A    between atoms: C_6  and  N_7
REMARK    5  A    between atoms: N_7  and  C_8
REMARK    6  A    between atoms: C_11  and  C_12
REMARK    7  A    between atoms: C_15  and  O_16
REMARK    8  A    between atoms: O_16  and  C_17
REMARK    9  A    between atoms: C_18  and  O_19
REMARK   10  A    between atoms: O_19  and  C_20
REMARK   11  A    between atoms: N_30  and  O_31
REMARK                            x       y       z     vdW  Elec       q    Type
REMARK                         _______ _______ _______ _____ _____    ______ ____
ROOT
ATOM      1  N   UNL     1       0.258  11.589  18.783  0.00  0.00    +0.000 N 
ATOM      2  H   UNL     1       0.906  12.325  19.075  0.00  0.00    +0.000 HD
ENDROOT
BRANCH   1   4
ATOM      3  C   UNL     1      -1.384  12.448  20.385  0.00  0.00    +0.000 A 
ATOM      4  C   UNL     1      -1.049  11.862  19.207  0.00  0.00    +0.000 A 
ATOM      5  C   UNL     1      -2.134  11.564  18.227  0.00  0.00    +0.000 A 
ATOM      6  N   UNL     1      -1.798  11.124  16.984  0.00  0.00    +0.000 NA
ATOM      7  C   UNL     1      -2.822  10.891  16.129  0.00  0.00    +0.000 A 
ATOM      8  C   UNL     1      -4.143  11.088  16.489  0.00  0.00    +0.000 A 
ATOM      9  N   UNL     1      -4.500  11.525  17.719  0.00  0.00    +0.000 NA
ATOM     10  C   UNL     1      -3.465  11.761  18.574  0.00  0.00    +0.000 A 
ATOM     11  N   UNL     1      -3.755  12.263  19.842  0.00  0.00    +0.000 N 
ATOM     12  C   UNL     1      -2.823  12.681  20.756  0.00  0.00    +0.000 A 
ATOM     13  O   UNL     1      -3.122  13.234  21.811  0.00  0.00    +0.000 OA
BRANCH   3  14
ATOM     14  C   UNL     1      -0.345  12.806  21.396  0.00  0.00    +0.000 C 
ATOM     15  O   UNL     1      -0.077  12.138  22.381  0.00  0.00    +0.000 OA
BRANCH  14  17
ATOM     16  C   UNL     1       1.692  13.972  21.032  0.00  0.00    +0.000 C 
ATOM     17  O   UNL     1       0.260  13.987  21.077  0.00  0.00    +0.000 OA
ENDBRANCH  14  17
ENDBRANCH   3  14
BRANCH  11  18
ATOM     18  O   UNL     1      -5.124  12.495  20.127  0.00  0.00    +0.000 OA
ATOM     19  H   UNL     1      -5.467  11.584  20.226  0.00  0.00    +0.000 HD
ENDBRANCH  11  18
ENDBRANCH   1   4
BRANCH   1  20
ATOM     20  C   UNL     1       0.909  10.337  18.959  0.00  0.00    +0.000 A 
ATOM     21  C   UNL     1       0.855   9.593  20.137  0.00  0.00    +0.000 A 
ATOM     22  C   UNL     1       1.425   8.314  20.207  0.00  0.00    +0.000 A 
ATOM     23  C   UNL     1       2.072   7.728  19.105  0.00  0.00    +0.000 A 
ATOM     24  C   UNL     1       2.129   8.489  17.927  0.00  0.00    +0.000 A 
ATOM     25  C   UNL     1       1.543   9.759  17.851  0.00  0.00    +0.000 A 
BRANCH  23  26
ATOM     26  C   UNL     1       2.656   6.370  19.183  0.00  0.00    +0.000 A 
ATOM     27  C   UNL     1       2.201   5.416  20.102  0.00  0.00    +0.000 A 
ATOM     28  C   UNL     1       2.758   4.134  20.148  0.00  0.00    +0.000 A 
ATOM     29  C   UNL     1       3.806   3.764  19.295  0.00  0.00    +0.000 A 
ATOM     30  C   UNL     1       4.304   4.711  18.390  0.00  0.00    +0.000 A 
ATOM     31  C   UNL     1       3.708   5.983  18.330  0.00  0.00    +0.000 A 
BRANCH  29  32
ATOM     32  O   UNL     1       4.212   2.473  19.500  0.00  0.00    +0.000 OA
ATOM     33  C   UNL     1       3.649   1.449  18.695  0.00  0.00    +0.000 C 
ENDBRANCH  29  32
BRANCH  30  34
ATOM     34  O   UNL     1       5.319   4.365  17.536  0.00  0.00    +0.000 OA
ATOM     35  C   UNL     1       6.634   4.709  17.962  0.00  0.00    +0.000 C 
ENDBRANCH  30  34
ENDBRANCH  23  26
ENDBRANCH   1  20
TORSDOF 8
ENDMDL
MODEL 3
REMARK VINA RESULT:      -7.9      0.875      1.846
REMARK  Name = 
REMARK  11 active torsions:
REMARK  status: ('A' for Active; 'I' for Inactive)
REMARK    1  A    between atoms: C_1  and  O_2
REMARK    2  A    between atoms: O_2  and  C_3
REMARK    3  A    between atoms: C_3  and  C_5
REMARK    4  A    between atoms: C_6  and  N_7
REMARK    5  A    between atoms: N_7  and  C_8
REMARK    6  A    between atoms: C_11  and  C_12
REMARK    7  A    between atoms: C_15  and  O_16
REMARK    8  A    between atoms: O_16  and  C_17
REMARK    9  A    between atoms: C_18  and  O_19
REMARK   10  A    between atoms: O_19  and  C_20
REMARK   11  A    between atoms: N_30  and  O_31
REMARK                            x       y       z     vdW  Elec       q    Type
REMARK                         _______ _______ _______ _____ _____    ______ ____
ROOT
ATOM      1  N   UNL     1       0.358  11.335  19.381  0.00  0.00    +0.000 N 
ATOM      2  H   UNL     1       1.039  11.914  19.877  0.00  0.00    +0.000 HD
ENDROOT
BRANCH   1   4
ATOM      3  C   UNL     1      -1.335  12.158  20.949  0.00  0.00    +0.000 A 
ATOM      4  C   UNL     1      -0.954  11.668  19.741  0.00  0.00    +0.000 A 
ATOM      5  C   UNL     1      -1.980  11.558  18.663  0.00  0.00    +0.000 A 
ATOM      6  N   UNL     1      -1.584  11.219  17.406  0.00  0.00    +0.000 NA
ATOM      7  C   UNL     1      -2.554  11.156  16.464  0.00  0.00    +0.000 A 
ATOM      8  C   UNL     1      -3.881  11.421  16.752  0.00  0.00    +0.000 A 
ATOM      9  N   UNL     1      -4.298  11.760  17.994  0.00  0.00    +0.000 NA
ATOM     10  C   UNL     1      -3.316  11.826  18.937  0.00  0.00    +0.000 A 
ATOM     11  N   UNL     1      -3.664  12.220  20.228  0.00  0.00    +0.000 N 
ATOM     12  C   UNL     1      -2.777  12.467  21.243  0.00  0.00    +0.000 A 
ATOM     13  O   UNL     1      -3.114  12.934  22.328  0.00  0.00    +0.000 OA
BRANCH   3  14
ATOM     14  C   UNL     1      -0.352  12.328  22.060  0.00  0.00    +0.000 C 
ATOM     15  O   UNL     1      -0.376  11.703  23.108  0.00  0.00    +0.000 OA
BRANCH  14  17
ATOM     16  C   UNL     1       0.097  14.634  21.711  0.00  0.00    +0.000 C 
ATOM     17  O   UNL     1       0.572  13.283  21.753  0.00  0.00    +0.000 OA
ENDBRANCH  14  17
ENDBRANCH   3  14
BRANCH  11  18
ATOM     18  O   UNL     1      -5.031  12.530  20.443  0.00  0.00    +0.000 OA
ATOM     19  H   UNL     1      -5.480  11.795  19.980  0.00  0.00    +0.000 HD
ENDBRANCH  11  18
ENDBRANCH   1   4
BRANCH   1  20
ATOM     20  C   UNL     1       0.861  10.005  19.339  0.00  0.00    +0.000 A 
ATOM     21  C   UNL     1       1.452   9.434  18.212  0.00  0.00    +0.000 A 
ATOM     22  C   UNL     1       2.029   8.158  18.271  0.00  0.00    +0.000 A 
ATOM     23  C   UNL     1       2.036   7.400  19.455  0.00  0.00    +0.000 A 
ATOM     24  C   UNL     1       1.431   7.980  20.581  0.00  0.00    +0.000 A 
ATOM     25  C   UNL     1       0.872   9.263  20.528  0.00  0.00    +0.000 A 
BRANCH  23  26
ATOM     26  C   UNL     1       2.663   6.060  19.512  0.00  0.00    +0.000 A 
ATOM     27  C   UNL     1       1.940   4.914  19.863  0.00  0.00    +0.000 A 
ATOM     28  C   UNL     1       2.550   3.657  19.896  0.00  0.00    +0.000 A 
ATOM     29  C   UNL     1       3.912   3.500  19.605  0.00  0.00    +0.000 A 
ATOM     30  C   UNL     1       4.668   4.635  19.285  0.00  0.00    +0.000 A 
ATOM     31  C   UNL     1       4.030   5.887  19.219  0.00  0.00    +0.000 A 
BRANCH  29  32
ATOM     32  O   UNL     1       4.316   2.194  19.698  0.00  0.00    +0.000 OA
ATOM     33  C   UNL     1       3.844   1.268  18.732  0.00  0.00    +0.000 C 
ENDBRANCH  29  32
BRANCH  30  34
ATOM     34  O   UNL     1       5.998   4.502  18.982  0.00  0.00    +0.000 OA
ATOM     35  C   UNL     1       6.333   4.599  17.601  0.00  0.00    +0.000 C 
ENDBRANCH  30  34
ENDBRANCH  23  26
ENDBRANCH   1  20
TORSDOF 8
ENDMDL
MODEL 4
REMARK VINA RESULT:      -7.9      1.805      3.792
REMARK  Name = 
REMARK  11 active torsions:
REMARK  status: ('A' for Active; 'I' for Inactive)
REMARK    1  A    between atoms: C_1  and  O_2
REMARK    2  A    between atoms: O_2  and  C_3
REMARK    3  A    between atoms: C_3  and  C_5
REMARK    4  A    between atoms: C_6  and  N_7
REMARK    5  A    between atoms: N_7  and  C_8
REMARK    6  A    between atoms: C_11  and  C_12
REMARK    7  A    between atoms: C_15  and  O_16
REMARK    8  A    between atoms: O_16  and  C_17
REMARK    9  A    between atoms: C_18  and  O_19
REMARK   10  A    between atoms: O_19  and  C_20
REMARK   11  A    between atoms: N_30  and  O_31
REMARK                            x       y       z     vdW  Elec       q    Type
REMARK                         _______ _______ _______ _____ _____    ______ ____
ROOT
ATOM      1  N   UNL     1       0.369  11.547  18.547  0.00  0.00    +0.000 N 
ATOM      2  H   UNL     1       1.039  12.289  18.761  0.00  0.00    +0.000 HD
ENDROOT
BRANCH   1   4
ATOM      3  C   UNL     1      -2.075  11.452  18.408  0.00  0.00    +0.000 A 
ATOM      4  C   UNL     1      -0.920  11.882  18.980  0.00  0.00    +0.000 A 
ATOM      5  C   UNL     1      -1.005  12.698  20.226  0.00  0.00    +0.000 A 
ATOM      6  N   UNL     1       0.140  13.003  20.895  0.00  0.00    +0.000 NA
ATOM      7  C   UNL     1       0.002  13.726  22.030  0.00  0.00    +0.000 A 
ATOM      8  C   UNL     1      -1.234  14.139  22.496  0.00  0.00    +0.000 A 
ATOM      9  N   UNL     1      -2.386  13.848  21.848  0.00  0.00    +0.000 NA
ATOM     10  C   UNL     1      -2.240  13.116  20.707  0.00  0.00    +0.000 A 
ATOM     11  N   UNL     1      -3.388  12.735  20.015  0.00  0.00    +0.000 N 
ATOM     12  C   UNL     1      -3.414  11.886  18.938  0.00  0.00    +0.000 A 
ATOM     13  O   UNL     1      -4.457  11.475  18.435  0.00  0.00    +0.000 OA
BRANCH   3  14
ATOM     14  C   UNL     1      -2.063  10.602  17.181  0.00  0.00    +0.000 C 
ATOM     15  O   UNL     1      -1.728   9.429  17.153  0.00  0.00    +0.000 OA
BRANCH  14  17
ATOM     16  C   UNL     1      -3.170  10.581  15.080  0.00  0.00    +0.000 C 
ATOM     17  O   UNL     1      -2.466  11.314  16.089  0.00  0.00    +0.000 OA
ENDBRANCH  14  17
ENDBRANCH   3  14
BRANCH  11  18
ATOM     18  O   UNL     1      -4.624  13.143  20.576  0.00  0.00    +0.000 OA
ATOM     19  H   UNL     1      -4.806  13.970  20.086  0.00  0.00    +0.000 HD
ENDBRANCH  11  18
ENDBRANCH   1   4
BRANCH   1  20
ATOM     20  C   UNL     1       0.999  10.299  18.806  0.00  0.00    +0.000 A 
ATOM     21  C   UNL     1       0.865   9.596  20.003  0.00  0.00    +0.000 A 
ATOM     22  C   UNL     1       1.420   8.317  20.153  0.00  0.00    +0.000 A 
ATOM     23  C   UNL     1       2.133   7.692  19.116  0.00  0.00    +0.000 A 
ATOM     24  C   UNL     1       2.271   8.411  17.919  0.00  0.00    +0.000 A 
ATOM     25  C   UNL     1       1.699   9.681  17.762  0.00  0.00    +0.000 A 
BRANCH  23  26
ATOM     26  C   UNL     1       2.702   6.334  19.277  0.00  0.00    +0.000 A 
ATOM     27  C   UNL     1       2.091   5.362  20.078  0.00  0.00    +0.000 A 
ATOM     28  C   UNL     1       2.639   4.081  20.204  0.00  0.00    +0.000 A 
ATOM     29  C   UNL     1       3.830   3.731  19.555  0.00  0.00    +0.000 A 
ATOM     30  C   UNL     1       4.482   4.696  18.776  0.00  0.00    +0.000 A 
ATOM     31  C   UNL     1       3.897   5.967  18.628  0.00  0.00    +0.000 A 
BRANCH  29  32
ATOM     32  O   UNL     1       4.200   2.438  19.810  0.00  0.00    +0.000 OA
ATOM     33  C   UNL     1       3.752   1.418  18.930  0.00  0.00    +0.000 C 
ENDBRANCH  29  32
BRANCH  30  34
ATOM     34  O   UNL     1       5.640   4.371  18.120  0.00  0.00    +0.000 OA
ATOM     35  C   UNL     1       5.568   4.360  16.698  0.00  0.00    +0.000 C 
ENDBRANCH  30  34
ENDBRANCH  23  26
ENDBRANCH   1  20
TORSDOF 8
ENDMDL
MODEL 5
REMARK VINA RESULT:      -7.8      3.768      9.715
REMARK  Name = 
REMARK  11 active torsions:
REMARK  status: ('A' for Active; 'I' for Inactive)
REMARK    1  A    between atoms: C_1  and  O_2
REMARK    2  A    between atoms: O_2  and  C_3
REMARK    3  A    between atoms: C_3  and  C_5
REMARK    4  A    between atoms: C_6  and  N_7
REMARK    5  A    between atoms: N_7  and  C_8
REMARK    6  A    between atoms: C_11  and  C_12
REMARK    7  A    between atoms: C_15  and  O_16
REMARK    8  A    between atoms: O_16  and  C_17
REMARK    9  A    between atoms: C_18  and  O_19
REMARK   10  A    between atoms: O_19  and  C_20
REMARK   11  A    between atoms: N_30  and  O_31
REMARK                            x       y       z     vdW  Elec       q    Type
REMARK                         _______ _______ _______ _____ _____    ______ ____
ROOT
ATOM      1  N   UNL     1       3.670   6.997  19.261  0.00  0.00    +0.000 N 
ATOM      2  H   UNL     1       4.520   7.551  19.132  0.00  0.00    +0.000 HD
ENDROOT
BRANCH   1   4
ATOM      3  C   UNL     1       4.570   5.387  17.648  0.00  0.00    +0.000 A 
ATOM      4  C   UNL     1       3.815   5.708  18.731  0.00  0.00    +0.000 A 
ATOM      5  C   UNL     1       3.157   4.606  19.491  0.00  0.00    +0.000 A 
ATOM      6  N   UNL     1       2.529   4.894  20.663  0.00  0.00    +0.000 NA
ATOM      7  C   UNL     1       1.968   3.853  21.320  0.00  0.00    +0.000 A 
ATOM      8  C   UNL     1       2.025   2.558  20.835  0.00  0.00    +0.000 A 
ATOM      9  N   UNL     1       2.643   2.247  19.673  0.00  0.00    +0.000 NA
ATOM     10  C   UNL     1       3.209   3.300  19.017  0.00  0.00    +0.000 A 
ATOM     11  N   UNL     1       3.908   3.047  17.838  0.00  0.00    +0.000 N 
ATOM     12  C   UNL     1       4.645   3.972  17.145  0.00  0.00    +0.000 A 
ATOM     13  O   UNL     1       5.349   3.681  16.181  0.00  0.00    +0.000 OA
BRANCH   3  14
ATOM     14  C   UNL     1       5.286   6.437  16.864  0.00  0.00    +0.000 C 
ATOM     15  O   UNL     1       5.063   6.701  15.694  0.00  0.00    +0.000 OA
BRANCH  14  17
ATOM     16  C   UNL     1       7.423   6.309  17.893  0.00  0.00    +0.000 C 
ATOM     17  O   UNL     1       6.231   7.058  17.627  0.00  0.00    +0.000 OA
ENDBRANCH  14  17
ENDBRANCH   3  14
BRANCH  11  18
ATOM     18  O   UNL     1       3.975   1.692  17.426  0.00  0.00    +0.000 OA
ATOM     19  H   UNL     1       4.931   1.582  17.250  0.00  0.00    +0.000 HD
ENDBRANCH  11  18
ENDBRANCH   1   4
BRANCH   1  20
ATOM     20  C   UNL     1       2.553   7.841  19.012  0.00  0.00    +0.000 A 
ATOM     21  C   UNL     1       2.113   8.189  17.735  0.00  0.00    +0.000 A 
ATOM     22  C   UNL     1       0.939   8.933  17.556  0.00  0.00    +0.000 A 
ATOM     23  C   UNL     1       0.159   9.361  18.645  0.00  0.00    +0.000 A 
ATOM     24  C   UNL     1       0.615   9.014  19.926  0.00  0.00    +0.000 A 
ATOM     25  C   UNL     1       1.778   8.253  20.104  0.00  0.00    +0.000 A 
BRANCH  23  26
ATOM     26  C   UNL     1      -1.090  10.132  18.446  0.00  0.00    +0.000 A 
ATOM     27  C   UNL     1      -1.540  11.074  19.379  0.00  0.00    +0.000 A 
ATOM     28  C   UNL     1      -2.715  11.800  19.163  0.00  0.00    +0.000 A 
ATOM     29  C   UNL     1      -3.498  11.596  18.019  0.00  0.00    +0.000 A 
ATOM     30  C   UNL     1      -3.089  10.635  17.086  0.00  0.00    +0.000 A 
ATOM     31  C   UNL     1      -1.885   9.940  17.299  0.00  0.00    +0.000 A 
BRANCH  29  32
ATOM     32  O   UNL     1      -4.606  12.400  17.998  0.00  0.00    +0.000 OA
ATOM     33  C   UNL     1      -5.236  12.719  19.229  0.00  0.00    +0.000 C 
ENDBRANCH  29  32
BRANCH  30  34
ATOM     34  O   UNL     1      -3.832  10.430  15.952  0.00  0.00    +0.000 OA
ATOM     35  C   UNL     1      -3.093  10.261  14.746  0.00  0.00    +0.000 C 
ENDBRANCH  30  34
ENDBRANCH  23  26
ENDBRANCH   1  20
TORSDOF 8
ENDMDL
MODEL 6
REMARK VINA RESULT:      -7.7      3.518      9.659
REMARK  Name = 
REMARK  11 active torsions:
REMARK  status: ('A' for Active; 'I' for Inactive)
REMARK    1  A    between atoms: C_1  and  O_2
REMARK    2  A    between atoms: O_2  and  C_3
REMARK    3  A    between atoms: C_3  and  C_5
REMARK    4  A    between atoms: C_6  and  N_7
REMARK    5  A    between atoms: N_7  and  C_8
REMARK    6  A    between atoms: C_11  and  C_12
REMARK    7  A    between atoms: C_15  and  O_16
REMARK    8  A    between atoms: O_16  and  C_17
REMARK    9  A    between atoms: C_18  and  O_19
REMARK   10  A    between atoms: O_19  and  C_20
REMARK   11  A    between atoms: N_30  and  O_31
REMARK                            x       y       z     vdW  Elec       q    Type
REMARK                         _______ _______ _______ _____ _____    ______ ____
ROOT
ATOM      1  N   UNL     1       3.635   7.025  19.357  0.00  0.00    +0.000 N 
ATOM      2  H   UNL     1       4.486   7.583  19.257  0.00  0.00    +0.000 HD
ENDROOT
BRANCH   1   4
ATOM      3  C   UNL     1       4.577   5.419  17.765  0.00  0.00    +0.000 A 
ATOM      4  C   UNL     1       3.807   5.735  18.838  0.00  0.00    +0.000 A 
ATOM      5  C   UNL     1       3.159   4.627  19.600  0.00  0.00    +0.000 A 
ATOM      6  N   UNL     1       2.516   4.914  20.764  0.00  0.00    +0.000 NA
ATOM      7  C   UNL     1       1.967   3.868  21.424  0.00  0.00    +0.000 A 
ATOM      8  C   UNL     1       2.049   2.570  20.949  0.00  0.00    +0.000 A 
ATOM      9  N   UNL     1       2.684   2.262  19.795  0.00  0.00    +0.000 NA
ATOM     10  C   UNL     1       3.238   3.319  19.137  0.00  0.00    +0.000 A 
ATOM     11  N   UNL     1       3.952   3.069  17.966  0.00  0.00    +0.000 N 
ATOM     12  C   UNL     1       4.680   4.001  17.273  0.00  0.00    +0.000 A 
ATOM     13  O   UNL     1       5.397   3.715  16.317  0.00  0.00    +0.000 OA
BRANCH   3  14
ATOM     14  C   UNL     1       5.282   6.474  16.979  0.00  0.00    +0.000 C 
ATOM     15  O   UNL     1       5.021   6.771  15.825  0.00  0.00    +0.000 OA
BRANCH  14  17
ATOM     16  C   UNL     1       7.436   6.268  17.959  0.00  0.00    +0.000 C 
ATOM     17  O   UNL     1       6.266   7.060  17.721  0.00  0.00    +0.000 OA
ENDBRANCH  14  17
ENDBRANCH   3  14
BRANCH  11  18
ATOM     18  O   UNL     1       4.046   1.713  17.565  0.00  0.00    +0.000 OA
ATOM     19  H   UNL     1       4.247   1.265  18.411  0.00  0.00    +0.000 HD
ENDBRANCH  11  18
ENDBRANCH   1   4
BRANCH   1  20
ATOM     20  C   UNL     1       2.524   7.862  19.063  0.00  0.00    +0.000 A 
ATOM     21  C   UNL     1       2.165   8.251  17.773  0.00  0.00    +0.000 A 
ATOM     22  C   UNL     1       0.992   8.985  17.542  0.00  0.00    +0.000 A 
ATOM     23  C   UNL     1       0.134   9.361  18.590  0.00  0.00    +0.000 A 
ATOM     24  C   UNL     1       0.508   8.972  19.886  0.00  0.00    +0.000 A 
ATOM     25  C   UNL     1       1.670   8.222  20.114  0.00  0.00    +0.000 A 
BRANCH  23  26
ATOM     26  C   UNL     1      -1.111  10.120  18.335  0.00  0.00    +0.000 A 
ATOM     27  C   UNL     1      -1.888   9.913  17.189  0.00  0.00    +0.000 A 
ATOM     28  C   UNL     1      -3.068  10.633  16.976  0.00  0.00    +0.000 A 
ATOM     29  C   UNL     1      -3.503  11.604  17.888  0.00  0.00    +0.000 A 
ATOM     30  C   UNL     1      -2.727  11.856  19.026  0.00  0.00    +0.000 A 
ATOM     31  C   UNL     1      -1.563  11.097  19.244  0.00  0.00    +0.000 A 
BRANCH  29  32
ATOM     32  O   UNL     1      -4.674  12.196  17.496  0.00  0.00    +0.000 OA
ATOM     33  C   UNL     1      -5.898  11.547  17.801  0.00  0.00    +0.000 C 
ENDBRANCH  29  32
BRANCH  30  34
ATOM     34  O   UNL     1      -3.142  12.791  19.939  0.00  0.00    +0.000 OA
ATOM     35  C   UNL     1      -2.617  12.652  21.255  0.00  0.00    +0.000 C 
ENDBRANCH  30  34
ENDBRANCH  23  26
ENDBRANCH   1  20
TORSDOF 8
ENDMDL
MODEL 7
REMARK VINA RESULT:      -7.7      0.880      2.102
REMARK  Name = 
REMARK  11 active torsions:
REMARK  status: ('A' for Active; 'I' for Inactive)
REMARK    1  A    between atoms: C_1  and  O_2
REMARK    2  A    between atoms: O_2  and  C_3
REMARK    3  A    between atoms: C_3  and  C_5
REMARK    4  A    between atoms: C_6  and  N_7
REMARK    5  A    between atoms: N_7  and  C_8
REMARK    6  A    between atoms: C_11  and  C_12
REMARK    7  A    between atoms: C_15  and  O_16
REMARK    8  A    between atoms: O_16  and  C_17
REMARK    9  A    between atoms: C_18  and  O_19
REMARK   10  A    between atoms: O_19  and  C_20
REMARK   11  A    between atoms: N_30  and  O_31
REMARK                            x       y       z     vdW  Elec       q    Type
REMARK                         _______ _______ _______ _____ _____    ______ ____
ROOT
ATOM      1  N   UNL     1       0.281  11.598  19.078  0.00  0.00    +0.000 N 
ATOM      2  H   UNL     1       0.949  12.196  19.570  0.00  0.00    +0.000 HD
ENDROOT
BRANCH   1   4
ATOM      3  C   UNL     1      -1.416  12.485  20.605  0.00  0.00    +0.000 A 
ATOM      4  C   UNL     1      -1.038  11.901  19.439  0.00  0.00    +0.000 A 
ATOM      5  C   UNL     1      -2.080  11.638  18.404  0.00  0.00    +0.000 A 
ATOM      6  N   UNL     1      -1.695  11.199  17.175  0.00  0.00    +0.000 NA
ATOM      7  C   UNL     1      -2.681  10.999  16.270  0.00  0.00    +0.000 A 
ATOM      8  C   UNL     1      -4.014  11.227  16.567  0.00  0.00    +0.000 A 
ATOM      9  N   UNL     1      -4.419  11.663  17.781  0.00  0.00    +0.000 NA
ATOM     10  C   UNL     1      -3.421  11.866  18.688  0.00  0.00    +0.000 A 
ATOM     11  N   UNL     1      -3.761  12.365  19.945  0.00  0.00    +0.000 N 
ATOM     12  C   UNL     1      -2.865  12.752  20.907  0.00  0.00    +0.000 A 
ATOM     13  O   UNL     1      -3.202  13.304  21.952  0.00  0.00    +0.000 OA
BRANCH   3  14
ATOM     14  C   UNL     1      -0.419  12.809  21.669  0.00  0.00    +0.000 C 
ATOM     15  O   UNL     1      -0.055  13.937  21.958  0.00  0.00    +0.000 OA
BRANCH  14  17
ATOM     16  C   UNL     1      -0.906  10.954  23.071  0.00  0.00    +0.000 C 
ATOM     17  O   UNL     1       0.039  11.673  22.270  0.00  0.00    +0.000 OA
ENDBRANCH  14  17
ENDBRANCH   3  14
BRANCH  11  18
ATOM     18  O   UNL     1      -5.136  12.629  20.165  0.00  0.00    +0.000 OA
ATOM     19  H   UNL     1      -5.241  13.511  19.757  0.00  0.00    +0.000 HD
ENDBRANCH  11  18
ENDBRANCH   1   4
BRANCH   1  20
ATOM     20  C   UNL     1       0.816  10.281  19.040  0.00  0.00    +0.000 A 
ATOM     21  C   UNL     1       1.468   9.739  17.932  0.00  0.00    +0.000 A 
ATOM     22  C   UNL     1       2.072   8.476  17.998  0.00  0.00    +0.000 A 
ATOM     23  C   UNL     1       2.046   7.702  19.172  0.00  0.00    +0.000 A 
ATOM     24  C   UNL     1       1.380   8.252  20.278  0.00  0.00    +0.000 A 
ATOM     25  C   UNL     1       0.794   9.523  20.218  0.00  0.00    +0.000 A 
BRANCH  23  26
ATOM     26  C   UNL     1       2.702   6.376  19.238  0.00  0.00    +0.000 A 
ATOM     27  C   UNL     1       2.286   5.384  20.135  0.00  0.00    +0.000 A 
ATOM     28  C   UNL     1       2.911   4.134  20.169  0.00  0.00    +0.000 A 
ATOM     29  C   UNL     1       3.990   3.835  19.327  0.00  0.00    +0.000 A 
ATOM     30  C   UNL     1       4.450   4.822  18.445  0.00  0.00    +0.000 A 
ATOM     31  C   UNL     1       3.786   6.061  18.395  0.00  0.00    +0.000 A 
BRANCH  29  32
ATOM     32  O   UNL     1       4.463   2.564  19.519  0.00  0.00    +0.000 OA
ATOM     33  C   UNL     1       3.806   1.491  18.865  0.00  0.00    +0.000 C 
ENDBRANCH  29  32
BRANCH  30  34
ATOM     34  O   UNL     1       5.494   4.545  17.602  0.00  0.00    +0.000 OA
ATOM     35  C   UNL     1       6.786   4.927  18.066  0.00  0.00    +0.000 C 
ENDBRANCH  30  34
ENDBRANCH  23  26
ENDBRANCH   1  20
TORSDOF 8
ENDMDL
MODEL 8
REMARK VINA RESULT:      -7.7      1.562      3.405
REMARK  Name = 
REMARK  11 active torsions:
REMARK  status: ('A' for Active; 'I' for Inactive)
REMARK    1  A    between atoms: C_1  and  O_2
REMARK    2  A    between atoms: O_2  and  C_3
REMARK    3  A    between atoms: C_3  and  C_5
REMARK    4  A    between atoms: C_6  and  N_7
REMARK    5  A    between atoms: N_7  and  C_8
REMARK    6  A    between atoms: C_11  and  C_12
REMARK    7  A    between atoms: C_15  and  O_16
REMARK    8  A    between atoms: O_16  and  C_17
REMARK    9  A    between atoms: C_18  and  O_19
REMARK   10  A    between atoms: O_19  and  C_20
REMARK   11  A    between atoms: N_30  and  O_31
REMARK                            x       y       z     vdW  Elec       q    Type
REMARK                         _______ _______ _______ _____ _____    ______ ____
ROOT
ATOM      1  N   UNL     1       0.121  11.778  18.577  0.00  0.00    +0.000 N 
ATOM      2  H   UNL     1       0.828  12.515  18.612  0.00  0.00    +0.000 HD
ENDROOT
BRANCH   1   4
ATOM      3  C   UNL     1      -2.314  11.762  18.848  0.00  0.00    +0.000 A 
ATOM      4  C   UNL     1      -1.070  12.183  19.194  0.00  0.00    +0.000 A 
ATOM      5  C   UNL     1      -0.925  13.073  20.383  0.00  0.00    +0.000 A 
ATOM      6  N   UNL     1       0.322  13.375  20.834  0.00  0.00    +0.000 NA
ATOM      7  C   UNL     1       0.393  14.168  21.928  0.00  0.00    +0.000 A 
ATOM      8  C   UNL     1      -0.738  14.651  22.564  0.00  0.00    +0.000 A 
ATOM      9  N   UNL     1      -1.988  14.364  22.134  0.00  0.00    +0.000 NA
ATOM     10  C   UNL     1      -2.052  13.562  21.033  0.00  0.00    +0.000 A 
ATOM     11  N   UNL     1      -3.309  13.182  20.564  0.00  0.00    +0.000 N 
ATOM     12  C   UNL     1      -3.535  12.274  19.562  0.00  0.00    +0.000 A 
ATOM     13  O   UNL     1      -4.657  11.872  19.264  0.00  0.00    +0.000 OA
BRANCH   3  14
ATOM     14  C   UNL     1      -2.527  10.842  17.692  0.00  0.00    +0.000 C 
ATOM     15  O   UNL     1      -2.366   9.633  17.729  0.00  0.00    +0.000 OA
BRANCH  14  17
ATOM     16  C   UNL     1      -2.991  10.786  15.363  0.00  0.00    +0.000 C 
ATOM     17  O   UNL     1      -2.917  11.534  16.582  0.00  0.00    +0.000 OA
ENDBRANCH  14  17
ENDBRANCH   3  14
BRANCH  11  18
ATOM     18  O   UNL     1      -4.424  13.666  21.293  0.00  0.00    +0.000 OA
ATOM     19  H   UNL     1      -5.022  12.892  21.286  0.00  0.00    +0.000 HD
ENDBRANCH  11  18
ENDBRANCH   1   4
BRANCH   1  20
ATOM     20  C   UNL     1       0.767  10.537  18.829  0.00  0.00    +0.000 A 
ATOM     21  C   UNL     1       0.679   9.846  20.038  0.00  0.00    +0.000 A 
ATOM     22  C   UNL     1       1.247   8.573  20.183  0.00  0.00    +0.000 A 
ATOM     23  C   UNL     1       1.929   7.940  19.129  0.00  0.00    +0.000 A 
ATOM     24  C   UNL     1       2.020   8.646  17.919  0.00  0.00    +0.000 A 
ATOM     25  C   UNL     1       1.435   9.910  17.768  0.00  0.00    +0.000 A 
BRANCH  23  26
ATOM     26  C   UNL     1       2.511   6.588  19.286  0.00  0.00    +0.000 A 
ATOM     27  C   UNL     1       3.410   6.052  18.355  0.00  0.00    +0.000 A 
ATOM     28  C   UNL     1       3.958   4.778  18.532  0.00  0.00    +0.000 A 
ATOM     29  C   UNL     1       3.611   3.981  19.631  0.00  0.00    +0.000 A 
ATOM     30  C   UNL     1       2.686   4.478  20.559  0.00  0.00    +0.000 A 
ATOM     31  C   UNL     1       2.174   5.777  20.387  0.00  0.00    +0.000 A 
BRANCH  29  32
ATOM     32  O   UNL     1       4.251   2.770  19.618  0.00  0.00    +0.000 OA
ATOM     33  C   UNL     1       3.716   1.729  18.817  0.00  0.00    +0.000 C 
ENDBRANCH  29  32
BRANCH  30  34
ATOM     34  O   UNL     1       2.344   3.722  21.649  0.00  0.00    +0.000 OA
ATOM     35  C   UNL     1       1.296   2.779  21.448  0.00  0.00    +0.000 C 
ENDBRANCH  30  34
ENDBRANCH  23  26
ENDBRANCH   1  20
TORSDOF 8
ENDMDL
MODEL 9
REMARK VINA RESULT:      -7.7      3.546      9.740
REMARK  Name = 
REMARK  11 active torsions:
REMARK  status: ('A' for Active; 'I' for Inactive)
REMARK    1  A    between atoms: C_1  and  O_2
REMARK    2  A    between atoms: O_2  and  C_3
REMARK    3  A    between atoms: C_3  and  C_5
REMARK    4  A    between atoms: C_6  and  N_7
REMARK    5  A    between atoms: N_7  and  C_8
REMARK    6  A    between atoms: C_11  and  C_12
REMARK    7  A    between atoms: C_15  and  O_16
REMARK    8  A    between atoms: O_16  and  C_17
REMARK    9  A    between atoms: C_18  and  O_19
REMARK   10  A    between atoms: O_19  and  C_20
REMARK   11  A    between atoms: N_30  and  O_31
REMARK                            x       y       z     vdW  Elec       q    Type
REMARK                         _______ _______ _______ _____ _____    ______ ____
ROOT
ATOM      1  N   UNL     1       2.580   6.573  17.734  0.00  0.00    +0.000 N 
ATOM      2  H   UNL     1       1.799   6.212  17.181  0.00  0.00    +0.000 HD
ENDROOT
BRANCH   1   4
ATOM      3  C   UNL     1       4.722   5.451  18.128  0.00  0.00    +0.000 A 
ATOM      4  C   UNL     1       3.371   5.534  18.240  0.00  0.00    +0.000 A 
ATOM      5  C   UNL     1       2.660   4.498  19.045  0.00  0.00    +0.000 A 
ATOM      6  N   UNL     1       1.332   4.654  19.297  0.00  0.00    +0.000 NA
ATOM      7  C   UNL     1       0.744   3.696  20.050  0.00  0.00    +0.000 A 
ATOM      8  C   UNL     1       1.446   2.611  20.545  0.00  0.00    +0.000 A 
ATOM      9  N   UNL     1       2.767   2.435  20.308  0.00  0.00    +0.000 NA
ATOM     10  C   UNL     1       3.354   3.406  19.551  0.00  0.00    +0.000 A 
ATOM     11  N   UNL     1       4.724   3.317  19.310  0.00  0.00    +0.000 N 
ATOM     12  C   UNL     1       5.479   4.280  18.691  0.00  0.00    +0.000 A 
ATOM     13  O   UNL     1       6.704   4.221  18.610  0.00  0.00    +0.000 OA
BRANCH   3  14
ATOM     14  C   UNL     1       5.500   6.474  17.367  0.00  0.00    +0.000 C 
ATOM     15  O   UNL     1       6.387   7.164  17.842  0.00  0.00    +0.000 OA
BRANCH  14  17
ATOM     16  C   UNL     1       5.557   5.510  15.197  0.00  0.00    +0.000 C 
ATOM     17  O   UNL     1       5.082   6.541  16.071  0.00  0.00    +0.000 OA
ENDBRANCH  14  17
ENDBRANCH   3  14
BRANCH  11  18
ATOM     18  O   UNL     1       5.394   2.212  19.891  0.00  0.00    +0.000 OA
ATOM     19  H   UNL     1       4.679   1.791  20.409  0.00  0.00    +0.000 HD
ENDBRANCH  11  18
ENDBRANCH   1   4
BRANCH   1  20
ATOM     20  C   UNL     1       2.101   7.663  18.511  0.00  0.00    +0.000 A 
ATOM     21  C   UNL     1       1.599   8.844  17.966  0.00  0.00    +0.000 A 
ATOM     22  C   UNL     1       1.037   9.833  18.785  0.00  0.00    +0.000 A 
ATOM     23  C   UNL     1       0.957   9.684  20.181  0.00  0.00    +0.000 A 
ATOM     24  C   UNL     1       1.473   8.496  20.721  0.00  0.00    +0.000 A 
ATOM     25  C   UNL     1       2.017   7.498  19.901  0.00  0.00    +0.000 A 
BRANCH  23  26
ATOM     26  C   UNL     1       0.347  10.727  21.036  0.00  0.00    +0.000 A 
ATOM     27  C   UNL     1      -0.483  10.410  22.119  0.00  0.00    +0.000 A 
ATOM     28  C   UNL     1      -1.037  11.412  22.922  0.00  0.00    +0.000 A 
ATOM     29  C   UNL     1      -0.803  12.769  22.659  0.00  0.00    +0.000 A 
ATOM     30  C   UNL     1      -0.005  13.115  21.561  0.00  0.00    +0.000 A 
ATOM     31  C   UNL     1       0.575  12.095  20.787  0.00  0.00    +0.000 A 
BRANCH  29  32
ATOM     32  O   UNL     1      -1.437  13.587  23.555  0.00  0.00    +0.000 OA
ATOM     33  C   UNL     1      -2.785  13.953  23.304  0.00  0.00    +0.000 C 
ENDBRANCH  29  32
BRANCH  30  34
ATOM     34  O   UNL     1       0.248  14.435  21.295  0.00  0.00    +0.000 OA
ATOM     35  C   UNL     1      -0.601  15.050  20.331  0.00  0.00    +0.000 C 
ENDBRANCH  30  34
ENDBRANCH  23  26
ENDBRANCH   1  20
TORSDOF 8
ENDMDL
