MODEL 1
REMARK VINA RESULT:      -7.2      0.000      0.000
REMARK  Name = 
REMARK  12 active torsions:
REMARK  status: ('A' for Active; 'I' for Inactive)
REMARK    1  A    between atoms: C_1  and  O_2
REMARK    2  A    between atoms: O_2  and  C_3
REMARK    3  A    between atoms: C_3  and  C_4
REMARK    4  A    between atoms: C_4  and  C_5
REMARK    5  A    between atoms: C_6  and  C_7
REMARK    6  A    between atoms: C_9  and  O_10
REMARK    7  A    between atoms: C_11  and  N_12
REMARK    8  A    between atoms: N_12  and  C_13
REMARK    9  A    between atoms: N_12  and  C_14
REMARK   10  A    between atoms: C_15  and  C_16
REMARK   11  A    between atoms: C_16  and  C_18
REMARK   12  A    between atoms: C_22  and  C_23
REMARK                            x       y       z     vdW  Elec       q    Type
REMARK                         _______ _______ _______ _____ _____    ______ ____
ROOT
ATOM      1  C   UNL     1       4.961   5.715  18.218  0.00  0.00    +0.000 A 
ATOM      2  C   UNL     1       6.117   5.027  18.612  0.00  0.00    +0.000 A 
ATOM      3  C   UNL     1       7.519   5.454  18.278  0.00  0.00    +0.000 C 
ATOM      4  N   UNL     1       6.056   3.863  19.282  0.00  0.00    +0.000 NA
ATOM      5  C   UNL     1       4.843   3.401  19.632  0.00  0.00    +0.000 A 
ATOM      6  C   UNL     1       3.595   4.018  19.441  0.00  0.00    +0.000 A 
ATOM      7  C   UNL     1       3.692   5.225  18.693  0.00  0.00    +0.000 A 
ENDROOT
BRANCH   6   8
ATOM      8  N   UNL     1       2.389   3.519  19.981  0.00  0.00    +0.000 N 
ATOM      9  C   UNL     1       2.214   3.581  21.444  0.00  0.00    +0.000 C 
ATOM     10  C   UNL     1       1.844   2.276  19.425  0.00  0.00    +0.000 C 
ENDBRANCH   6   8
BRANCH   5  11
ATOM     11  O   UNL     1       4.981   2.157  20.159  0.00  0.00    +0.000 OA
ATOM     12  H   UNL     1       4.080   2.042  20.511  0.00  0.00    +0.000 HD
ENDBRANCH   5  11
BRANCH   7  13
ATOM     13  C   UNL     1       2.476   5.953  18.234  0.00  0.00    +0.000 C 
ATOM     14  O   UNL     1       1.757   5.356  17.435  0.00  0.00    +0.000 OA
BRANCH  13  15
ATOM     15  C   UNL     1       2.044   7.326  18.662  0.00  0.00    +0.000 A 
ATOM     16  C   UNL     1       1.858   8.409  17.801  0.00  0.00    +0.000 A 
ATOM     17  C   UNL     1       1.470   9.654  18.314  0.00  0.00    +0.000 A 
ATOM     18  C   UNL     1       1.234   9.825  19.687  0.00  0.00    +0.000 A 
ATOM     19  C   UNL     1       1.409   8.751  20.560  0.00  0.00    +0.000 A 
ATOM     20  C   UNL     1       1.102   8.877  22.025  0.00  0.00    +0.000 C 
ATOM     21  C   UNL     1       1.823   7.517  20.038  0.00  0.00    +0.000 A 
ENDBRANCH  13  15
ENDBRANCH   7  13
BRANCH   1  22
ATOM     22  C   UNL     1       5.085   6.902  17.277  0.00  0.00    +0.000 C 
BRANCH  22  23
ATOM     23  C   UNL     1       4.959   6.560  15.796  0.00  0.00    +0.000 C 
BRANCH  23  25
ATOM     24  C   UNL     1       6.219   4.872  14.735  0.00  0.00    +0.000 C 
ATOM     25  O   UNL     1       6.247   6.168  15.316  0.00  0.00    +0.000 OA
ENDBRANCH  23  25
ENDBRANCH  22  23
ENDBRANCH   1  22
TORSDOF 7
ENDMDL
MODEL 2
REMARK VINA RESULT:      -6.9      0.504      1.368
REMARK  Name = 
REMARK  12 active torsions:
REMARK  status: ('A' for Active; 'I' for Inactive)
REMARK    1  A    between atoms: C_1  and  O_2
REMARK    2  A    between atoms: O_2  and  C_3
REMARK    3  A    between atoms: C_3  and  C_4
REMARK    4  A    between atoms: C_4  and  C_5
REMARK    5  A    between atoms: C_6  and  C_7
REMARK    6  A    between atoms: C_9  and  O_10
REMARK    7  A    between atoms: C_11  and  N_12
REMARK    8  A    between atoms: N_12  and  C_13
REMARK    9  A    between atoms: N_12  and  C_14
REMARK   10  A    between atoms: C_15  and  C_16
REMARK   11  A    between atoms: C_16  and  C_18
REMARK   12  A    between atoms: C_22  and  C_23
REMARK                            x       y       z     vdW  Elec       q    Type
REMARK                         _______ _______ _______ _____ _____    ______ ____
ROOT
ATOM      1  C   UNL     1       4.937   5.672  18.364  0.00  0.00    +0.000 A 
ATOM      2  C   UNL     1       6.073   4.895  18.633  0.00  0.00    +0.000 A 
ATOM      3  C   UNL     1       7.475   5.273  18.247  0.00  0.00    +0.000 C 
ATOM      4  N   UNL     1       5.983   3.686  19.213  0.00  0.00    +0.000 NA
ATOM      5  C   UNL     1       4.767   3.261  19.600  0.00  0.00    +0.000 A 
ATOM      6  C   UNL     1       3.548   3.957  19.534  0.00  0.00    +0.000 A 
ATOM      7  C   UNL     1       3.671   5.213  18.877  0.00  0.00    +0.000 A 
ENDROOT
BRANCH   6   8
ATOM      8  N   UNL     1       2.348   3.480  20.108  0.00  0.00    +0.000 N 
ATOM      9  C   UNL     1       2.293   3.351  21.575  0.00  0.00    +0.000 C 
ATOM     10  C   UNL     1       1.656   2.371  19.442  0.00  0.00    +0.000 C 
ENDBRANCH   6   8
BRANCH   5  11
ATOM     11  O   UNL     1       4.864   1.973  20.020  0.00  0.00    +0.000 OA
ATOM     12  H   UNL     1       4.616   1.526  19.191  0.00  0.00    +0.000 HD
ENDBRANCH   5  11
BRANCH   7  13
ATOM     13  C   UNL     1       2.475   6.039  18.552  0.00  0.00    +0.000 C 
ATOM     14  O   UNL     1       1.846   5.709  17.547  0.00  0.00    +0.000 OA
BRANCH  13  15
ATOM     15  C   UNL     1       1.962   7.213  19.334  0.00  0.00    +0.000 A 
ATOM     16  C   UNL     1       1.607   7.181  20.683  0.00  0.00    +0.000 A 
ATOM     17  C   UNL     1       1.122   8.337  21.309  0.00  0.00    +0.000 A 
ATOM     18  C   UNL     1       1.011   9.545  20.603  0.00  0.00    +0.000 A 
ATOM     19  C   UNL     1       1.368   9.596  19.256  0.00  0.00    +0.000 A 
ATOM     20  C   UNL     1       1.329  10.886  18.486  0.00  0.00    +0.000 C 
ATOM     21  C   UNL     1       1.828   8.426  18.634  0.00  0.00    +0.000 A 
ENDBRANCH  13  15
ENDBRANCH   7  13
BRANCH   1  22
ATOM     22  C   UNL     1       5.075   6.923  17.512  0.00  0.00    +0.000 C 
BRANCH  22  23
ATOM     23  C   UNL     1       4.843   6.709  16.020  0.00  0.00    +0.000 C 
BRANCH  23  25
ATOM     24  C   UNL     1       5.975   5.012  14.836  0.00  0.00    +0.000 C 
ATOM     25  O   UNL     1       6.078   6.299  15.429  0.00  0.00    +0.000 OA
ENDBRANCH  23  25
ENDBRANCH  22  23
ENDBRANCH   1  22
TORSDOF 7
ENDMDL
MODEL 3
REMARK VINA RESULT:      -6.5      0.856      1.195
REMARK  Name = 
REMARK  12 active torsions:
REMARK  status: ('A' for Active; 'I' for Inactive)
REMARK    1  A    between atoms: C_1  and  O_2
REMARK    2  A    between atoms: O_2  and  C_3
REMARK    3  A    between atoms: C_3  and  C_4
REMARK    4  A    between atoms: C_4  and  C_5
REMARK    5  A    between atoms: C_6  and  C_7
REMARK    6  A    between atoms: C_9  and  O_10
REMARK    7  A    between atoms: C_11  and  N_12
REMARK    8  A    between atoms: N_12  and  C_13
REMARK    9  A    between atoms: N_12  and  C_14
REMARK   10  A    between atoms: C_15  and  C_16
REMARK   11  A    between atoms: C_16  and  C_18
REMARK   12  A    between atoms: C_22  and  C_23
REMARK                            x       y       z     vdW  Elec       q    Type
REMARK                         _______ _______ _______ _____ _____    ______ ____
ROOT
ATOM      1  C   UNL     1       4.821   5.192  17.944  0.00  0.00    +0.000 A 
ATOM      2  C   UNL     1       5.931   4.432  18.338  0.00  0.00    +0.000 A 
ATOM      3  C   UNL     1       7.326   4.627  17.813  0.00  0.00    +0.000 C 
ATOM      4  N   UNL     1       5.817   3.399  19.189  0.00  0.00    +0.000 NA
ATOM      5  C   UNL     1       4.606   3.148  19.717  0.00  0.00    +0.000 A 
ATOM      6  C   UNL     1       3.419   3.881  19.543  0.00  0.00    +0.000 A 
ATOM      7  C   UNL     1       3.565   4.940  18.604  0.00  0.00    +0.000 A 
ENDROOT
BRANCH   6   8
ATOM      8  N   UNL     1       2.232   3.622  20.264  0.00  0.00    +0.000 N 
ATOM      9  C   UNL     1       2.297   3.677  21.736  0.00  0.00    +0.000 C 
ATOM     10  C   UNL     1       1.366   2.532  19.803  0.00  0.00    +0.000 C 
ENDBRANCH   6   8
BRANCH   5  11
ATOM     11  O   UNL     1       4.665   1.990  20.424  0.00  0.00    +0.000 OA
ATOM     12  H   UNL     1       4.786   2.364  21.315  0.00  0.00    +0.000 HD
ENDBRANCH   5  11
BRANCH   7  13
ATOM     13  C   UNL     1       2.393   5.737  18.146  0.00  0.00    +0.000 C 
ATOM     14  O   UNL     1       1.632   5.177  17.359  0.00  0.00    +0.000 OA
BRANCH  13  15
ATOM     15  C   UNL     1       2.050   7.138  18.562  0.00  0.00    +0.000 A 
ATOM     16  C   UNL     1       1.959   8.229  17.695  0.00  0.00    +0.000 A 
ATOM     17  C   UNL     1       1.648   9.500  18.197  0.00  0.00    +0.000 A 
ATOM     18  C   UNL     1       1.397   9.693  19.564  0.00  0.00    +0.000 A 
ATOM     19  C   UNL     1       1.478   8.613  20.443  0.00  0.00    +0.000 A 
ATOM     20  C   UNL     1       1.150   8.765  21.901  0.00  0.00    +0.000 C 
ATOM     21  C   UNL     1       1.815   7.350  19.933  0.00  0.00    +0.000 A 
ENDBRANCH  13  15
ENDBRANCH   7  13
BRANCH   1  22
ATOM     22  C   UNL     1       4.970   6.200  16.816  0.00  0.00    +0.000 C 
BRANCH  22  23
ATOM     23  C   UNL     1       5.556   7.544  17.233  0.00  0.00    +0.000 C 
BRANCH  23  25
ATOM     24  C   UNL     1       7.782   8.213  17.636  0.00  0.00    +0.000 C 
ATOM     25  O   UNL     1       6.879   7.640  16.700  0.00  0.00    +0.000 OA
ENDBRANCH  23  25
ENDBRANCH  22  23
ENDBRANCH   1  22
TORSDOF 7
ENDMDL
MODEL 4
REMARK VINA RESULT:      -6.4      1.935      5.311
REMARK  Name = 
REMARK  12 active torsions:
REMARK  status: ('A' for Active; 'I' for Inactive)
REMARK    1  A    between atoms: C_1  and  O_2
REMARK    2  A    between atoms: O_2  and  C_3
REMARK    3  A    between atoms: C_3  and  C_4
REMARK    4  A    between atoms: C_4  and  C_5
REMARK    5  A    between atoms: C_6  and  C_7
REMARK    6  A    between atoms: C_9  and  O_10
REMARK    7  A    between atoms: C_11  and  N_12
REMARK    8  A    between atoms: N_12  and  C_13
REMARK    9  A    between atoms: N_12  and  C_14
REMARK   10  A    between atoms: C_15  and  C_16
REMARK   11  A    between atoms: C_16  and  C_18
REMARK   12  A    between atoms: C_22  and  C_23
REMARK                            x       y       z     vdW  Elec       q    Type
REMARK                         _______ _______ _______ _____ _____    ______ ____
ROOT
ATOM      1  C   UNL     1       2.553   5.993  19.082  0.00  0.00    +0.000 A 
ATOM      2  C   UNL     1       2.064   6.334  20.351  0.00  0.00    +0.000 A 
ATOM      3  C   UNL     1       1.755   7.735  20.798  0.00  0.00    +0.000 C 
ATOM      4  N   UNL     1       1.892   5.413  21.315  0.00  0.00    +0.000 NA
ATOM      5  C   UNL     1       2.137   4.127  21.009  0.00  0.00    +0.000 A 
ATOM      6  C   UNL     1       2.501   3.590  19.762  0.00  0.00    +0.000 A 
ATOM      7  C   UNL     1       2.716   4.595  18.777  0.00  0.00    +0.000 A 
ENDROOT
BRANCH   6   8
ATOM      8  N   UNL     1       2.588   2.203  19.507  0.00  0.00    +0.000 N 
ATOM      9  C   UNL     1       3.907   1.653  19.144  0.00  0.00    +0.000 C 
ATOM     10  C   UNL     1       1.510   1.572  18.738  0.00  0.00    +0.000 C 
ENDBRANCH   6   8
BRANCH   5  11
ATOM     11  O   UNL     1       2.052   3.381  22.141  0.00  0.00    +0.000 OA
ATOM     12  H   UNL     1       2.636   2.646  21.880  0.00  0.00    +0.000 HD
ENDBRANCH   5  11
BRANCH   7  13
ATOM     13  C   UNL     1       3.268   4.259  17.435  0.00  0.00    +0.000 C 
ATOM     14  O   UNL     1       2.458   3.853  16.603  0.00  0.00    +0.000 OA
BRANCH  13  15
ATOM     15  C   UNL     1       4.700   4.382  17.004  0.00  0.00    +0.000 A 
ATOM     16  C   UNL     1       5.775   4.619  17.862  0.00  0.00    +0.000 A 
ATOM     17  C   UNL     1       7.073   4.734  17.345  0.00  0.00    +0.000 A 
ATOM     18  C   UNL     1       7.317   4.585  15.971  0.00  0.00    +0.000 A 
ATOM     19  C   UNL     1       6.255   4.340  15.101  0.00  0.00    +0.000 A 
ATOM     20  C   UNL     1       6.484   4.107  13.635  0.00  0.00    +0.000 C 
ATOM     21  C   UNL     1       4.957   4.253  15.626  0.00  0.00    +0.000 A 
ENDBRANCH  13  15
ENDBRANCH   7  13
BRANCH   1  22
ATOM     22  C   UNL     1       2.936   7.097  18.111  0.00  0.00    +0.000 C 
BRANCH  22  23
ATOM     23  C   UNL     1       1.781   7.986  17.664  0.00  0.00    +0.000 C 
BRANCH  23  25
ATOM     24  C   UNL     1       1.588  10.275  18.199  0.00  0.00    +0.000 C 
ATOM     25  O   UNL     1       2.290   9.303  17.438  0.00  0.00    +0.000 OA
ENDBRANCH  23  25
ENDBRANCH  22  23
ENDBRANCH   1  22
TORSDOF 7
ENDMDL
MODEL 5
REMARK VINA RESULT:      -6.3      1.912      4.982
REMARK  Name = 
REMARK  12 active torsions:
REMARK  status: ('A' for Active; 'I' for Inactive)
REMARK    1  A    between atoms: C_1  and  O_2
REMARK    2  A    between atoms: O_2  and  C_3
REMARK    3  A    between atoms: C_3  and  C_4
REMARK    4  A    between atoms: C_4  and  C_5
REMARK    5  A    between atoms: C_6  and  C_7
REMARK    6  A    between atoms: C_9  and  O_10
REMARK    7  A    between atoms: C_11  and  N_12
REMARK    8  A    between atoms: N_12  and  C_13
REMARK    9  A    between atoms: N_12  and  C_14
REMARK   10  A    between atoms: C_15  and  C_16
REMARK   11  A    between atoms: C_16  and  C_18
REMARK   12  A    between atoms: C_22  and  C_23
REMARK                            x       y       z     vdW  Elec       q    Type
REMARK                         _______ _______ _______ _____ _____    ______ ____
ROOT
ATOM      1  C   UNL     1       2.537   6.017  19.132  0.00  0.00    +0.000 A 
ATOM      2  C   UNL     1       2.026   6.336  20.398  0.00  0.00    +0.000 A 
ATOM      3  C   UNL     1       1.712   7.730  20.863  0.00  0.00    +0.000 C 
ATOM      4  N   UNL     1       1.836   5.399  21.343  0.00  0.00    +0.000 NA
ATOM      5  C   UNL     1       2.085   4.118  21.019  0.00  0.00    +0.000 A 
ATOM      6  C   UNL     1       2.470   3.602  19.770  0.00  0.00    +0.000 A 
ATOM      7  C   UNL     1       2.703   4.623  18.806  0.00  0.00    +0.000 A 
ENDROOT
BRANCH   6   8
ATOM      8  N   UNL     1       2.560   2.219  19.493  0.00  0.00    +0.000 N 
ATOM      9  C   UNL     1       3.872   1.685  19.085  0.00  0.00    +0.000 C 
ATOM     10  C   UNL     1       1.465   1.591  18.745  0.00  0.00    +0.000 C 
ENDBRANCH   6   8
BRANCH   5  11
ATOM     11  O   UNL     1       1.980   3.353  22.136  0.00  0.00    +0.000 OA
ATOM     12  H   UNL     1       1.606   2.550  21.733  0.00  0.00    +0.000 HD
ENDBRANCH   5  11
BRANCH   7  13
ATOM     13  C   UNL     1       3.277   4.309  17.468  0.00  0.00    +0.000 C 
ATOM     14  O   UNL     1       2.485   3.904  16.620  0.00  0.00    +0.000 OA
BRANCH  13  15
ATOM     15  C   UNL     1       4.714   4.454  17.058  0.00  0.00    +0.000 A 
ATOM     16  C   UNL     1       5.205   4.225  15.772  0.00  0.00    +0.000 A 
ATOM     17  C   UNL     1       6.573   4.374  15.506  0.00  0.00    +0.000 A 
ATOM     18  C   UNL     1       7.463   4.780  16.513  0.00  0.00    +0.000 A 
ATOM     19  C   UNL     1       6.987   5.019  17.802  0.00  0.00    +0.000 A 
ATOM     20  C   UNL     1       7.895   5.521  18.890  0.00  0.00    +0.000 C 
ATOM     21  C   UNL     1       5.620   4.842  18.063  0.00  0.00    +0.000 A 
ENDBRANCH  13  15
ENDBRANCH   7  13
BRANCH   1  22
ATOM     22  C   UNL     1       2.938   7.137  18.186  0.00  0.00    +0.000 C 
BRANCH  22  23
ATOM     23  C   UNL     1       1.774   7.929  17.603  0.00  0.00    +0.000 C 
BRANCH  23  25
ATOM     24  C   UNL     1       1.379  10.162  18.255  0.00  0.00    +0.000 C 
ATOM     25  O   UNL     1       2.183   9.292  17.469  0.00  0.00    +0.000 OA
ENDBRANCH  23  25
ENDBRANCH  22  23
ENDBRANCH   1  22
TORSDOF 7
ENDMDL
MODEL 6
REMARK VINA RESULT:      -6.2      1.747      4.938
REMARK  Name = 
REMARK  12 active torsions:
REMARK  status: ('A' for Active; 'I' for Inactive)
REMARK    1  A    between atoms: C_1  and  O_2
REMARK    2  A    between atoms: O_2  and  C_3
REMARK    3  A    between atoms: C_3  and  C_4
REMARK    4  A    between atoms: C_4  and  C_5
REMARK    5  A    between atoms: C_6  and  C_7
REMARK    6  A    between atoms: C_9  and  O_10
REMARK    7  A    between atoms: C_11  and  N_12
REMARK    8  A    between atoms: N_12  and  C_13
REMARK    9  A    between atoms: N_12  and  C_14
REMARK   10  A    between atoms: C_15  and  C_16
REMARK   11  A    between atoms: C_16  and  C_18
REMARK   12  A    between atoms: C_22  and  C_23
REMARK                            x       y       z     vdW  Elec       q    Type
REMARK                         _______ _______ _______ _____ _____    ______ ____
ROOT
ATOM      1  C   UNL     1       2.573   6.372  19.404  0.00  0.00    +0.000 A 
ATOM      2  C   UNL     1       1.642   6.269  20.447  0.00  0.00    +0.000 A 
ATOM      3  C   UNL     1       0.805   7.408  20.958  0.00  0.00    +0.000 C 
ATOM      4  N   UNL     1       1.470   5.126  21.134  0.00  0.00    +0.000 NA
ATOM      5  C   UNL     1       2.172   4.047  20.747  0.00  0.00    +0.000 A 
ATOM      6  C   UNL     1       3.042   3.930  19.650  0.00  0.00    +0.000 A 
ATOM      7  C   UNL     1       3.234   5.167  18.972  0.00  0.00    +0.000 A 
ENDROOT
BRANCH   6   8
ATOM      8  N   UNL     1       3.616   2.707  19.238  0.00  0.00    +0.000 N 
ATOM      9  C   UNL     1       2.751   1.747  18.528  0.00  0.00    +0.000 C 
ATOM     10  C   UNL     1       4.532   2.027  20.161  0.00  0.00    +0.000 C 
ENDBRANCH   6   8
BRANCH   5  11
ATOM     11  O   UNL     1       1.975   3.048  21.646  0.00  0.00    +0.000 OA
ATOM     12  H   UNL     1       2.182   2.288  21.073  0.00  0.00    +0.000 HD
ENDBRANCH   5  11
BRANCH   7  13
ATOM     13  C   UNL     1       4.243   5.307  17.884  0.00  0.00    +0.000 C 
ATOM     14  O   UNL     1       3.907   4.888  16.778  0.00  0.00    +0.000 OA
BRANCH  13  15
ATOM     15  C   UNL     1       5.609   5.917  18.008  0.00  0.00    +0.000 A 
ATOM     16  C   UNL     1       6.103   6.940  17.199  0.00  0.00    +0.000 A 
ATOM     17  C   UNL     1       7.404   7.422  17.393  0.00  0.00    +0.000 A 
ATOM     18  C   UNL     1       8.217   6.909  18.416  0.00  0.00    +0.000 A 
ATOM     19  C   UNL     1       7.736   5.891  19.238  0.00  0.00    +0.000 A 
ATOM     20  C   UNL     1       8.550   5.363  20.386  0.00  0.00    +0.000 C 
ATOM     21  C   UNL     1       6.441   5.398  19.017  0.00  0.00    +0.000 A 
ENDBRANCH  13  15
ENDBRANCH   7  13
BRANCH   1  22
ATOM     22  C   UNL     1       2.883   7.738  18.815  0.00  0.00    +0.000 C 
BRANCH  22  23
ATOM     23  C   UNL     1       1.906   8.207  17.742  0.00  0.00    +0.000 C 
BRANCH  23  25
ATOM     24  C   UNL     1       0.381   9.947  18.200  0.00  0.00    +0.000 C 
ATOM     25  O   UNL     1       1.727   9.618  17.887  0.00  0.00    +0.000 OA
ENDBRANCH  23  25
ENDBRANCH  22  23
ENDBRANCH   1  22
TORSDOF 7
ENDMDL
MODEL 7
REMARK VINA RESULT:      -6.2      2.250      5.714
REMARK  Name = 
REMARK  12 active torsions:
REMARK  status: ('A' for Active; 'I' for Inactive)
REMARK    1  A    between atoms: C_1  and  O_2
REMARK    2  A    between atoms: O_2  and  C_3
REMARK    3  A    between atoms: C_3  and  C_4
REMARK    4  A    between atoms: C_4  and  C_5
REMARK    5  A    between atoms: C_6  and  C_7
REMARK    6  A    between atoms: C_9  and  O_10
REMARK    7  A    between atoms: C_11  and  N_12
REMARK    8  A    between atoms: N_12  and  C_13
REMARK    9  A    between atoms: N_12  and  C_14
REMARK   10  A    between atoms: C_15  and  C_16
REMARK   11  A    between atoms: C_16  and  C_18
REMARK   12  A    between atoms: C_22  and  C_23
REMARK                            x       y       z     vdW  Elec       q    Type
REMARK                         _______ _______ _______ _____ _____    ______ ____
ROOT
ATOM      1  C   UNL     1       4.330   6.428  17.443  0.00  0.00    +0.000 A 
ATOM      2  C   UNL     1       3.143   6.967  17.958  0.00  0.00    +0.000 A 
ATOM      3  C   UNL     1       2.780   8.425  17.916  0.00  0.00    +0.000 C 
ATOM      4  N   UNL     1       2.243   6.209  18.607  0.00  0.00    +0.000 NA
ATOM      5  C   UNL     1       2.476   4.888  18.692  0.00  0.00    +0.000 A 
ATOM      6  C   UNL     1       3.536   4.160  18.124  0.00  0.00    +0.000 A 
ATOM      7  C   UNL     1       4.491   4.997  17.483  0.00  0.00    +0.000 A 
ENDROOT
BRANCH   6   8
ATOM      8  N   UNL     1       3.610   2.749  18.145  0.00  0.00    +0.000 N 
ATOM      9  C   UNL     1       2.526   1.995  17.488  0.00  0.00    +0.000 C 
ATOM     10  C   UNL     1       4.046   2.097  19.384  0.00  0.00    +0.000 C 
ENDBRANCH   6   8
BRANCH   5  11
ATOM     11  O   UNL     1       1.543   4.327  19.503  0.00  0.00    +0.000 OA
ATOM     12  H   UNL     1       1.086   3.773  18.845  0.00  0.00    +0.000 HD
ENDBRANCH   5  11
BRANCH   7  13
ATOM     13  C   UNL     1       5.774   4.450  16.960  0.00  0.00    +0.000 C 
ATOM     14  O   UNL     1       6.519   3.930  17.789  0.00  0.00    +0.000 OA
BRANCH  13  15
ATOM     15  C   UNL     1       6.232   4.462  15.530  0.00  0.00    +0.000 A 
ATOM     16  C   UNL     1       7.456   4.965  15.087  0.00  0.00    +0.000 A 
ATOM     17  C   UNL     1       7.772   4.942  13.722  0.00  0.00    +0.000 A 
ATOM     18  C   UNL     1       6.883   4.389  12.786  0.00  0.00    +0.000 A 
ATOM     19  C   UNL     1       5.659   3.875  13.213  0.00  0.00    +0.000 A 
ATOM     20  C   UNL     1       4.711   3.214  12.253  0.00  0.00    +0.000 C 
ATOM     21  C   UNL     1       5.342   3.928  14.579  0.00  0.00    +0.000 A 
ENDBRANCH  13  15
ENDBRANCH   7  13
BRANCH   1  22
ATOM     22  C   UNL     1       5.408   7.364  16.920  0.00  0.00    +0.000 C 
BRANCH  22  23
ATOM     23  C   UNL     1       6.685   7.398  17.753  0.00  0.00    +0.000 C 
BRANCH  23  25
ATOM     24  C   UNL     1       8.178   9.218  17.887  0.00  0.00    +0.000 C 
ATOM     25  O   UNL     1       7.650   8.192  17.059  0.00  0.00    +0.000 OA
ENDBRANCH  23  25
ENDBRANCH  22  23
ENDBRANCH   1  22
TORSDOF 7
ENDMDL
MODEL 8
REMARK VINA RESULT:      -6.1      2.173      5.694
REMARK  Name = 
REMARK  12 active torsions:
REMARK  status: ('A' for Active; 'I' for Inactive)
REMARK    1  A    between atoms: C_1  and  O_2
REMARK    2  A    between atoms: O_2  and  C_3
REMARK    3  A    between atoms: C_3  and  C_4
REMARK    4  A    between atoms: C_4  and  C_5
REMARK    5  A    between atoms: C_6  and  C_7
REMARK    6  A    between atoms: C_9  and  O_10
REMARK    7  A    between atoms: C_11  and  N_12
REMARK    8  A    between atoms: N_12  and  C_13
REMARK    9  A    between atoms: N_12  and  C_14
REMARK   10  A    between atoms: C_15  and  C_16
REMARK   11  A    between atoms: C_16  and  C_18
REMARK   12  A    between atoms: C_22  and  C_23
REMARK                            x       y       z     vdW  Elec       q    Type
REMARK                         _______ _______ _______ _____ _____    ______ ____
ROOT
ATOM      1  C   UNL     1       4.263   6.392  17.399  0.00  0.00    +0.000 A 
ATOM      2  C   UNL     1       3.122   6.886  18.047  0.00  0.00    +0.000 A 
ATOM      3  C   UNL     1       2.612   8.294  17.920  0.00  0.00    +0.000 C 
ATOM      4  N   UNL     1       2.415   6.135  18.909  0.00  0.00    +0.000 NA
ATOM      5  C   UNL     1       2.791   4.856  19.086  0.00  0.00    +0.000 A 
ATOM      6  C   UNL     1       3.817   4.158  18.426  0.00  0.00    +0.000 A 
ATOM      7  C   UNL     1       4.571   4.993  17.554  0.00  0.00    +0.000 A 
ENDROOT
BRANCH   6   8
ATOM      8  N   UNL     1       4.035   2.770  18.575  0.00  0.00    +0.000 N 
ATOM      9  C   UNL     1       3.049   1.852  17.975  0.00  0.00    +0.000 C 
ATOM     10  C   UNL     1       4.508   2.279  19.874  0.00  0.00    +0.000 C 
ENDBRANCH   6   8
BRANCH   5  11
ATOM     11  O   UNL     1       2.057   4.316  20.093  0.00  0.00    +0.000 OA
ATOM     12  H   UNL     1       1.922   3.426  19.720  0.00  0.00    +0.000 HD
ENDBRANCH   5  11
BRANCH   7  13
ATOM     13  C   UNL     1       5.805   4.498  16.882  0.00  0.00    +0.000 C 
ATOM     14  O   UNL     1       6.742   4.200  17.622  0.00  0.00    +0.000 OA
BRANCH  13  15
ATOM     15  C   UNL     1       6.006   4.318  15.406  0.00  0.00    +0.000 A 
ATOM     16  C   UNL     1       5.193   3.542  14.578  0.00  0.00    +0.000 A 
ATOM     17  C   UNL     1       5.486   3.431  13.212  0.00  0.00    +0.000 A 
ATOM     18  C   UNL     1       6.576   4.114  12.651  0.00  0.00    +0.000 A 
ATOM     19  C   UNL     1       7.394   4.899  13.463  0.00  0.00    +0.000 A 
ATOM     20  C   UNL     1       8.528   5.700  12.888  0.00  0.00    +0.000 C 
ATOM     21  C   UNL     1       7.106   4.983  14.833  0.00  0.00    +0.000 A 
ENDBRANCH  13  15
ENDBRANCH   7  13
BRANCH   1  22
ATOM     22  C   UNL     1       5.145   7.347  16.613  0.00  0.00    +0.000 C 
BRANCH  22  23
ATOM     23  C   UNL     1       6.195   8.077  17.443  0.00  0.00    +0.000 C 
BRANCH  23  25
ATOM     24  C   UNL     1       8.206   7.299  18.400  0.00  0.00    +0.000 C 
ATOM     25  O   UNL     1       7.463   7.464  17.200  0.00  0.00    +0.000 OA
ENDBRANCH  23  25
ENDBRANCH  22  23
ENDBRANCH   1  22
TORSDOF 7
ENDMDL
MODEL 9
REMARK VINA RESULT:      -6.1      1.055      1.798
REMARK  Name = 
REMARK  12 active torsions:
REMARK  status: ('A' for Active; 'I' for Inactive)
REMARK    1  A    between atoms: C_1  and  O_2
REMARK    2  A    between atoms: O_2  and  C_3
REMARK    3  A    between atoms: C_3  and  C_4
REMARK    4  A    between atoms: C_4  and  C_5
REMARK    5  A    between atoms: C_6  and  C_7
REMARK    6  A    between atoms: C_9  and  O_10
REMARK    7  A    between atoms: C_11  and  N_12
REMARK    8  A    between atoms: N_12  and  C_13
REMARK    9  A    between atoms: N_12  and  C_14
REMARK   10  A    between atoms: C_15  and  C_16
REMARK   11  A    between atoms: C_16  and  C_18
REMARK   12  A    between atoms: C_22  and  C_23
REMARK                            x       y       z     vdW  Elec       q    Type
REMARK                         _______ _______ _______ _____ _____    ______ ____
ROOT
ATOM      1  C   UNL     1       4.838   5.650  18.729  0.00  0.00    +0.000 A 
ATOM      2  C   UNL     1       5.792   4.683  19.075  0.00  0.00    +0.000 A 
ATOM      3  C   UNL     1       7.279   4.877  18.970  0.00  0.00    +0.000 C 
ATOM      4  N   UNL     1       5.438   3.450  19.476  0.00  0.00    +0.000 NA
ATOM      5  C   UNL     1       4.127   3.182  19.607  0.00  0.00    +0.000 A 
ATOM      6  C   UNL     1       3.044   4.061  19.435  0.00  0.00    +0.000 A 
ATOM      7  C   UNL     1       3.451   5.343  18.970  0.00  0.00    +0.000 A 
ENDROOT
BRANCH   6   8
ATOM      8  N   UNL     1       1.709   3.721  19.744  0.00  0.00    +0.000 N 
ATOM      9  C   UNL     1       1.397   3.363  21.140  0.00  0.00    +0.000 C 
ATOM     10  C   UNL     1       0.972   2.880  18.794  0.00  0.00    +0.000 C 
ENDBRANCH   6   8
BRANCH   5  11
ATOM     11  O   UNL     1       3.973   1.859  19.871  0.00  0.00    +0.000 OA
ATOM     12  H   UNL     1       3.340   1.926  20.608  0.00  0.00    +0.000 HD
ENDBRANCH   5  11
BRANCH   7  13
ATOM     13  C   UNL     1       2.454   6.373  18.564  0.00  0.00    +0.000 C 
ATOM     14  O   UNL     1       2.029   6.291  17.414  0.00  0.00    +0.000 OA
BRANCH  13  15
ATOM     15  C   UNL     1       1.916   7.481  19.423  0.00  0.00    +0.000 A 
ATOM     16  C   UNL     1       1.674   7.383  20.795  0.00  0.00    +0.000 A 
ATOM     17  C   UNL     1       1.152   8.478  21.495  0.00  0.00    +0.000 A 
ATOM     18  C   UNL     1       0.892   9.693  20.842  0.00  0.00    +0.000 A 
ATOM     19  C   UNL     1       1.136   9.810  19.474  0.00  0.00    +0.000 A 
ATOM     20  C   UNL     1       0.935  11.113  18.753  0.00  0.00    +0.000 C 
ATOM     21  C   UNL     1       1.634   8.699  18.778  0.00  0.00    +0.000 A 
ENDBRANCH  13  15
ENDBRANCH   7  13
BRANCH   1  22
ATOM     22  C   UNL     1       5.293   6.944  18.074  0.00  0.00    +0.000 C 
BRANCH  22  23
ATOM     23  C   UNL     1       5.707   6.811  16.613  0.00  0.00    +0.000 C 
BRANCH  23  25
ATOM     24  C   UNL     1       7.532   8.030  17.476  0.00  0.00    +0.000 C 
ATOM     25  O   UNL     1       7.110   7.068  16.520  0.00  0.00    +0.000 OA
ENDBRANCH  23  25
ENDBRANCH  22  23
ENDBRANCH   1  22
TORSDOF 7
ENDMDL
