MODEL 1
REMARK VINA RESULT:      -6.3      0.000      0.000
REMARK  Name = 
REMARK  5 active torsions:
REMARK  status: ('A' for Active; 'I' for Inactive)
REMARK    1  A    between atoms: N_1  and  C_2
REMARK    2  A    between atoms: C_8  and  S_9
REMARK    3  A    between atoms: S_9  and  S_10
REMARK    4  A    between atoms: S_10  and  C_11
REMARK    5  A    between atoms: C_17  and  N_18
REMARK                            x       y       z     vdW  Elec       q    Type
REMARK                         _______ _______ _______ _____ _____    ______ ____
ROOT
ATOM      1  S   UNL     1       2.876   5.269  18.660  0.00  0.00    +0.000 S 
ENDROOT
BRANCH   1   8
ATOM      2  C   UNL     1       1.912   7.491  20.133  0.00  0.00    +0.000 A 
ATOM      3  C   UNL     1       1.343   8.774  20.177  0.00  0.00    +0.000 A 
ATOM      4  C   UNL     1       1.308   9.580  19.040  0.00  0.00    +0.000 A 
ATOM      5 CL   UNL     1       0.590  11.142  19.117  0.00  0.00    +0.000 Cl
ATOM      6  C   UNL     1       1.823   9.115  17.835  0.00  0.00    +0.000 A 
ATOM      7  C   UNL     1       2.344   7.819  17.760  0.00  0.00    +0.000 A 
ATOM      8  C   UNL     1       2.369   6.987  18.892  0.00  0.00    +0.000 A 
BRANCH   2   9
ATOM      9  N   UNL     1       1.789   6.669  21.271  0.00  0.00    +0.000 N 
ATOM     10  H   UNL     1       0.841   6.355  21.452  0.00  0.00    +0.000 HD
ATOM     11  H   UNL     1       2.222   7.087  22.093  0.00  0.00    +0.000 HD
ENDBRANCH   2   9
ENDBRANCH   1   8
BRANCH   1  12
ATOM     12  S   UNL     1       4.889   5.277  19.084  0.00  0.00    +0.000 S 
BRANCH  12  13
ATOM     13  C   UNL     1       5.673   5.256  17.461  0.00  0.00    +0.000 A 
ATOM     14  C   UNL     1       4.891   5.619  16.350  0.00  0.00    +0.000 A 
ATOM     15  C   UNL     1       5.393   5.497  15.050  0.00  0.00    +0.000 A 
ATOM     16  C   UNL     1       6.675   4.997  14.851  0.00  0.00    +0.000 A 
ATOM     17 CL   UNL     1       7.270   4.777  13.251  0.00  0.00    +0.000 Cl
ATOM     18  C   UNL     1       7.470   4.648  15.940  0.00  0.00    +0.000 A 
ATOM     19  C   UNL     1       7.004   4.814  17.256  0.00  0.00    +0.000 A 
BRANCH  19  20
ATOM     20  N   UNL     1       7.792   4.315  18.310  0.00  0.00    +0.000 N 
ATOM     21  H   UNL     1       7.751   4.877  19.158  0.00  0.00    +0.000 HD
ATOM     22  H   UNL     1       7.610   3.331  18.492  0.00  0.00    +0.000 HD
ENDBRANCH  19  20
ENDBRANCH  12  13
ENDBRANCH   1  12
TORSDOF 5
ENDMDL
MODEL 2
REMARK VINA RESULT:      -6.3      2.474      2.959
REMARK  Name = 
REMARK  5 active torsions:
REMARK  status: ('A' for Active; 'I' for Inactive)
REMARK    1  A    between atoms: N_1  and  C_2
REMARK    2  A    between atoms: C_8  and  S_9
REMARK    3  A    between atoms: S_9  and  S_10
REMARK    4  A    between atoms: S_10  and  C_11
REMARK    5  A    between atoms: C_17  and  N_18
REMARK                            x       y       z     vdW  Elec       q    Type
REMARK                         _______ _______ _______ _____ _____    ______ ____
ROOT
ATOM      1  S   UNL     1       2.306   3.698  17.459  0.00  0.00    +0.000 S 
ENDROOT
BRANCH   1   8
ATOM      2  C   UNL     1       1.781   4.846  19.996  0.00  0.00    +0.000 A 
ATOM      3  C   UNL     1       1.545   5.971  20.804  0.00  0.00    +0.000 A 
ATOM      4  C   UNL     1       1.823   7.255  20.339  0.00  0.00    +0.000 A 
ATOM      5 CL   UNL     1       1.509   8.617  21.343  0.00  0.00    +0.000 Cl
ATOM      6  C   UNL     1       2.323   7.443  19.056  0.00  0.00    +0.000 A 
ATOM      7  C   UNL     1       2.512   6.338  18.218  0.00  0.00    +0.000 A 
ATOM      8  C   UNL     1       2.219   5.039  18.665  0.00  0.00    +0.000 A 
BRANCH   2   9
ATOM      9  N   UNL     1       1.347   3.589  20.463  0.00  0.00    +0.000 N 
ATOM     10  H   UNL     1       1.001   3.601  21.418  0.00  0.00    +0.000 HD
ATOM     11  H   UNL     1       2.047   2.864  20.314  0.00  0.00    +0.000 HD
ENDBRANCH   2   9
ENDBRANCH   1   8
BRANCH   1  12
ATOM     12  S   UNL     1       4.100   2.775  17.861  0.00  0.00    +0.000 S 
BRANCH  12  13
ATOM     13  C   UNL     1       5.304   4.113  17.777  0.00  0.00    +0.000 A 
ATOM     14  C   UNL     1       5.770   4.654  18.988  0.00  0.00    +0.000 A 
ATOM     15  C   UNL     1       6.600   5.779  19.000  0.00  0.00    +0.000 A 
ATOM     16  C   UNL     1       6.958   6.382  17.799  0.00  0.00    +0.000 A 
ATOM     17 CL   UNL     1       7.920   7.809  17.810  0.00  0.00    +0.000 Cl
ATOM     18  C   UNL     1       6.520   5.850  16.588  0.00  0.00    +0.000 A 
ATOM     19  C   UNL     1       5.730   4.688  16.554  0.00  0.00    +0.000 A 
BRANCH  19  20
ATOM     20  N   UNL     1       5.200   4.278  15.316  0.00  0.00    +0.000 N 
ATOM     21  H   UNL     1       5.647   3.449  14.930  0.00  0.00    +0.000 HD
ATOM     22  H   UNL     1       4.187   4.193  15.342  0.00  0.00    +0.000 HD
ENDBRANCH  19  20
ENDBRANCH  12  13
ENDBRANCH   1  12
TORSDOF 5
ENDMDL
MODEL 3
REMARK VINA RESULT:      -6.2      2.543      3.173
REMARK  Name = 
REMARK  5 active torsions:
REMARK  status: ('A' for Active; 'I' for Inactive)
REMARK    1  A    between atoms: N_1  and  C_2
REMARK    2  A    between atoms: C_8  and  S_9
REMARK    3  A    between atoms: S_9  and  S_10
REMARK    4  A    between atoms: S_10  and  C_11
REMARK    5  A    between atoms: C_17  and  N_18
REMARK                            x       y       z     vdW  Elec       q    Type
REMARK                         _______ _______ _______ _____ _____    ______ ____
ROOT
ATOM      1  S   UNL     1       2.196   8.345  18.379  0.00  0.00    +0.000 S 
ENDROOT
BRANCH   1   8
ATOM      2  C   UNL     1       0.269  10.151  19.409  0.00  0.00    +0.000 A 
ATOM      3  C   UNL     1      -0.386  10.751  20.497  0.00  0.00    +0.000 A 
ATOM      4  C   UNL     1      -0.289  10.206  21.777  0.00  0.00    +0.000 A 
ATOM      5 CL   UNL     1      -1.087  10.971  23.097  0.00  0.00    +0.000 Cl
ATOM      6  C   UNL     1       0.476   9.067  21.998  0.00  0.00    +0.000 A 
ATOM      7  C   UNL     1       1.178   8.489  20.936  0.00  0.00    +0.000 A 
ATOM      8  C   UNL     1       1.107   9.035  19.644  0.00  0.00    +0.000 A 
BRANCH   2   9
ATOM      9  N   UNL     1       0.255  10.824  18.171  0.00  0.00    +0.000 N 
ATOM     10  H   UNL     1       0.531  11.799  18.229  0.00  0.00    +0.000 HD
ATOM     11  H   UNL     1      -0.630  10.702  17.680  0.00  0.00    +0.000 HD
ENDBRANCH   2   9
ENDBRANCH   1   8
BRANCH   1  12
ATOM     12  S   UNL     1       2.714   6.496  19.117  0.00  0.00    +0.000 S 
BRANCH  12  13
ATOM     13  C   UNL     1       3.816   5.822  17.861  0.00  0.00    +0.000 A 
ATOM     14  C   UNL     1       4.496   6.730  17.029  0.00  0.00    +0.000 A 
ATOM     15  C   UNL     1       5.262   6.279  15.950  0.00  0.00    +0.000 A 
ATOM     16  C   UNL     1       5.340   4.916  15.683  0.00  0.00    +0.000 A 
ATOM     17 CL   UNL     1       6.221   4.360  14.313  0.00  0.00    +0.000 Cl
ATOM     18  C   UNL     1       4.686   4.001  16.505  0.00  0.00    +0.000 A 
ATOM     19  C   UNL     1       3.957   4.432  17.627  0.00  0.00    +0.000 A 
BRANCH  19  20
ATOM     20  N   UNL     1       3.204   3.479  18.338  0.00  0.00    +0.000 N 
ATOM     21  H   UNL     1       2.534   2.969  17.764  0.00  0.00    +0.000 HD
ATOM     22  H   UNL     1       3.793   2.857  18.886  0.00  0.00    +0.000 HD
ENDBRANCH  19  20
ENDBRANCH  12  13
ENDBRANCH   1  12
TORSDOF 5
ENDMDL
MODEL 4
REMARK VINA RESULT:      -6.1      2.573      7.784
REMARK  Name = 
REMARK  5 active torsions:
REMARK  status: ('A' for Active; 'I' for Inactive)
REMARK    1  A    between atoms: N_1  and  C_2
REMARK    2  A    between atoms: C_8  and  S_9
REMARK    3  A    between atoms: S_9  and  S_10
REMARK    4  A    between atoms: S_10  and  C_11
REMARK    5  A    between atoms: C_17  and  N_18
REMARK                            x       y       z     vdW  Elec       q    Type
REMARK                         _______ _______ _______ _____ _____    ______ ____
ROOT
ATOM      1  S   UNL     1       2.836   6.636  19.132  0.00  0.00    +0.000 S 
ENDROOT
BRANCH   1   8
ATOM      2  C   UNL     1       3.645   4.421  17.559  0.00  0.00    +0.000 A 
ATOM      3  C   UNL     1       4.493   3.851  16.594  0.00  0.00    +0.000 A 
ATOM      4  C   UNL     1       5.291   4.655  15.781  0.00  0.00    +0.000 A 
ATOM      5 CL   UNL     1       6.333   3.930  14.619  0.00  0.00    +0.000 Cl
ATOM      6  C   UNL     1       5.272   6.037  15.925  0.00  0.00    +0.000 A 
ATOM      7  C   UNL     1       4.474   6.618  16.917  0.00  0.00    +0.000 A 
ATOM      8  C   UNL     1       3.679   5.822  17.758  0.00  0.00    +0.000 A 
BRANCH   2   9
ATOM      9  N   UNL     1       2.973   3.558  18.448  0.00  0.00    +0.000 N 
ATOM     10  H   UNL     1       2.745   2.653  18.048  0.00  0.00    +0.000 HD
ATOM     11  H   UNL     1       2.166   4.006  18.878  0.00  0.00    +0.000 HD
ENDBRANCH   2   9
ENDBRANCH   1   8
BRANCH   1  12
ATOM     12  S   UNL     1       2.062   8.351  18.303  0.00  0.00    +0.000 S 
BRANCH  12  13
ATOM     13  C   UNL     1       1.249   9.172  19.685  0.00  0.00    +0.000 A 
ATOM     14  C   UNL     1       1.228   8.506  20.924  0.00  0.00    +0.000 A 
ATOM     15  C   UNL     1       0.502   9.020  22.003  0.00  0.00    +0.000 A 
ATOM     16  C   UNL     1      -0.223  10.197  21.846  0.00  0.00    +0.000 A 
ATOM     17 CL   UNL     1      -1.176  10.796  23.148  0.00  0.00    +0.000 Cl
ATOM     18  C   UNL     1      -0.201  10.880  20.632  0.00  0.00    +0.000 A 
ATOM     19  C   UNL     1       0.567  10.407  19.553  0.00  0.00    +0.000 A 
BRANCH  19  20
ATOM     20  N   UNL     1       0.441  11.057  18.311  0.00  0.00    +0.000 N 
ATOM     21  H   UNL     1      -0.182  10.585  17.659  0.00  0.00    +0.000 HD
ATOM     22  H   UNL     1       0.213  12.043  18.416  0.00  0.00    +0.000 HD
ENDBRANCH  19  20
ENDBRANCH  12  13
ENDBRANCH   1  12
TORSDOF 5
ENDMDL
MODEL 5
REMARK VINA RESULT:      -6.1      1.235      6.712
REMARK  Name = 
REMARK  5 active torsions:
REMARK  status: ('A' for Active; 'I' for Inactive)
REMARK    1  A    between atoms: N_1  and  C_2
REMARK    2  A    between atoms: C_8  and  S_9
REMARK    3  A    between atoms: S_9  and  S_10
REMARK    4  A    between atoms: S_10  and  C_11
REMARK    5  A    between atoms: C_17  and  N_18
REMARK                            x       y       z     vdW  Elec       q    Type
REMARK                         _______ _______ _______ _____ _____    ______ ____
ROOT
ATOM      1  S   UNL     1       5.722   5.230  19.020  0.00  0.00    +0.000 S 
ENDROOT
BRANCH   1   8
ATOM      2  C   UNL     1       6.923   5.495  16.466  0.00  0.00    +0.000 A 
ATOM      3  C   UNL     1       6.964   5.185  15.096  0.00  0.00    +0.000 A 
ATOM      4  C   UNL     1       6.231   4.115  14.583  0.00  0.00    +0.000 A 
ATOM      5 CL   UNL     1       6.286   3.768  12.898  0.00  0.00    +0.000 Cl
ATOM      6  C   UNL     1       5.433   3.347  15.422  0.00  0.00    +0.000 A 
ATOM      7  C   UNL     1       5.338   3.674  16.778  0.00  0.00    +0.000 A 
ATOM      8  C   UNL     1       6.054   4.761  17.308  0.00  0.00    +0.000 A 
BRANCH   2   9
ATOM      9  N   UNL     1       7.565   6.671  16.902  0.00  0.00    +0.000 N 
ATOM     10  H   UNL     1       7.982   7.214  16.152  0.00  0.00    +0.000 HD
ATOM     11  H   UNL     1       8.222   6.489  17.659  0.00  0.00    +0.000 HD
ENDBRANCH   2   9
ENDBRANCH   1   8
BRANCH   1  12
ATOM     12  S   UNL     1       3.729   4.797  19.282  0.00  0.00    +0.000 S 
BRANCH  12  13
ATOM     13  C   UNL     1       2.904   6.377  19.019  0.00  0.00    +0.000 A 
ATOM     14  C   UNL     1       3.200   7.083  17.839  0.00  0.00    +0.000 A 
ATOM     15  C   UNL     1       2.701   8.373  17.630  0.00  0.00    +0.000 A 
ATOM     16  C   UNL     1       1.916   8.973  18.608  0.00  0.00    +0.000 A 
ATOM     17 CL   UNL     1       1.360  10.588  18.389  0.00  0.00    +0.000 Cl
ATOM     18  C   UNL     1       1.598   8.284  19.776  0.00  0.00    +0.000 A 
ATOM     19  C   UNL     1       2.045   6.966  19.979  0.00  0.00    +0.000 A 
BRANCH  19  20
ATOM     20  N   UNL     1       1.813   6.370  21.234  0.00  0.00    +0.000 N 
ATOM     21  H   UNL     1       0.962   6.689  21.692  0.00  0.00    +0.000 HD
ATOM     22  H   UNL     1       1.871   5.356  21.192  0.00  0.00    +0.000 HD
ENDBRANCH  19  20
ENDBRANCH  12  13
ENDBRANCH   1  12
TORSDOF 5
ENDMDL
MODEL 6
REMARK VINA RESULT:      -6.0      3.485      6.408
REMARK  Name = 
REMARK  5 active torsions:
REMARK  status: ('A' for Active; 'I' for Inactive)
REMARK    1  A    between atoms: N_1  and  C_2
REMARK    2  A    between atoms: C_8  and  S_9
REMARK    3  A    between atoms: S_9  and  S_10
REMARK    4  A    between atoms: S_10  and  C_11
REMARK    5  A    between atoms: C_17  and  N_18
REMARK                            x       y       z     vdW  Elec       q    Type
REMARK                         _______ _______ _______ _____ _____    ______ ____
ROOT
ATOM      1  S   UNL     1       5.909   6.566  17.810  0.00  0.00    +0.000 S 
ENDROOT
BRANCH   1   8
ATOM      2  C   UNL     1       6.946   4.501  16.169  0.00  0.00    +0.000 A 
ATOM      3  C   UNL     1       7.045   3.865  14.920  0.00  0.00    +0.000 A 
ATOM      4  C   UNL     1       6.138   4.148  13.900  0.00  0.00    +0.000 A 
ATOM      5 CL   UNL     1       6.292   3.367  12.374  0.00  0.00    +0.000 Cl
ATOM      6  C   UNL     1       5.128   5.082  14.100  0.00  0.00    +0.000 A 
ATOM      7  C   UNL     1       5.048   5.764  15.319  0.00  0.00    +0.000 A 
ATOM      8  C   UNL     1       5.966   5.504  16.350  0.00  0.00    +0.000 A 
BRANCH   2   9
ATOM      9  N   UNL     1       7.974   4.284  17.109  0.00  0.00    +0.000 N 
ATOM     10  H   UNL     1       7.859   3.436  17.656  0.00  0.00    +0.000 HD
ATOM     11  H   UNL     1       8.134   5.103  17.694  0.00  0.00    +0.000 HD
ENDBRANCH   2   9
ENDBRANCH   1   8
BRANCH   1  12
ATOM     12  S   UNL     1       5.775   5.249  19.384  0.00  0.00    +0.000 S 
BRANCH  12  13
ATOM     13  C   UNL     1       4.264   4.325  19.048  0.00  0.00    +0.000 A 
ATOM     14  C   UNL     1       3.159   5.035  18.545  0.00  0.00    +0.000 A 
ATOM     15  C   UNL     1       1.917   4.412  18.388  0.00  0.00    +0.000 A 
ATOM     16  C   UNL     1       1.767   3.077  18.748  0.00  0.00    +0.000 A 
ATOM     17 CL   UNL     1       0.224   2.325  18.625  0.00  0.00    +0.000 Cl
ATOM     18  C   UNL     1       2.854   2.353  19.233  0.00  0.00    +0.000 A 
ATOM     19  C   UNL     1       4.123   2.948  19.346  0.00  0.00    +0.000 A 
BRANCH  19  20
ATOM     20  N   UNL     1       5.149   2.214  19.972  0.00  0.00    +0.000 N 
ATOM     21  H   UNL     1       4.817   1.410  20.503  0.00  0.00    +0.000 HD
ATOM     22  H   UNL     1       5.893   1.966  19.324  0.00  0.00    +0.000 HD
ENDBRANCH  19  20
ENDBRANCH  12  13
ENDBRANCH   1  12
TORSDOF 5
ENDMDL
MODEL 7
REMARK VINA RESULT:      -6.0      2.698      6.144
REMARK  Name = 
REMARK  5 active torsions:
REMARK  status: ('A' for Active; 'I' for Inactive)
REMARK    1  A    between atoms: N_1  and  C_2
REMARK    2  A    between atoms: C_8  and  S_9
REMARK    3  A    between atoms: S_9  and  S_10
REMARK    4  A    between atoms: S_10  and  C_11
REMARK    5  A    between atoms: C_17  and  N_18
REMARK                            x       y       z     vdW  Elec       q    Type
REMARK                         _______ _______ _______ _____ _____    ______ ____
ROOT
ATOM      1  S   UNL     1       5.654   4.289  18.554  0.00  0.00    +0.000 S 
ENDROOT
BRANCH   1   8
ATOM      2  C   UNL     1       7.809   6.063  19.045  0.00  0.00    +0.000 A 
ATOM      3  C   UNL     1       8.412   7.324  18.900  0.00  0.00    +0.000 A 
ATOM      4  C   UNL     1       7.950   8.232  17.948  0.00  0.00    +0.000 A 
ATOM      5 CL   UNL     1       8.696   9.776  17.803  0.00  0.00    +0.000 Cl
ATOM      6  C   UNL     1       6.868   7.908  17.138  0.00  0.00    +0.000 A 
ATOM      7  C   UNL     1       6.222   6.679  17.306  0.00  0.00    +0.000 A 
ATOM      8  C   UNL     1       6.663   5.760  18.273  0.00  0.00    +0.000 A 
BRANCH   2   9
ATOM      9  N   UNL     1       8.222   5.247  20.117  0.00  0.00    +0.000 N 
ATOM     10  H   UNL     1       7.556   4.522  20.363  0.00  0.00    +0.000 HD
ATOM     11  H   UNL     1       8.513   5.796  20.924  0.00  0.00    +0.000 HD
ENDBRANCH   2   9
ENDBRANCH   1   8
BRANCH   1  12
ATOM     12  S   UNL     1       3.942   4.638  17.469  0.00  0.00    +0.000 S 
BRANCH  12  13
ATOM     13  C   UNL     1       2.943   5.669  18.557  0.00  0.00    +0.000 A 
ATOM     14  C   UNL     1       2.833   7.037  18.246  0.00  0.00    +0.000 A 
ATOM     15  C   UNL     1       2.186   7.920  19.116  0.00  0.00    +0.000 A 
ATOM     16  C   UNL     1       1.659   7.446  20.312  0.00  0.00    +0.000 A 
ATOM     17 CL   UNL     1       0.926   8.541  21.420  0.00  0.00    +0.000 Cl
ATOM     18  C   UNL     1       1.743   6.092  20.630  0.00  0.00    +0.000 A 
ATOM     19  C   UNL     1       2.341   5.180  19.743  0.00  0.00    +0.000 A 
BRANCH  19  20
ATOM     20  N   UNL     1       2.525   3.853  20.176  0.00  0.00    +0.000 N 
ATOM     21  H   UNL     1       1.726   3.246  19.998  0.00  0.00    +0.000 HD
ATOM     22  H   UNL     1       3.395   3.454  19.830  0.00  0.00    +0.000 HD
ENDBRANCH  19  20
ENDBRANCH  12  13
ENDBRANCH   1  12
TORSDOF 5
ENDMDL
MODEL 8
REMARK VINA RESULT:      -6.0      2.387      2.817
REMARK  Name = 
REMARK  5 active torsions:
REMARK  status: ('A' for Active; 'I' for Inactive)
REMARK    1  A    between atoms: N_1  and  C_2
REMARK    2  A    between atoms: C_8  and  S_9
REMARK    3  A    between atoms: S_9  and  S_10
REMARK    4  A    between atoms: S_10  and  C_11
REMARK    5  A    between atoms: C_17  and  N_18
REMARK                            x       y       z     vdW  Elec       q    Type
REMARK                         _______ _______ _______ _____ _____    ______ ____
ROOT
ATOM      1  S   UNL     1       3.154   3.788  18.550  0.00  0.00    +0.000 S 
ENDROOT
BRANCH   1   8
ATOM      2  C   UNL     1       2.416   5.997  20.165  0.00  0.00    +0.000 A 
ATOM      3  C   UNL     1       1.922   7.306  20.295  0.00  0.00    +0.000 A 
ATOM      4  C   UNL     1       1.853   8.157  19.192  0.00  0.00    +0.000 A 
ATOM      5 CL   UNL     1       1.228   9.749  19.376  0.00  0.00    +0.000 Cl
ATOM      6  C   UNL     1       2.258   7.713  17.939  0.00  0.00    +0.000 A 
ATOM      7  C   UNL     1       2.701   6.395  17.781  0.00  0.00    +0.000 A 
ATOM      8  C   UNL     1       2.758   5.519  18.879  0.00  0.00    +0.000 A 
BRANCH   2   9
ATOM      9  N   UNL     1       2.327   5.139  21.279  0.00  0.00    +0.000 N 
ATOM     10  H   UNL     1       1.533   4.506  21.249  0.00  0.00    +0.000 HD
ATOM     11  H   UNL     1       2.380   5.649  22.159  0.00  0.00    +0.000 HD
ENDBRANCH   2   9
ENDBRANCH   1   8
BRANCH   1  12
ATOM     12  S   UNL     1       4.314   3.851  16.853  0.00  0.00    +0.000 S 
BRANCH  12  13
ATOM     13  C   UNL     1       5.648   4.984  17.282  0.00  0.00    +0.000 A 
ATOM     14  C   UNL     1       6.269   4.823  18.534  0.00  0.00    +0.000 A 
ATOM     15  C   UNL     1       7.217   5.745  18.989  0.00  0.00    +0.000 A 
ATOM     16  C   UNL     1       7.540   6.844  18.201  0.00  0.00    +0.000 A 
ATOM     17 CL   UNL     1       8.652   8.020  18.787  0.00  0.00    +0.000 Cl
ATOM     18  C   UNL     1       6.948   7.012  16.951  0.00  0.00    +0.000 A 
ATOM     19  C   UNL     1       6.034   6.067  16.454  0.00  0.00    +0.000 A 
BRANCH  19  20
ATOM     20  N   UNL     1       5.363   6.358  15.251  0.00  0.00    +0.000 N 
ATOM     21  H   UNL     1       5.648   7.236  14.821  0.00  0.00    +0.000 HD
ATOM     22  H   UNL     1       5.396   5.580  14.596  0.00  0.00    +0.000 HD
ENDBRANCH  19  20
ENDBRANCH  12  13
ENDBRANCH   1  12
TORSDOF 5
ENDMDL
MODEL 9
REMARK VINA RESULT:      -5.9      0.486      6.712
REMARK  Name = 
REMARK  5 active torsions:
REMARK  status: ('A' for Active; 'I' for Inactive)
REMARK    1  A    between atoms: N_1  and  C_2
REMARK    2  A    between atoms: C_8  and  S_9
REMARK    3  A    between atoms: S_9  and  S_10
REMARK    4  A    between atoms: S_10  and  C_11
REMARK    5  A    between atoms: C_17  and  N_18
REMARK                            x       y       z     vdW  Elec       q    Type
REMARK                         _______ _______ _______ _____ _____    ______ ____
ROOT
ATOM      1  S   UNL     1       4.953   5.170  19.266  0.00  0.00    +0.000 S 
ENDROOT
BRANCH   1   8
ATOM      2  C   UNL     1       6.978   4.607  17.364  0.00  0.00    +0.000 A 
ATOM      3  C   UNL     1       7.421   4.542  16.032  0.00  0.00    +0.000 A 
ATOM      4  C   UNL     1       6.514   4.590  14.974  0.00  0.00    +0.000 A 
ATOM      5 CL   UNL     1       7.085   4.527  13.352  0.00  0.00    +0.000 Cl
ATOM      6  C   UNL     1       5.153   4.720  15.224  0.00  0.00    +0.000 A 
ATOM      7  C   UNL     1       4.699   4.840  16.542  0.00  0.00    +0.000 A 
ATOM      8  C   UNL     1       5.602   4.813  17.618  0.00  0.00    +0.000 A 
BRANCH   2   9
ATOM      9  N   UNL     1       7.946   4.700  18.384  0.00  0.00    +0.000 N 
ATOM     10  H   UNL     1       7.801   5.479  19.019  0.00  0.00    +0.000 HD
ATOM     11  H   UNL     1       8.895   4.675  18.013  0.00  0.00    +0.000 HD
ENDBRANCH   2   9
ENDBRANCH   1   8
BRANCH   1  12
ATOM     12  S   UNL     1       2.917   4.971  19.058  0.00  0.00    +0.000 S 
BRANCH  12  13
ATOM     13  C   UNL     1       2.321   6.670  18.981  0.00  0.00    +0.000 A 
ATOM     14  C   UNL     1       2.480   7.367  17.770  0.00  0.00    +0.000 A 
ATOM     15  C   UNL     1       2.165   8.726  17.677  0.00  0.00    +0.000 A 
ATOM     16  C   UNL     1       1.703   9.404  18.801  0.00  0.00    +0.000 A 
ATOM     17 CL   UNL     1       1.383  11.092  18.712  0.00  0.00    +0.000 Cl
ATOM     18  C   UNL     1       1.524   8.727  20.005  0.00  0.00    +0.000 A 
ATOM     19  C   UNL     1       1.783   7.349  20.103  0.00  0.00    +0.000 A 
BRANCH  19  20
ATOM     20  N   UNL     1       1.720   6.747  21.374  0.00  0.00    +0.000 N 
ATOM     21  H   UNL     1       1.779   7.408  22.147  0.00  0.00    +0.000 HD
ATOM     22  H   UNL     1       0.923   6.122  21.463  0.00  0.00    +0.000 HD
ENDBRANCH  19  20
ENDBRANCH  12  13
ENDBRANCH   1  12
TORSDOF 5
ENDMDL
