MODEL 1
REMARK VINA RESULT:      -8.3      0.000      0.000
REMARK  Name = 
REMARK  10 active torsions:
REMARK  status: ('A' for Active; 'I' for Inactive)
REMARK    1  A    between atoms: C_1  and  O_2
REMARK    2  A    between atoms: O_2  and  C_3
REMARK    3  A    between atoms: C_6  and  O_7
REMARK    4  A    between atoms: O_7  and  C_8
REMARK    5  A    between atoms: C_8  and  C_9
REMARK    6  A    between atoms: N_11  and  C_12
REMARK    7  A    between atoms: C_15  and  S_16
REMARK    8  A    between atoms: S_16  and  N_19
REMARK    9  A    between atoms: C_22  and  C_23
REMARK   10  A    between atoms: C_25  and  C_26
REMARK                            x       y       z     vdW  Elec       q    Type
REMARK                         _______ _______ _______ _____ _____    ______ ____
ROOT
ATOM      1  C   UNL     1       3.936   3.379  19.576  0.00  0.00    +0.000 A 
ATOM      2  C   UNL     1       4.960   4.232  19.968  0.00  0.00    +0.000 A 
ATOM      3  C   UNL     1       5.653   5.029  19.082  0.00  0.00    +0.000 A 
ATOM      4  C   UNL     1       5.443   4.862  17.730  0.00  0.00    +0.000 A 
ATOM      5  C   UNL     1       4.475   3.958  17.272  0.00  0.00    +0.000 A 
ATOM      6  C   UNL     1       3.720   3.217  18.199  0.00  0.00    +0.000 A 
ENDROOT
BRANCH   1   9
ATOM      7  C   UNL     1       1.948   3.001  21.093  0.00  0.00    +0.000 C 
ATOM      8  O   UNL     1       1.506   2.245  21.972  0.00  0.00    +0.000 OA
ATOM      9  N   UNL     1       3.150   2.672  20.507  0.00  0.00    +0.000 N 
ATOM     10  H   UNL     1       3.482   1.760  20.794  0.00  0.00    +0.000 HD
BRANCH   7  11
ATOM     11  C   UNL     1       1.127   4.217  20.635  0.00  0.00    +0.000 C 
BRANCH  11  12
ATOM     12  O   UNL     1       1.768   5.411  21.074  0.00  0.00    +0.000 OA
BRANCH  12  16
ATOM     13  C   UNL     1       1.796   8.890  18.767  0.00  0.00    +0.000 A 
ATOM     14  C   UNL     1       1.326   8.860  20.078  0.00  0.00    +0.000 A 
ATOM     15  C   UNL     1       1.363   7.677  20.816  0.00  0.00    +0.000 A 
ATOM     16  C   UNL     1       1.814   6.492  20.237  0.00  0.00    +0.000 A 
ATOM     17  C   UNL     1       2.320   6.526  18.935  0.00  0.00    +0.000 A 
ATOM     18  C   UNL     1       2.312   7.723  18.202  0.00  0.00    +0.000 A 
BRANCH  13  20
ATOM     19  C   UNL     1       1.073  11.141  18.894  0.00  0.00    +0.000 C 
ATOM     20  O   UNL     1       1.662  10.093  18.134  0.00  0.00    +0.000 OA
ENDBRANCH  13  20
ENDBRANCH  12  16
ENDBRANCH  11  12
ENDBRANCH   7  11
ENDBRANCH   1   9
BRANCH   4  21
ATOM     21  S   UNL     1       6.440   5.848  16.652  0.00  0.00    +0.000 S 
ATOM     22  O   UNL     1       5.538   6.433  15.676  0.00  0.00    +0.000 OA
ATOM     23  O   UNL     1       7.284   6.696  17.463  0.00  0.00    +0.000 OA
BRANCH  21  24
ATOM     24  N   UNL     1       7.347   4.720  15.820  0.00  0.00    +0.000 N 
ATOM     25  C   UNL     1       7.197   4.733  14.433  0.00  0.00    +0.000 A 
ATOM     26  N   UNL     1       7.918   5.607  13.728  0.00  0.00    +0.000 NA
ATOM     27  C   UNL     1       7.827   5.486  12.385  0.00  0.00    +0.000 A 
ATOM     28  C   UNL     1       8.676   6.385  11.533  0.00  0.00    +0.000 C 
ATOM     29  C   UNL     1       7.009   4.547  11.781  0.00  0.00    +0.000 A 
ATOM     30  C   UNL     1       6.296   3.709  12.619  0.00  0.00    +0.000 A 
ATOM     31  C   UNL     1       5.367   2.673  12.065  0.00  0.00    +0.000 C 
ATOM     32  N   UNL     1       6.400   3.774  13.962  0.00  0.00    +0.000 NA
ATOM     33  H   UNL     1       7.172   3.798  16.196  0.00  0.00    +0.000 HD
ENDBRANCH  21  24
ENDBRANCH   4  21
TORSDOF 7
ENDMDL
MODEL 2
REMARK VINA RESULT:      -7.9      4.138      8.330
REMARK  Name = 
REMARK  10 active torsions:
REMARK  status: ('A' for Active; 'I' for Inactive)
REMARK    1  A    between atoms: C_1  and  O_2
REMARK    2  A    between atoms: O_2  and  C_3
REMARK    3  A    between atoms: C_6  and  O_7
REMARK    4  A    between atoms: O_7  and  C_8
REMARK    5  A    between atoms: C_8  and  C_9
REMARK    6  A    between atoms: N_11  and  C_12
REMARK    7  A    between atoms: C_15  and  S_16
REMARK    8  A    between atoms: S_16  and  N_19
REMARK    9  A    between atoms: C_22  and  C_23
REMARK   10  A    between atoms: C_25  and  C_26
REMARK                            x       y       z     vdW  Elec       q    Type
REMARK                         _______ _______ _______ _____ _____    ______ ____
ROOT
ATOM      1  C   UNL     1       2.326   5.236  19.274  0.00  0.00    +0.000 A 
ATOM      2  C   UNL     1       1.627   5.240  20.475  0.00  0.00    +0.000 A 
ATOM      3  C   UNL     1       1.143   6.392  21.057  0.00  0.00    +0.000 A 
ATOM      4  C   UNL     1       1.500   7.611  20.522  0.00  0.00    +0.000 A 
ATOM      5  C   UNL     1       2.271   7.671  19.353  0.00  0.00    +0.000 A 
ATOM      6  C   UNL     1       2.683   6.479  18.728  0.00  0.00    +0.000 A 
ENDROOT
BRANCH   1   9
ATOM      7  C   UNL     1       3.902   3.372  18.614  0.00  0.00    +0.000 C 
ATOM      8  O   UNL     1       4.006   2.383  17.873  0.00  0.00    +0.000 OA
ATOM      9  N   UNL     1       2.699   4.042  18.627  0.00  0.00    +0.000 N 
ATOM     10  H   UNL     1       1.984   3.560  18.098  0.00  0.00    +0.000 HD
BRANCH   7  11
ATOM     11  C   UNL     1       5.065   3.773  19.535  0.00  0.00    +0.000 C 
BRANCH  11  12
ATOM     12  O   UNL     1       6.253   3.915  18.761  0.00  0.00    +0.000 OA
BRANCH  12  16
ATOM     13  C   UNL     1       7.557   7.695  17.565  0.00  0.00    +0.000 A 
ATOM     14  C   UNL     1       8.103   7.020  18.655  0.00  0.00    +0.000 A 
ATOM     15  C   UNL     1       7.651   5.747  18.998  0.00  0.00    +0.000 A 
ATOM     16  C   UNL     1       6.605   5.152  18.294  0.00  0.00    +0.000 A 
ATOM     17  C   UNL     1       6.080   5.809  17.179  0.00  0.00    +0.000 A 
ATOM     18  C   UNL     1       6.556   7.078  16.815  0.00  0.00    +0.000 A 
BRANCH  13  20
ATOM     19  C   UNL     1       8.652   9.582  18.485  0.00  0.00    +0.000 C 
ATOM     20  O   UNL     1       8.049   8.953  17.361  0.00  0.00    +0.000 OA
ENDBRANCH  13  20
ENDBRANCH  12  16
ENDBRANCH  11  12
ENDBRANCH   7  11
ENDBRANCH   1   9
BRANCH   4  21
ATOM     21  S   UNL     1       0.924   9.047  21.380  0.00  0.00    +0.000 S 
ATOM     22  O   UNL     1      -0.478   8.815  21.677  0.00  0.00    +0.000 OA
ATOM     23  O   UNL     1       1.854   9.342  22.446  0.00  0.00    +0.000 OA
BRANCH  21  24
ATOM     24  N   UNL     1       0.954  10.238  20.210  0.00  0.00    +0.000 N 
ATOM     25  C   UNL     1      -0.287  10.773  19.866  0.00  0.00    +0.000 A 
ATOM     26  N   UNL     1      -0.789  11.746  20.627  0.00  0.00    +0.000 NA
ATOM     27  C   UNL     1      -1.929  12.312  20.171  0.00  0.00    +0.000 A 
ATOM     28  C   UNL     1      -2.502  13.469  20.939  0.00  0.00    +0.000 C 
ATOM     29  C   UNL     1      -2.557  11.881  19.016  0.00  0.00    +0.000 A 
ATOM     30  C   UNL     1      -1.950  10.851  18.322  0.00  0.00    +0.000 A 
ATOM     31  C   UNL     1      -2.561  10.298  17.070  0.00  0.00    +0.000 C 
ATOM     32  N   UNL     1      -0.788  10.297  18.725  0.00  0.00    +0.000 NA
ATOM     33  H   UNL     1       1.444   9.900  19.394  0.00  0.00    +0.000 HD
ENDBRANCH  21  24
ENDBRANCH   4  21
TORSDOF 7
ENDMDL
MODEL 3
REMARK VINA RESULT:      -7.6      3.305      5.040
REMARK  Name = 
REMARK  10 active torsions:
REMARK  status: ('A' for Active; 'I' for Inactive)
REMARK    1  A    between atoms: C_1  and  O_2
REMARK    2  A    between atoms: O_2  and  C_3
REMARK    3  A    between atoms: C_6  and  O_7
REMARK    4  A    between atoms: O_7  and  C_8
REMARK    5  A    between atoms: C_8  and  C_9
REMARK    6  A    between atoms: N_11  and  C_12
REMARK    7  A    between atoms: C_15  and  S_16
REMARK    8  A    between atoms: S_16  and  N_19
REMARK    9  A    between atoms: C_22  and  C_23
REMARK   10  A    between atoms: C_25  and  C_26
REMARK                            x       y       z     vdW  Elec       q    Type
REMARK                         _______ _______ _______ _____ _____    ______ ____
ROOT
ATOM      1  C   UNL     1       2.066   6.864  20.423  0.00  0.00    +0.000 A 
ATOM      2  C   UNL     1       1.878   5.561  20.869  0.00  0.00    +0.000 A 
ATOM      3  C   UNL     1       2.121   4.457  20.081  0.00  0.00    +0.000 A 
ATOM      4  C   UNL     1       2.404   4.639  18.745  0.00  0.00    +0.000 A 
ATOM      5  C   UNL     1       2.530   5.933  18.220  0.00  0.00    +0.000 A 
ATOM      6  C   UNL     1       2.361   7.046  19.063  0.00  0.00    +0.000 A 
ENDROOT
BRANCH   1   9
ATOM      7  C   UNL     1       1.048   9.025  21.255  0.00  0.00    +0.000 C 
ATOM      8  O   UNL     1       1.214   9.945  22.070  0.00  0.00    +0.000 OA
ATOM      9  N   UNL     1       1.941   7.975  21.279  0.00  0.00    +0.000 N 
ATOM     10  H   UNL     1       2.578   8.030  22.062  0.00  0.00    +0.000 HD
BRANCH   7  11
ATOM     11  C   UNL     1      -0.164   9.038  20.309  0.00  0.00    +0.000 C 
BRANCH  11  12
ATOM     12  O   UNL     1      -0.243  10.305  19.663  0.00  0.00    +0.000 OA
BRANCH  12  16
ATOM     13  C   UNL     1      -3.525  11.342  17.300  0.00  0.00    +0.000 A 
ATOM     14  C   UNL     1      -3.217  11.997  18.491  0.00  0.00    +0.000 A 
ATOM     15  C   UNL     1      -2.094  11.630  19.231  0.00  0.00    +0.000 A 
ATOM     16  C   UNL     1      -1.293  10.564  18.824  0.00  0.00    +0.000 A 
ATOM     17  C   UNL     1      -1.577   9.929  17.613  0.00  0.00    +0.000 A 
ATOM     18  C   UNL     1      -2.690  10.318  16.852  0.00  0.00    +0.000 A 
BRANCH  13  20
ATOM     19  C   UNL     1      -5.825  11.855  17.526  0.00  0.00    +0.000 C 
ATOM     20  O   UNL     1      -4.676  11.759  16.694  0.00  0.00    +0.000 OA
ENDBRANCH  13  20
ENDBRANCH  12  16
ENDBRANCH  11  12
ENDBRANCH   7  11
ENDBRANCH   1   9
BRANCH   4  21
ATOM     21  S   UNL     1       2.605   3.173  17.775  0.00  0.00    +0.000 S 
ATOM     22  O   UNL     1       2.090   2.076  18.575  0.00  0.00    +0.000 OA
ATOM     23  O   UNL     1       2.071   3.425  16.456  0.00  0.00    +0.000 OA
BRANCH  21  24
ATOM     24  N   UNL     1       4.261   2.965  17.723  0.00  0.00    +0.000 N 
ATOM     25  C   UNL     1       4.958   3.890  16.947  0.00  0.00    +0.000 A 
ATOM     26  N   UNL     1       5.277   5.063  17.496  0.00  0.00    +0.000 NA
ATOM     27  C   UNL     1       6.062   5.864  16.743  0.00  0.00    +0.000 A 
ATOM     28  C   UNL     1       6.524   7.165  17.335  0.00  0.00    +0.000 C 
ATOM     29  C   UNL     1       6.472   5.511  15.469  0.00  0.00    +0.000 A 
ATOM     30  C   UNL     1       6.061   4.276  15.001  0.00  0.00    +0.000 A 
ATOM     31  C   UNL     1       6.435   3.809  13.627  0.00  0.00    +0.000 C 
ATOM     32  N   UNL     1       5.317   3.434  15.746  0.00  0.00    +0.000 NA
ATOM     33  H   UNL     1       4.476   2.018  17.441  0.00  0.00    +0.000 HD
ENDBRANCH  21  24
ENDBRANCH   4  21
TORSDOF 7
ENDMDL
MODEL 4
REMARK VINA RESULT:      -7.5      3.759      7.879
REMARK  Name = 
REMARK  10 active torsions:
REMARK  status: ('A' for Active; 'I' for Inactive)
REMARK    1  A    between atoms: C_1  and  O_2
REMARK    2  A    between atoms: O_2  and  C_3
REMARK    3  A    between atoms: C_6  and  O_7
REMARK    4  A    between atoms: O_7  and  C_8
REMARK    5  A    between atoms: C_8  and  C_9
REMARK    6  A    between atoms: N_11  and  C_12
REMARK    7  A    between atoms: C_15  and  S_16
REMARK    8  A    between atoms: S_16  and  N_19
REMARK    9  A    between atoms: C_22  and  C_23
REMARK   10  A    between atoms: C_25  and  C_26
REMARK                            x       y       z     vdW  Elec       q    Type
REMARK                         _______ _______ _______ _____ _____    ______ ____
ROOT
ATOM      1  C   UNL     1       2.674   4.460  19.839  0.00  0.00    +0.000 A 
ATOM      2  C   UNL     1       1.470   4.641  20.507  0.00  0.00    +0.000 A 
ATOM      3  C   UNL     1       0.939   5.886  20.770  0.00  0.00    +0.000 A 
ATOM      4  C   UNL     1       1.700   7.005  20.511  0.00  0.00    +0.000 A 
ATOM      5  C   UNL     1       2.959   6.878  19.907  0.00  0.00    +0.000 A 
ATOM      6  C   UNL     1       3.445   5.601  19.570  0.00  0.00    +0.000 A 
ENDROOT
BRANCH   1   9
ATOM      7  C   UNL     1       3.416   2.667  18.215  0.00  0.00    +0.000 C 
ATOM      8  O   UNL     1       3.716   1.466  18.140  0.00  0.00    +0.000 OA
ATOM      9  N   UNL     1       3.138   3.184  19.462  0.00  0.00    +0.000 N 
ATOM     10  H   UNL     1       3.332   2.525  20.204  0.00  0.00    +0.000 HD
BRANCH   7  11
ATOM     11  C   UNL     1       3.433   3.549  16.956  0.00  0.00    +0.000 C 
BRANCH  11  12
ATOM     12  O   UNL     1       4.771   3.664  16.480  0.00  0.00    +0.000 OA
BRANCH  12  16
ATOM     13  C   UNL     1       7.315   6.683  17.836  0.00  0.00    +0.000 A 
ATOM     14  C   UNL     1       7.553   5.332  18.080  0.00  0.00    +0.000 A 
ATOM     15  C   UNL     1       6.686   4.360  17.581  0.00  0.00    +0.000 A 
ATOM     16  C   UNL     1       5.536   4.725  16.883  0.00  0.00    +0.000 A 
ATOM     17  C   UNL     1       5.313   6.075  16.607  0.00  0.00    +0.000 A 
ATOM     18  C   UNL     1       6.202   7.052  17.082  0.00  0.00    +0.000 A 
BRANCH  13  20
ATOM     19  C   UNL     1       8.188   8.881  17.948  0.00  0.00    +0.000 C 
ATOM     20  O   UNL     1       8.208   7.539  18.417  0.00  0.00    +0.000 OA
ENDBRANCH  13  20
ENDBRANCH  12  16
ENDBRANCH  11  12
ENDBRANCH   7  11
ENDBRANCH   1   9
BRANCH   4  21
ATOM     21  S   UNL     1       0.993   8.561  20.966  0.00  0.00    +0.000 S 
ATOM     22  O   UNL     1      -0.439   8.349  21.072  0.00  0.00    +0.000 OA
ATOM     23  O   UNL     1       1.736   9.085  22.090  0.00  0.00    +0.000 OA
BRANCH  21  24
ATOM     24  N   UNL     1       1.218   9.504  19.607  0.00  0.00    +0.000 N 
ATOM     25  C   UNL     1       0.132  10.297  19.240  0.00  0.00    +0.000 A 
ATOM     26  N   UNL     1      -0.023  11.476  19.844  0.00  0.00    +0.000 NA
ATOM     27  C   UNL     1      -1.015  12.255  19.358  0.00  0.00    +0.000 A 
ATOM     28  C   UNL     1      -1.190  13.627  19.940  0.00  0.00    +0.000 C 
ATOM     29  C   UNL     1      -1.843  11.839  18.330  0.00  0.00    +0.000 A 
ATOM     30  C   UNL     1      -1.596  10.587  17.796  0.00  0.00    +0.000 A 
ATOM     31  C   UNL     1      -2.448  10.037  16.693  0.00  0.00    +0.000 C 
ATOM     32  N   UNL     1      -0.584   9.807  18.228  0.00  0.00    +0.000 NA
ATOM     33  H   UNL     1       1.522   8.924  18.837  0.00  0.00    +0.000 HD
ENDBRANCH  21  24
ENDBRANCH   4  21
TORSDOF 7
ENDMDL
MODEL 5
REMARK VINA RESULT:      -7.4      3.168      5.064
REMARK  Name = 
REMARK  10 active torsions:
REMARK  status: ('A' for Active; 'I' for Inactive)
REMARK    1  A    between atoms: C_1  and  O_2
REMARK    2  A    between atoms: O_2  and  C_3
REMARK    3  A    between atoms: C_6  and  O_7
REMARK    4  A    between atoms: O_7  and  C_8
REMARK    5  A    between atoms: C_8  and  C_9
REMARK    6  A    between atoms: N_11  and  C_12
REMARK    7  A    between atoms: C_15  and  S_16
REMARK    8  A    between atoms: S_16  and  N_19
REMARK    9  A    between atoms: C_22  and  C_23
REMARK   10  A    between atoms: C_25  and  C_26
REMARK                            x       y       z     vdW  Elec       q    Type
REMARK                         _______ _______ _______ _____ _____    ______ ____
ROOT
ATOM      1  C   UNL     1       1.948   6.634  20.487  0.00  0.00    +0.000 A 
ATOM      2  C   UNL     1       2.287   6.755  19.144  0.00  0.00    +0.000 A 
ATOM      3  C   UNL     1       2.425   5.670  18.305  0.00  0.00    +0.000 A 
ATOM      4  C   UNL     1       2.387   4.401  18.843  0.00  0.00    +0.000 A 
ATOM      5  C   UNL     1       2.125   4.220  20.208  0.00  0.00    +0.000 A 
ATOM      6  C   UNL     1       1.904   5.341  21.030  0.00  0.00    +0.000 A 
ENDROOT
BRANCH   1   9
ATOM      7  C   UNL     1       1.321   9.039  20.953  0.00  0.00    +0.000 C 
ATOM      8  O   UNL     1       1.246   9.882  21.860  0.00  0.00    +0.000 OA
ATOM      9  N   UNL     1       1.682   7.755  21.297  0.00  0.00    +0.000 N 
ATOM     10  H   UNL     1       1.732   7.624  22.299  0.00  0.00    +0.000 HD
BRANCH   7  11
ATOM     11  C   UNL     1       0.946   9.419  19.512  0.00  0.00    +0.000 C 
BRANCH  11  12
ATOM     12  O   UNL     1       0.436  10.750  19.493  0.00  0.00    +0.000 OA
BRANCH  12  16
ATOM     13  C   UNL     1      -3.375  11.202  17.852  0.00  0.00    +0.000 A 
ATOM     14  C   UNL     1      -2.433  10.315  17.334  0.00  0.00    +0.000 A 
ATOM     15  C   UNL     1      -1.182  10.181  17.936  0.00  0.00    +0.000 A 
ATOM     16  C   UNL     1      -0.831  10.974  19.027  0.00  0.00    +0.000 A 
ATOM     17  C   UNL     1      -1.785  11.838  19.571  0.00  0.00    +0.000 A 
ATOM     18  C   UNL     1      -3.055  11.950  18.984  0.00  0.00    +0.000 A 
BRANCH  13  20
ATOM     19  C   UNL     1      -5.743  11.167  17.903  0.00  0.00    +0.000 C 
ATOM     20  O   UNL     1      -4.543  11.278  17.146  0.00  0.00    +0.000 OA
ENDBRANCH  13  20
ENDBRANCH  12  16
ENDBRANCH  11  12
ENDBRANCH   7  11
ENDBRANCH   1   9
BRANCH   4  21
ATOM     21  S   UNL     1       2.671   3.062  17.722  0.00  0.00    +0.000 S 
ATOM     22  O   UNL     1       2.184   1.863  18.380  0.00  0.00    +0.000 OA
ATOM     23  O   UNL     1       2.157   3.440  16.425  0.00  0.00    +0.000 OA
BRANCH  21  24
ATOM     24  N   UNL     1       4.334   2.926  17.691  0.00  0.00    +0.000 N 
ATOM     25  C   UNL     1       5.001   3.876  16.919  0.00  0.00    +0.000 A 
ATOM     26  N   UNL     1       5.261   5.065  17.465  0.00  0.00    +0.000 NA
ATOM     27  C   UNL     1       6.020   5.896  16.717  0.00  0.00    +0.000 A 
ATOM     28  C   UNL     1       6.418   7.218  17.308  0.00  0.00    +0.000 C 
ATOM     29  C   UNL     1       6.461   5.554  15.450  0.00  0.00    +0.000 A 
ATOM     30  C   UNL     1       6.111   4.300  14.985  0.00  0.00    +0.000 A 
ATOM     31  C   UNL     1       6.522   3.842  13.618  0.00  0.00    +0.000 C 
ATOM     32  N   UNL     1       5.394   3.430  15.725  0.00  0.00    +0.000 NA
ATOM     33  H   UNL     1       4.594   1.988  17.418  0.00  0.00    +0.000 HD
ENDBRANCH  21  24
ENDBRANCH   4  21
TORSDOF 7
ENDMDL
MODEL 6
REMARK VINA RESULT:      -7.3      4.576      8.594
REMARK  Name = 
REMARK  10 active torsions:
REMARK  status: ('A' for Active; 'I' for Inactive)
REMARK    1  A    between atoms: C_1  and  O_2
REMARK    2  A    between atoms: O_2  and  C_3
REMARK    3  A    between atoms: C_6  and  O_7
REMARK    4  A    between atoms: O_7  and  C_8
REMARK    5  A    between atoms: C_8  and  C_9
REMARK    6  A    between atoms: N_11  and  C_12
REMARK    7  A    between atoms: C_15  and  S_16
REMARK    8  A    between atoms: S_16  and  N_19
REMARK    9  A    between atoms: C_22  and  C_23
REMARK   10  A    between atoms: C_25  and  C_26
REMARK                            x       y       z     vdW  Elec       q    Type
REMARK                         _______ _______ _______ _____ _____    ______ ____
ROOT
ATOM      1  C   UNL     1       1.731   7.391  20.447  0.00  0.00    +0.000 A 
ATOM      2  C   UNL     1       0.883   8.166  21.230  0.00  0.00    +0.000 A 
ATOM      3  C   UNL     1       0.281   9.317  20.769  0.00  0.00    +0.000 A 
ATOM      4  C   UNL     1       0.655   9.820  19.541  0.00  0.00    +0.000 A 
ATOM      5  C   UNL     1       1.567   9.121  18.740  0.00  0.00    +0.000 A 
ATOM      6  C   UNL     1       2.104   7.903  19.195  0.00  0.00    +0.000 A 
ENDROOT
BRANCH   1   9
ATOM      7  C   UNL     1       2.393   4.962  20.209  0.00  0.00    +0.000 C 
ATOM      8  O   UNL     1       2.764   3.971  20.856  0.00  0.00    +0.000 OA
ATOM      9  N   UNL     1       2.232   6.150  20.887  0.00  0.00    +0.000 N 
ATOM     10  H   UNL     1       2.559   6.095  21.842  0.00  0.00    +0.000 HD
BRANCH   7  11
ATOM     11  C   UNL     1       2.199   4.862  18.687  0.00  0.00    +0.000 C 
BRANCH  11  12
ATOM     12  O   UNL     1       3.344   4.246  18.105  0.00  0.00    +0.000 OA
BRANCH  12  16
ATOM     13  C   UNL     1       6.676   6.657  17.395  0.00  0.00    +0.000 A 
ATOM     14  C   UNL     1       5.479   6.802  16.696  0.00  0.00    +0.000 A 
ATOM     15  C   UNL     1       4.386   5.989  16.990  0.00  0.00    +0.000 A 
ATOM     16  C   UNL     1       4.489   4.978  17.944  0.00  0.00    +0.000 A 
ATOM     17  C   UNL     1       5.675   4.853  18.671  0.00  0.00    +0.000 A 
ATOM     18  C   UNL     1       6.766   5.692  18.398  0.00  0.00    +0.000 A 
BRANCH  13  20
ATOM     19  C   UNL     1       7.929   8.629  17.784  0.00  0.00    +0.000 C 
ATOM     20  O   UNL     1       7.687   7.479  16.982  0.00  0.00    +0.000 OA
ENDBRANCH  13  20
ENDBRANCH  12  16
ENDBRANCH  11  12
ENDBRANCH   7  11
ENDBRANCH   1   9
BRANCH   4  21
ATOM     21  S   UNL     1      -0.085  11.353  19.061  0.00  0.00    +0.000 S 
ATOM     22  O   UNL     1      -1.029  11.042  18.002  0.00  0.00    +0.000 OA
ATOM     23  O   UNL     1      -0.530  12.036  20.254  0.00  0.00    +0.000 OA
BRANCH  21  24
ATOM     24  N   UNL     1       1.168  12.178  18.329  0.00  0.00    +0.000 N 
ATOM     25  C   UNL     1       1.616  13.313  19.005  0.00  0.00    +0.000 A 
ATOM     26  N   UNL     1       2.499  13.155  19.992  0.00  0.00    +0.000 NA
ATOM     27  C   UNL     1       2.992  14.296  20.521  0.00  0.00    +0.000 A 
ATOM     28  C   UNL     1       4.050  14.188  21.580  0.00  0.00    +0.000 C 
ATOM     29  C   UNL     1       2.576  15.547  20.098  0.00  0.00    +0.000 A 
ATOM     30  C   UNL     1       1.641  15.582  19.080  0.00  0.00    +0.000 A 
ATOM     31  C   UNL     1       1.111  16.885  18.564  0.00  0.00    +0.000 C 
ATOM     32  N   UNL     1       1.165  14.462  18.499  0.00  0.00    +0.000 NA
ATOM     33  H   UNL     1       0.920  12.397  17.374  0.00  0.00    +0.000 HD
ENDBRANCH  21  24
ENDBRANCH   4  21
TORSDOF 7
ENDMDL
MODEL 7
REMARK VINA RESULT:      -7.3      4.276      9.585
REMARK  Name = 
REMARK  10 active torsions:
REMARK  status: ('A' for Active; 'I' for Inactive)
REMARK    1  A    between atoms: C_1  and  O_2
REMARK    2  A    between atoms: O_2  and  C_3
REMARK    3  A    between atoms: C_6  and  O_7
REMARK    4  A    between atoms: O_7  and  C_8
REMARK    5  A    between atoms: C_8  and  C_9
REMARK    6  A    between atoms: N_11  and  C_12
REMARK    7  A    between atoms: C_15  and  S_16
REMARK    8  A    between atoms: S_16  and  N_19
REMARK    9  A    between atoms: C_22  and  C_23
REMARK   10  A    between atoms: C_25  and  C_26
REMARK                            x       y       z     vdW  Elec       q    Type
REMARK                         _______ _______ _______ _____ _____    ______ ____
ROOT
ATOM      1  C   UNL     1       2.440   6.338  19.157  0.00  0.00    +0.000 A 
ATOM      2  C   UNL     1       2.038   6.940  20.344  0.00  0.00    +0.000 A 
ATOM      3  C   UNL     1       1.462   8.192  20.392  0.00  0.00    +0.000 A 
ATOM      4  C   UNL     1       1.427   8.955  19.245  0.00  0.00    +0.000 A 
ATOM      5  C   UNL     1       1.891   8.428  18.032  0.00  0.00    +0.000 A 
ATOM      6  C   UNL     1       2.397   7.115  17.990  0.00  0.00    +0.000 A 
ENDROOT
BRANCH   1   9
ATOM      7  C   UNL     1       4.188   4.512  19.104  0.00  0.00    +0.000 C 
ATOM      8  O   UNL     1       4.336   3.290  18.951  0.00  0.00    +0.000 OA
ATOM      9  N   UNL     1       2.904   5.009  19.110  0.00  0.00    +0.000 N 
ATOM     10  H   UNL     1       2.207   4.276  19.105  0.00  0.00    +0.000 HD
BRANCH   7  11
ATOM     11  C   UNL     1       5.409   5.413  19.353  0.00  0.00    +0.000 C 
BRANCH  11  12
ATOM     12  O   UNL     1       5.656   6.202  18.193  0.00  0.00    +0.000 OA
BRANCH  12  16
ATOM     13  C   UNL     1       6.473   4.492  14.475  0.00  0.00    +0.000 A 
ATOM     14  C   UNL     1       5.447   5.414  14.670  0.00  0.00    +0.000 A 
ATOM     15  C   UNL     1       5.232   5.978  15.927  0.00  0.00    +0.000 A 
ATOM     16  C   UNL     1       6.000   5.583  17.022  0.00  0.00    +0.000 A 
ATOM     17  C   UNL     1       7.051   4.687  16.823  0.00  0.00    +0.000 A 
ATOM     18  C   UNL     1       7.288   4.143  15.551  0.00  0.00    +0.000 A 
BRANCH  13  20
ATOM     19  C   UNL     1       5.325   3.553  12.628  0.00  0.00    +0.000 C 
ATOM     20  O   UNL     1       6.552   3.976  13.212  0.00  0.00    +0.000 OA
ENDBRANCH  13  20
ENDBRANCH  12  16
ENDBRANCH  11  12
ENDBRANCH   7  11
ENDBRANCH   1   9
BRANCH   4  21
ATOM     21  S   UNL     1       0.765  10.588  19.405  0.00  0.00    +0.000 S 
ATOM     22  O   UNL     1       1.599  11.453  18.590  0.00  0.00    +0.000 OA
ATOM     23  O   UNL     1      -0.660  10.524  19.174  0.00  0.00    +0.000 OA
BRANCH  21  24
ATOM     24  N   UNL     1       1.099  10.989  20.991  0.00  0.00    +0.000 N 
ATOM     25  C   UNL     1       0.257  11.945  21.558  0.00  0.00    +0.000 A 
ATOM     26  N   UNL     1      -0.908  11.540  22.066  0.00  0.00    +0.000 NA
ATOM     27  C   UNL     1      -1.621  12.487  22.716  0.00  0.00    +0.000 A 
ATOM     28  C   UNL     1      -2.903  12.077  23.381  0.00  0.00    +0.000 C 
ATOM     29  C   UNL     1      -1.192  13.799  22.810  0.00  0.00    +0.000 A 
ATOM     30  C   UNL     1       0.025  14.102  22.226  0.00  0.00    +0.000 A 
ATOM     31  C   UNL     1       0.569  15.498  22.256  0.00  0.00    +0.000 C 
ATOM     32  N   UNL     1       0.782  13.170  21.612  0.00  0.00    +0.000 NA
ATOM     33  H   UNL     1       2.069  11.261  21.076  0.00  0.00    +0.000 HD
ENDBRANCH  21  24
ENDBRANCH   4  21
TORSDOF 7
ENDMDL
MODEL 8
REMARK VINA RESULT:      -7.3      3.862      8.498
REMARK  Name = 
REMARK  10 active torsions:
REMARK  status: ('A' for Active; 'I' for Inactive)
REMARK    1  A    between atoms: C_1  and  O_2
REMARK    2  A    between atoms: O_2  and  C_3
REMARK    3  A    between atoms: C_6  and  O_7
REMARK    4  A    between atoms: O_7  and  C_8
REMARK    5  A    between atoms: C_8  and  C_9
REMARK    6  A    between atoms: N_11  and  C_12
REMARK    7  A    between atoms: C_15  and  S_16
REMARK    8  A    between atoms: S_16  and  N_19
REMARK    9  A    between atoms: C_22  and  C_23
REMARK   10  A    between atoms: C_25  and  C_26
REMARK                            x       y       z     vdW  Elec       q    Type
REMARK                         _______ _______ _______ _____ _____    ______ ____
ROOT
ATOM      1  C   UNL     1       2.227   5.165  19.324  0.00  0.00    +0.000 A 
ATOM      2  C   UNL     1       2.420   6.430  18.782  0.00  0.00    +0.000 A 
ATOM      3  C   UNL     1       2.099   7.590  19.453  0.00  0.00    +0.000 A 
ATOM      4  C   UNL     1       1.408   7.504  20.643  0.00  0.00    +0.000 A 
ATOM      5  C   UNL     1       1.117   6.252  21.200  0.00  0.00    +0.000 A 
ATOM      6  C   UNL     1       1.529   5.080  20.538  0.00  0.00    +0.000 A 
ENDROOT
BRANCH   1   9
ATOM      7  C   UNL     1       3.952   3.478  18.566  0.00  0.00    +0.000 C 
ATOM      8  O   UNL     1       4.105   2.475  17.851  0.00  0.00    +0.000 OA
ATOM      9  N   UNL     1       2.681   3.996  18.682  0.00  0.00    +0.000 N 
ATOM     10  H   UNL     1       1.983   3.407  18.247  0.00  0.00    +0.000 HD
BRANCH   7  11
ATOM     11  C   UNL     1       5.141   4.060  19.347  0.00  0.00    +0.000 C 
BRANCH  11  12
ATOM     12  O   UNL     1       5.629   5.215  18.671  0.00  0.00    +0.000 OA
BRANCH  12  16
ATOM     13  C   UNL     1       6.639   4.898  14.634  0.00  0.00    +0.000 A 
ATOM     14  C   UNL     1       7.513   4.542  15.659  0.00  0.00    +0.000 A 
ATOM     15  C   UNL     1       7.118   4.641  16.993  0.00  0.00    +0.000 A 
ATOM     16  C   UNL     1       5.865   5.154  17.325  0.00  0.00    +0.000 A 
ATOM     17  C   UNL     1       4.973   5.478  16.300  0.00  0.00    +0.000 A 
ATOM     18  C   UNL     1       5.360   5.349  14.957  0.00  0.00    +0.000 A 
BRANCH  13  20
ATOM     19  C   UNL     1       6.569   3.828  12.522  0.00  0.00    +0.000 C 
ATOM     20  O   UNL     1       7.160   4.802  13.374  0.00  0.00    +0.000 OA
ENDBRANCH  13  20
ENDBRANCH  12  16
ENDBRANCH  11  12
ENDBRANCH   7  11
ENDBRANCH   1   9
BRANCH   4  21
ATOM     21  S   UNL     1       0.943   9.035  21.396  0.00  0.00    +0.000 S 
ATOM     22  O   UNL     1      -0.467   8.923  21.723  0.00  0.00    +0.000 OA
ATOM     23  O   UNL     1       1.907   9.345  22.428  0.00  0.00    +0.000 OA
BRANCH  21  24
ATOM     24  N   UNL     1       1.037  10.131  20.140  0.00  0.00    +0.000 N 
ATOM     25  C   UNL     1      -0.182  10.641  19.695  0.00  0.00    +0.000 A 
ATOM     26  N   UNL     1      -0.713  11.673  20.353  0.00  0.00    +0.000 NA
ATOM     27  C   UNL     1      -1.826  12.205  19.801  0.00  0.00    +0.000 A 
ATOM     28  C   UNL     1      -2.428  13.420  20.447  0.00  0.00    +0.000 C 
ATOM     29  C   UNL     1      -2.402  11.687  18.654  0.00  0.00    +0.000 A 
ATOM     30  C   UNL     1      -1.769  10.603  18.073  0.00  0.00    +0.000 A 
ATOM     31  C   UNL     1      -2.323   9.957  16.840  0.00  0.00    +0.000 C 
ATOM     32  N   UNL     1      -0.632  10.079  18.573  0.00  0.00    +0.000 NA
ATOM     33  H   UNL     1       1.564   9.729  19.376  0.00  0.00    +0.000 HD
ENDBRANCH  21  24
ENDBRANCH   4  21
TORSDOF 7
ENDMDL
MODEL 9
REMARK VINA RESULT:      -7.2      0.471      1.303
REMARK  Name = 
REMARK  10 active torsions:
REMARK  status: ('A' for Active; 'I' for Inactive)
REMARK    1  A    between atoms: C_1  and  O_2
REMARK    2  A    between atoms: O_2  and  C_3
REMARK    3  A    between atoms: C_6  and  O_7
REMARK    4  A    between atoms: O_7  and  C_8
REMARK    5  A    between atoms: C_8  and  C_9
REMARK    6  A    between atoms: N_11  and  C_12
REMARK    7  A    between atoms: C_15  and  S_16
REMARK    8  A    between atoms: S_16  and  N_19
REMARK    9  A    between atoms: C_22  and  C_23
REMARK   10  A    between atoms: C_25  and  C_26
REMARK                            x       y       z     vdW  Elec       q    Type
REMARK                         _______ _______ _______ _____ _____    ______ ____
ROOT
ATOM      1  C   UNL     1       3.728   3.734  19.345  0.00  0.00    +0.000 A 
ATOM      2  C   UNL     1       3.504   3.845  17.978  0.00  0.00    +0.000 A 
ATOM      3  C   UNL     1       4.365   4.505  17.128  0.00  0.00    +0.000 A 
ATOM      4  C   UNL     1       5.408   5.229  17.664  0.00  0.00    +0.000 A 
ATOM      5  C   UNL     1       5.637   5.218  19.047  0.00  0.00    +0.000 A 
ATOM      6  C   UNL     1       4.794   4.467  19.888  0.00  0.00    +0.000 A 
ENDROOT
BRANCH   1   9
ATOM      7  C   UNL     1       1.746   3.263  20.844  0.00  0.00    +0.000 C 
ATOM      8  O   UNL     1       1.266   2.411  21.607  0.00  0.00    +0.000 OA
ATOM      9  N   UNL     1       2.910   2.946  20.178  0.00  0.00    +0.000 N 
ATOM     10  H   UNL     1       3.178   1.980  20.309  0.00  0.00    +0.000 HD
BRANCH   7  11
ATOM     11  C   UNL     1       1.010   4.591  20.607  0.00  0.00    +0.000 C 
BRANCH  11  12
ATOM     12  O   UNL     1       1.871   5.674  20.945  0.00  0.00    +0.000 OA
BRANCH  12  16
ATOM     13  C   UNL     1       1.344   9.295  18.936  0.00  0.00    +0.000 A 
ATOM     14  C   UNL     1       1.936   8.183  18.341  0.00  0.00    +0.000 A 
ATOM     15  C   UNL     1       2.065   6.987  19.046  0.00  0.00    +0.000 A 
ATOM     16  C   UNL     1       1.659   6.901  20.377  0.00  0.00    +0.000 A 
ATOM     17  C   UNL     1       1.032   8.002  20.965  0.00  0.00    +0.000 A 
ATOM     18  C   UNL     1       0.875   9.196  20.245  0.00  0.00    +0.000 A 
BRANCH  13  20
ATOM     19  C   UNL     1       2.398  11.330  18.340  0.00  0.00    +0.000 C 
ATOM     20  O   UNL     1       1.321  10.419  18.160  0.00  0.00    +0.000 OA
ENDBRANCH  13  20
ENDBRANCH  12  16
ENDBRANCH  11  12
ENDBRANCH   7  11
ENDBRANCH   1   9
BRANCH   4  21
ATOM     21  S   UNL     1       6.411   6.131  16.520  0.00  0.00    +0.000 S 
ATOM     22  O   UNL     1       5.513   6.647  15.503  0.00  0.00    +0.000 OA
ATOM     23  O   UNL     1       7.256   7.032  17.270  0.00  0.00    +0.000 OA
BRANCH  21  24
ATOM     24  N   UNL     1       7.315   4.942  15.774  0.00  0.00    +0.000 N 
ATOM     25  C   UNL     1       7.161   4.850  14.391  0.00  0.00    +0.000 A 
ATOM     26  N   UNL     1       7.879   5.667  13.619  0.00  0.00    +0.000 NA
ATOM     27  C   UNL     1       7.785   5.444  12.289  0.00  0.00    +0.000 A 
ATOM     28  C   UNL     1       8.631   6.276  11.369  0.00  0.00    +0.000 C 
ATOM     29  C   UNL     1       6.965   4.462  11.761  0.00  0.00    +0.000 A 
ATOM     30  C   UNL     1       6.255   3.691  12.663  0.00  0.00    +0.000 A 
ATOM     31  C   UNL     1       5.324   2.615  12.192  0.00  0.00    +0.000 C 
ATOM     32  N   UNL     1       6.363   3.857  13.997  0.00  0.00    +0.000 NA
ATOM     33  H   UNL     1       7.142   4.052  16.220  0.00  0.00    +0.000 HD
ENDBRANCH  21  24
ENDBRANCH   4  21
TORSDOF 7
ENDMDL
