MODEL 1
REMARK VINA RESULT:      -7.5      0.000      0.000
REMARK  Name = 
REMARK  1 active torsions:
REMARK  status: ('A' for Active; 'I' for Inactive)
REMARK    1  A    between atoms: N_4  and  C_5
REMARK                            x       y       z     vdW  Elec       q    Type
REMARK                         _______ _______ _______ _____ _____    ______ ____
ROOT
ATOM      1  C   UNL     1       6.269   4.362  16.648  0.00  0.00    +0.000 A 
ATOM      2  N   UNL     1       7.495   4.766  17.074  0.00  0.00    +0.000 NA
ATOM      3  C   UNL     1       7.593   5.304  18.306  0.00  0.00    +0.000 A 
ATOM      4  C   UNL     1       6.526   5.438  19.174  0.00  0.00    +0.000 A 
ATOM      5  C   UNL     1       5.269   4.993  18.765  0.00  0.00    +0.000 A 
ATOM      6  C   UNL     1       4.168   5.061  19.637  0.00  0.00    +0.000 A 
ATOM      7  C   UNL     1       2.921   4.581  19.236  0.00  0.00    +0.000 A 
ATOM      8 BR   UNL     1       1.463   4.635  20.438  0.00  0.00    +0.000 Br
ATOM      9  C   UNL     1       2.744   4.046  17.966  0.00  0.00    +0.000 A 
ATOM     10  C   UNL     1       3.830   3.980  17.092  0.00  0.00    +0.000 A 
ATOM     11  C   UNL     1       5.115   4.448  17.469  0.00  0.00    +0.000 A 
ENDROOT
BRANCH   1  15
ATOM     12  N   UNL     1       6.294   3.556  13.113  0.00  0.00    +0.000 NA
ATOM     13  C   UNL     1       6.609   4.190  14.192  0.00  0.00    +0.000 C 
ATOM     14  N   UNL     1       7.442   5.253  14.178  0.00  0.00    +0.000 N 
ATOM     15  N   UNL     1       6.164   3.751  15.387  0.00  0.00    +0.000 N 
ATOM     16  H   UNL     1       6.790   3.984  12.328  0.00  0.00    +0.000 HD
ATOM     17  H   UNL     1       7.494   5.765  13.311  0.00  0.00    +0.000 HD
ATOM     18  H   UNL     1       7.274   5.868  14.977  0.00  0.00    +0.000 HD
ATOM     19  H   UNL     1       5.484   3.009  15.320  0.00  0.00    +0.000 HD
ENDBRANCH   1  15
TORSDOF 1
ENDMDL
MODEL 2
REMARK VINA RESULT:      -6.9      1.800      3.508
REMARK  Name = 
REMARK  1 active torsions:
REMARK  status: ('A' for Active; 'I' for Inactive)
REMARK    1  A    between atoms: N_4  and  C_5
REMARK                            x       y       z     vdW  Elec       q    Type
REMARK                         _______ _______ _______ _____ _____    ______ ____
ROOT
ATOM      1  C   UNL     1       6.949   5.320  17.357  0.00  0.00    +0.000 A 
ATOM      2  N   UNL     1       7.471   5.153  16.112  0.00  0.00    +0.000 NA
ATOM      3  C   UNL     1       6.766   4.425  15.222  0.00  0.00    +0.000 A 
ATOM      4  C   UNL     1       5.530   3.868  15.490  0.00  0.00    +0.000 A 
ATOM      5  C   UNL     1       4.966   4.064  16.751  0.00  0.00    +0.000 A 
ATOM      6  C   UNL     1       3.688   3.560  17.048  0.00  0.00    +0.000 A 
ATOM      7  C   UNL     1       3.112   3.790  18.298  0.00  0.00    +0.000 A 
ATOM      8 BR   UNL     1       1.372   3.147  18.663  0.00  0.00    +0.000 Br
ATOM      9  C   UNL     1       3.799   4.502  19.272  0.00  0.00    +0.000 A 
ATOM     10  C   UNL     1       5.071   5.000  18.989  0.00  0.00    +0.000 A 
ATOM     11  C   UNL     1       5.683   4.796  17.725  0.00  0.00    +0.000 A 
ENDROOT
BRANCH   1  15
ATOM     12  N   UNL     1       8.754   7.957  19.069  0.00  0.00    +0.000 NA
ATOM     13  C   UNL     1       7.981   7.425  18.184  0.00  0.00    +0.000 C 
ATOM     14  N   UNL     1       7.423   8.152  17.193  0.00  0.00    +0.000 N 
ATOM     15  N   UNL     1       7.649   6.121  18.275  0.00  0.00    +0.000 N 
ATOM     16  H   UNL     1       8.820   8.961  18.881  0.00  0.00    +0.000 HD
ATOM     17  H   UNL     1       7.911   8.994  16.930  0.00  0.00    +0.000 HD
ATOM     18  H   UNL     1       7.201   7.570  16.383  0.00  0.00    +0.000 HD
ATOM     19  H   UNL     1       8.163   5.619  18.984  0.00  0.00    +0.000 HD
ENDBRANCH   1  15
TORSDOF 1
ENDMDL
MODEL 3
REMARK VINA RESULT:      -6.8      4.515      5.856
REMARK  Name = 
REMARK  1 active torsions:
REMARK  status: ('A' for Active; 'I' for Inactive)
REMARK    1  A    between atoms: N_4  and  C_5
REMARK                            x       y       z     vdW  Elec       q    Type
REMARK                         _______ _______ _______ _____ _____    ______ ____
ROOT
ATOM      1  C   UNL     1       2.839   5.307  19.945  0.00  0.00    +0.000 A 
ATOM      2  N   UNL     1       2.112   6.431  20.186  0.00  0.00    +0.000 NA
ATOM      3  C   UNL     1       2.217   7.454  19.313  0.00  0.00    +0.000 A 
ATOM      4  C   UNL     1       2.994   7.414  18.171  0.00  0.00    +0.000 A 
ATOM      5  C   UNL     1       3.716   6.253  17.891  0.00  0.00    +0.000 A 
ATOM      6  C   UNL     1       4.476   6.150  16.713  0.00  0.00    +0.000 A 
ATOM      7  C   UNL     1       5.166   4.974  16.420  0.00  0.00    +0.000 A 
ATOM      8 BR   UNL     1       6.143   4.835  14.807  0.00  0.00    +0.000 Br
ATOM      9  C   UNL     1       5.127   3.895  17.294  0.00  0.00    +0.000 A 
ATOM     10  C   UNL     1       4.381   3.990  18.469  0.00  0.00    +0.000 A 
ATOM     11  C   UNL     1       3.657   5.166  18.794  0.00  0.00    +0.000 A 
ENDROOT
BRANCH   1  15
ATOM     12  N   UNL     1       1.625   2.585  22.008  0.00  0.00    +0.000 NA
ATOM     13  C   UNL     1       1.606   3.460  21.060  0.00  0.00    +0.000 C 
ATOM     14  N   UNL     1       0.542   3.601  20.240  0.00  0.00    +0.000 N 
ATOM     15  N   UNL     1       2.696   4.217  20.818  0.00  0.00    +0.000 N 
ATOM     16  H   UNL     1       0.749   2.058  21.981  0.00  0.00    +0.000 HD
ATOM     17  H   UNL     1      -0.347   3.305  20.611  0.00  0.00    +0.000 HD
ATOM     18  H   UNL     1       0.498   4.544  19.847  0.00  0.00    +0.000 HD
ATOM     19  H   UNL     1       3.419   4.122  21.515  0.00  0.00    +0.000 HD
ENDBRANCH   1  15
TORSDOF 1
ENDMDL
MODEL 4
REMARK VINA RESULT:      -6.8      2.054      3.606
REMARK  Name = 
REMARK  1 active torsions:
REMARK  status: ('A' for Active; 'I' for Inactive)
REMARK    1  A    between atoms: N_4  and  C_5
REMARK                            x       y       z     vdW  Elec       q    Type
REMARK                         _______ _______ _______ _____ _____    ______ ____
ROOT
ATOM      1  C   UNL     1       6.724   6.151  16.429  0.00  0.00    +0.000 A 
ATOM      2  N   UNL     1       7.440   5.458  15.504  0.00  0.00    +0.000 NA
ATOM      3  C   UNL     1       6.986   4.244  15.131  0.00  0.00    +0.000 A 
ATOM      4  C   UNL     1       5.820   3.678  15.608  0.00  0.00    +0.000 A 
ATOM      5  C   UNL     1       5.055   4.394  16.529  0.00  0.00    +0.000 A 
ATOM      6  C   UNL     1       3.835   3.879  16.999  0.00  0.00    +0.000 A 
ATOM      7  C   UNL     1       3.056   4.615  17.892  0.00  0.00    +0.000 A 
ATOM      8 BR   UNL     1       1.393   3.929  18.475  0.00  0.00    +0.000 Br
ATOM      9  C   UNL     1       3.482   5.858  18.343  0.00  0.00    +0.000 A 
ATOM     10  C   UNL     1       4.695   6.375  17.887  0.00  0.00    +0.000 A 
ATOM     11  C   UNL     1       5.508   5.659  16.971  0.00  0.00    +0.000 A 
ENDROOT
BRANCH   1  15
ATOM     12  N   UNL     1       7.993   9.097  18.120  0.00  0.00    +0.000 NA
ATOM     13  C   UNL     1       7.800   7.840  17.902  0.00  0.00    +0.000 C 
ATOM     14  N   UNL     1       8.288   6.888  18.728  0.00  0.00    +0.000 N 
ATOM     15  N   UNL     1       7.158   7.439  16.786  0.00  0.00    +0.000 N 
ATOM     16  H   UNL     1       8.565   9.196  18.962  0.00  0.00    +0.000 HD
ATOM     17  H   UNL     1       8.453   7.170  19.681  0.00  0.00    +0.000 HD
ATOM     18  H   UNL     1       7.738   6.029  18.672  0.00  0.00    +0.000 HD
ATOM     19  H   UNL     1       6.748   8.196  16.259  0.00  0.00    +0.000 HD
ENDBRANCH   1  15
TORSDOF 1
ENDMDL
MODEL 5
REMARK VINA RESULT:      -6.7      1.978      2.669
REMARK  Name = 
REMARK  1 active torsions:
REMARK  status: ('A' for Active; 'I' for Inactive)
REMARK    1  A    between atoms: N_4  and  C_5
REMARK                            x       y       z     vdW  Elec       q    Type
REMARK                         _______ _______ _______ _____ _____    ______ ____
ROOT
ATOM      1  C   UNL     1       4.562   5.665  17.048  0.00  0.00    +0.000 A 
ATOM      2  N   UNL     1       4.362   6.999  16.874  0.00  0.00    +0.000 NA
ATOM      3  C   UNL     1       3.441   7.608  17.648  0.00  0.00    +0.000 A 
ATOM      4  C   UNL     1       2.713   6.964  18.630  0.00  0.00    +0.000 A 
ATOM      5  C   UNL     1       2.936   5.603  18.846  0.00  0.00    +0.000 A 
ATOM      6  C   UNL     1       2.256   4.922  19.871  0.00  0.00    +0.000 A 
ATOM      7  C   UNL     1       2.510   3.570  20.106  0.00  0.00    +0.000 A 
ATOM      8 BR   UNL     1       1.624   2.681  21.521  0.00  0.00    +0.000 Br
ATOM      9  C   UNL     1       3.421   2.874  19.322  0.00  0.00    +0.000 A 
ATOM     10  C   UNL     1       4.095   3.541  18.299  0.00  0.00    +0.000 A 
ATOM     11  C   UNL     1       3.872   4.918  18.037  0.00  0.00    +0.000 A 
ENDROOT
BRANCH   1  15
ATOM     12  N   UNL     1       7.541   4.788  15.178  0.00  0.00    +0.000 NA
ATOM     13  C   UNL     1       6.814   5.439  16.022  0.00  0.00    +0.000 C 
ATOM     14  N   UNL     1       7.298   6.489  16.720  0.00  0.00    +0.000 N 
ATOM     15  N   UNL     1       5.556   5.031  16.285  0.00  0.00    +0.000 N 
ATOM     16  H   UNL     1       8.480   5.194  15.177  0.00  0.00    +0.000 HD
ATOM     17  H   UNL     1       8.070   6.983  16.301  0.00  0.00    +0.000 HD
ATOM     18  H   UNL     1       6.548   7.122  17.006  0.00  0.00    +0.000 HD
ATOM     19  H   UNL     1       5.230   4.298  15.672  0.00  0.00    +0.000 HD
ENDBRANCH   1  15
TORSDOF 1
ENDMDL
MODEL 6
REMARK VINA RESULT:      -6.7      3.695      4.914
REMARK  Name = 
REMARK  1 active torsions:
REMARK  status: ('A' for Active; 'I' for Inactive)
REMARK    1  A    between atoms: N_4  and  C_5
REMARK                            x       y       z     vdW  Elec       q    Type
REMARK                         _______ _______ _______ _____ _____    ______ ____
ROOT
ATOM      1  C   UNL     1       5.218   4.166  18.229  0.00  0.00    +0.000 A 
ATOM      2  N   UNL     1       5.736   4.767  19.334  0.00  0.00    +0.000 NA
ATOM      3  C   UNL     1       6.854   5.507  19.187  0.00  0.00    +0.000 A 
ATOM      4  C   UNL     1       7.484   5.718  17.976  0.00  0.00    +0.000 A 
ATOM      5  C   UNL     1       6.942   5.140  16.828  0.00  0.00    +0.000 A 
ATOM      6  C   UNL     1       7.520   5.373  15.569  0.00  0.00    +0.000 A 
ATOM      7  C   UNL     1       6.952   4.821  14.420  0.00  0.00    +0.000 A 
ATOM      8 BR   UNL     1       7.715   5.186  12.728  0.00  0.00    +0.000 Br
ATOM      9  C   UNL     1       5.821   4.020  14.504  0.00  0.00    +0.000 A 
ATOM     10  C   UNL     1       5.244   3.778  15.751  0.00  0.00    +0.000 A 
ATOM     11  C   UNL     1       5.787   4.331  16.940  0.00  0.00    +0.000 A 
ENDROOT
BRANCH   1  15
ATOM     12  N   UNL     1       2.673   1.662  18.862  0.00  0.00    +0.000 NA
ATOM     13  C   UNL     1       3.817   2.250  18.967  0.00  0.00    +0.000 C 
ATOM     14  N   UNL     1       4.810   1.748  19.733  0.00  0.00    +0.000 N 
ATOM     15  N   UNL     1       4.025   3.436  18.361  0.00  0.00    +0.000 N 
ATOM     16  H   UNL     1       2.682   0.828  19.454  0.00  0.00    +0.000 HD
ATOM     17  H   UNL     1       4.787   0.754  19.895  0.00  0.00    +0.000 HD
ATOM     18  H   UNL     1       5.726   2.062  19.407  0.00  0.00    +0.000 HD
ATOM     19  H   UNL     1       3.278   3.712  17.740  0.00  0.00    +0.000 HD
ENDBRANCH   1  15
TORSDOF 1
ENDMDL
MODEL 7
REMARK VINA RESULT:      -6.7      2.471      3.330
REMARK  Name = 
REMARK  1 active torsions:
REMARK  status: ('A' for Active; 'I' for Inactive)
REMARK    1  A    between atoms: N_4  and  C_5
REMARK                            x       y       z     vdW  Elec       q    Type
REMARK                         _______ _______ _______ _____ _____    ______ ____
ROOT
ATOM      1  C   UNL     1       4.720   4.660  17.987  0.00  0.00    +0.000 A 
ATOM      2  N   UNL     1       4.616   3.535  18.745  0.00  0.00    +0.000 NA
ATOM      3  C   UNL     1       3.764   3.551  19.790  0.00  0.00    +0.000 A 
ATOM      4  C   UNL     1       2.966   4.631  20.116  0.00  0.00    +0.000 A 
ATOM      5  C   UNL     1       3.033   5.778  19.325  0.00  0.00    +0.000 A 
ATOM      6  C   UNL     1       2.200   6.878  19.589  0.00  0.00    +0.000 A 
ATOM      7  C   UNL     1       2.245   8.008  18.772  0.00  0.00    +0.000 A 
ATOM      8 BR   UNL     1       1.082   9.460  19.112  0.00  0.00    +0.000 Br
ATOM      9  C   UNL     1       3.125   8.071  17.699  0.00  0.00    +0.000 A 
ATOM     10  C   UNL     1       3.961   6.986  17.434  0.00  0.00    +0.000 A 
ATOM     11  C   UNL     1       3.935   5.816  18.235  0.00  0.00    +0.000 A 
ENDROOT
BRANCH   1  15
ATOM     12  N   UNL     1       7.520   4.726  15.686  0.00  0.00    +0.000 NA
ATOM     13  C   UNL     1       6.911   4.597  16.816  0.00  0.00    +0.000 C 
ATOM     14  N   UNL     1       7.578   4.347  17.963  0.00  0.00    +0.000 N 
ATOM     15  N   UNL     1       5.564   4.637  16.865  0.00  0.00    +0.000 N 
ATOM     16  H   UNL     1       8.522   4.584  15.840  0.00  0.00    +0.000 HD
ATOM     17  H   UNL     1       8.541   4.645  17.991  0.00  0.00    +0.000 HD
ATOM     18  H   UNL     1       7.053   4.671  18.778  0.00  0.00    +0.000 HD
ATOM     19  H   UNL     1       5.133   4.909  15.993  0.00  0.00    +0.000 HD
ENDBRANCH   1  15
TORSDOF 1
ENDMDL
MODEL 8
REMARK VINA RESULT:      -6.7      3.004      4.111
REMARK  Name = 
REMARK  1 active torsions:
REMARK  status: ('A' for Active; 'I' for Inactive)
REMARK    1  A    between atoms: N_4  and  C_5
REMARK                            x       y       z     vdW  Elec       q    Type
REMARK                         _______ _______ _______ _____ _____    ______ ____
ROOT
ATOM      1  C   UNL     1       5.190   4.534  18.248  0.00  0.00    +0.000 A 
ATOM      2  N   UNL     1       6.059   4.437  17.206  0.00  0.00    +0.000 NA
ATOM      3  C   UNL     1       5.980   5.362  16.227  0.00  0.00    +0.000 A 
ATOM      4  C   UNL     1       5.092   6.420  16.237  0.00  0.00    +0.000 A 
ATOM      5  C   UNL     1       4.221   6.554  17.318  0.00  0.00    +0.000 A 
ATOM      6  C   UNL     1       3.338   7.645  17.394  0.00  0.00    +0.000 A 
ATOM      7  C   UNL     1       2.495   7.794  18.495  0.00  0.00    +0.000 A 
ATOM      8 BR   UNL     1       1.349   9.295  18.605  0.00  0.00    +0.000 Br
ATOM      9  C   UNL     1       2.500   6.859  19.522  0.00  0.00    +0.000 A 
ATOM     10  C   UNL     1       3.368   5.768  19.452  0.00  0.00    +0.000 A 
ATOM     11  C   UNL     1       4.248   5.590  18.353  0.00  0.00    +0.000 A 
ENDROOT
BRANCH   1  15
ATOM     12  N   UNL     1       4.786   1.777  20.566  0.00  0.00    +0.000 NA
ATOM     13  C   UNL     1       4.666   2.428  19.459  0.00  0.00    +0.000 C 
ATOM     14  N   UNL     1       3.978   1.931  18.408  0.00  0.00    +0.000 N 
ATOM     15  N   UNL     1       5.298   3.609  19.299  0.00  0.00    +0.000 N 
ATOM     16  H   UNL     1       4.310   0.877  20.466  0.00  0.00    +0.000 HD
ATOM     17  H   UNL     1       3.260   1.258  18.626  0.00  0.00    +0.000 HD
ATOM     18  H   UNL     1       3.632   2.678  17.803  0.00  0.00    +0.000 HD
ATOM     19  H   UNL     1       5.722   3.961  20.144  0.00  0.00    +0.000 HD
ENDBRANCH   1  15
TORSDOF 1
ENDMDL
MODEL 9
REMARK VINA RESULT:      -6.6      1.777      2.016
REMARK  Name = 
REMARK  1 active torsions:
REMARK  status: ('A' for Active; 'I' for Inactive)
REMARK    1  A    between atoms: N_4  and  C_5
REMARK                            x       y       z     vdW  Elec       q    Type
REMARK                         _______ _______ _______ _____ _____    ______ ____
ROOT
ATOM      1  C   UNL     1       4.581   5.025  16.416  0.00  0.00    +0.000 A 
ATOM      2  N   UNL     1       4.810   6.363  16.343  0.00  0.00    +0.000 NA
ATOM      3  C   UNL     1       4.311   7.146  17.321  0.00  0.00    +0.000 A 
ATOM      4  C   UNL     1       3.609   6.665  18.409  0.00  0.00    +0.000 A 
ATOM      5  C   UNL     1       3.399   5.291  18.518  0.00  0.00    +0.000 A 
ATOM      6  C   UNL     1       2.737   4.754  19.635  0.00  0.00    +0.000 A 
ATOM      7  C   UNL     1       2.562   3.375  19.756  0.00  0.00    +0.000 A 
ATOM      8 BR   UNL     1       1.713   2.668  21.291  0.00  0.00    +0.000 Br
ATOM      9  C   UNL     1       3.022   2.515  18.768  0.00  0.00    +0.000 A 
ATOM     10  C   UNL     1       3.674   3.039  17.651  0.00  0.00    +0.000 A 
ATOM     11  C   UNL     1       3.880   4.434  17.500  0.00  0.00    +0.000 A 
ENDROOT
BRANCH   1  15
ATOM     12  N   UNL     1       6.604   3.529  13.807  0.00  0.00    +0.000 NA
ATOM     13  C   UNL     1       6.320   4.317  14.788  0.00  0.00    +0.000 C 
ATOM     14  N   UNL     1       7.202   5.229  15.250  0.00  0.00    +0.000 N 
ATOM     15  N   UNL     1       5.142   4.194  15.433  0.00  0.00    +0.000 N 
ATOM     16  H   UNL     1       7.564   3.718  13.506  0.00  0.00    +0.000 HD
ATOM     17  H   UNL     1       7.899   5.545  14.594  0.00  0.00    +0.000 HD
ATOM     18  H   UNL     1       6.725   6.009  15.707  0.00  0.00    +0.000 HD
ATOM     19  H   UNL     1       4.499   3.555  14.987  0.00  0.00    +0.000 HD
ENDBRANCH   1  15
TORSDOF 1
ENDMDL
