MODEL 1
REMARK VINA RESULT:      -7.4      0.000      0.000
REMARK  Name = 
REMARK  4 active torsions:
REMARK  status: ('A' for Active; 'I' for Inactive)
REMARK    1  A    between atoms: C_2  and  C_3
REMARK    2  A    between atoms: C_3  and  C_4
REMARK    3  A    between atoms: C_8  and  N_9
REMARK    4  A    between atoms: N_13  and  C_14
REMARK                            x       y       z     vdW  Elec       q    Type
REMARK                         _______ _______ _______ _____ _____    ______ ____
ROOT
ATOM      1  C   UNL     1       4.086   7.316  17.466  0.00  0.00    +0.000 C 
ENDROOT
BRANCH   1   2
ATOM      2  C   UNL     1       5.202   6.330  17.196  0.00  0.00    +0.000 A 
ATOM      3  C   UNL     1       5.957   5.800  18.253  0.00  0.00    +0.000 A 
ATOM      4  C   UNL     1       7.029   4.935  18.008  0.00  0.00    +0.000 A 
ATOM      5  C   UNL     1       7.365   4.585  16.700  0.00  0.00    +0.000 A 
ATOM      6  C   UNL     1       6.618   5.107  15.638  0.00  0.00    +0.000 A 
ATOM      7  C   UNL     1       5.540   5.977  15.880  0.00  0.00    +0.000 A 
BRANCH   6   8
ATOM      8  N   UNL     1       6.968   4.749  14.255  0.00  0.00    +0.000 N 
ATOM      9  O   UNL     1       6.382   3.783  13.745  0.00  0.00    +0.000 OA
ATOM     10  O   UNL     1       7.824   5.437  13.683  0.00  0.00    +0.000 OA
ENDBRANCH   6   8
ENDBRANCH   1   2
BRANCH   1  12
ATOM     11  O   UNL     1       2.267   7.461  19.036  0.00  0.00    +0.000 OA
ATOM     12  C   UNL     1       2.944   6.752  18.298  0.00  0.00    +0.000 C 
ATOM     13  N   UNL     1       2.751   5.395  18.130  0.00  0.00    +0.000 N 
ATOM     14  H   UNL     1       3.458   4.887  17.617  0.00  0.00    +0.000 HD
BRANCH  13  15
ATOM     15  C   UNL     1       1.739   4.599  18.799  0.00  0.00    +0.000 C 
ATOM     16  C   UNL     1       1.496   3.222  18.193  0.00  0.00    +0.000 C 
ATOM     17  C   UNL     1       0.646   2.522  19.246  0.00  0.00    +0.000 C 
ATOM     18  C   UNL     1       1.059   3.126  20.590  0.00  0.00    +0.000 C 
ATOM     19  C   UNL     1       1.990   4.299  20.274  0.00  0.00    +0.000 C 
ENDBRANCH  13  15
ENDBRANCH   1  12
TORSDOF 4
ENDMDL
MODEL 2
REMARK VINA RESULT:      -7.0      2.750      6.338
REMARK  Name = 
REMARK  4 active torsions:
REMARK  status: ('A' for Active; 'I' for Inactive)
REMARK    1  A    between atoms: C_2  and  C_3
REMARK    2  A    between atoms: C_3  and  C_4
REMARK    3  A    between atoms: C_8  and  N_9
REMARK    4  A    between atoms: N_13  and  C_14
REMARK                            x       y       z     vdW  Elec       q    Type
REMARK                         _______ _______ _______ _____ _____    ______ ____
ROOT
ATOM      1  C   UNL     1       6.369   5.293  18.446  0.00  0.00    +0.000 C 
ENDROOT
BRANCH   1   2
ATOM      2  C   UNL     1       4.864   5.144  18.475  0.00  0.00    +0.000 A 
ATOM      3  C   UNL     1       4.034   6.208  18.089  0.00  0.00    +0.000 A 
ATOM      4  C   UNL     1       2.641   6.099  18.171  0.00  0.00    +0.000 A 
ATOM      5  C   UNL     1       2.054   4.925  18.640  0.00  0.00    +0.000 A 
ATOM      6  C   UNL     1       2.872   3.857  19.027  0.00  0.00    +0.000 A 
ATOM      7  C   UNL     1       4.272   3.962  18.947  0.00  0.00    +0.000 A 
BRANCH   6   8
ATOM      8  N   UNL     1       2.263   2.616  19.528  0.00  0.00    +0.000 N 
ATOM      9  O   UNL     1       2.363   1.600  18.825  0.00  0.00    +0.000 OA
ATOM     10  O   UNL     1       1.690   2.661  20.626  0.00  0.00    +0.000 OA
ENDBRANCH   6   8
ENDBRANCH   1   2
BRANCH   1  12
ATOM     11  O   UNL     1       8.160   4.199  17.266  0.00  0.00    +0.000 OA
ATOM     12  C   UNL     1       7.033   4.681  17.221  0.00  0.00    +0.000 C 
ATOM     13  N   UNL     1       6.246   4.717  16.088  0.00  0.00    +0.000 N 
ATOM     14  H   UNL     1       5.400   5.270  16.128  0.00  0.00    +0.000 HD
BRANCH  13  15
ATOM     15  C   UNL     1       6.625   4.210  14.782  0.00  0.00    +0.000 C 
ATOM     16  C   UNL     1       5.464   3.791  13.889  0.00  0.00    +0.000 C 
ATOM     17  C   UNL     1       6.119   3.604  12.527  0.00  0.00    +0.000 C 
ATOM     18  C   UNL     1       7.299   4.578  12.491  0.00  0.00    +0.000 C 
ATOM     19  C   UNL     1       7.427   5.163  13.900  0.00  0.00    +0.000 C 
ENDBRANCH  13  15
ENDBRANCH   1  12
TORSDOF 4
ENDMDL
MODEL 3
REMARK VINA RESULT:      -7.0      2.530      3.465
REMARK  Name = 
REMARK  4 active torsions:
REMARK  status: ('A' for Active; 'I' for Inactive)
REMARK    1  A    between atoms: C_2  and  C_3
REMARK    2  A    between atoms: C_3  and  C_4
REMARK    3  A    between atoms: C_8  and  N_9
REMARK    4  A    between atoms: N_13  and  C_14
REMARK                            x       y       z     vdW  Elec       q    Type
REMARK                         _______ _______ _______ _____ _____    ______ ____
ROOT
ATOM      1  C   UNL     1       6.472   4.507  16.184  0.00  0.00    +0.000 C 
ENDROOT
BRANCH   1   2
ATOM      2  C   UNL     1       6.696   4.418  14.690  0.00  0.00    +0.000 A 
ATOM      3  C   UNL     1       7.663   5.219  14.064  0.00  0.00    +0.000 A 
ATOM      4  C   UNL     1       7.834   5.187  12.676  0.00  0.00    +0.000 A 
ATOM      5  C   UNL     1       7.041   4.352  11.889  0.00  0.00    +0.000 A 
ATOM      6  C   UNL     1       6.074   3.548  12.503  0.00  0.00    +0.000 A 
ATOM      7  C   UNL     1       5.898   3.578  13.897  0.00  0.00    +0.000 A 
BRANCH   6   8
ATOM      8  N   UNL     1       5.228   2.669  11.681  0.00  0.00    +0.000 N 
ATOM      9  O   UNL     1       5.688   1.563  11.362  0.00  0.00    +0.000 OA
ATOM     10  O   UNL     1       4.107   3.086  11.362  0.00  0.00    +0.000 OA
ENDBRANCH   6   8
ENDBRANCH   1   2
BRANCH   1  12
ATOM     11  O   UNL     1       4.551   5.931  16.462  0.00  0.00    +0.000 OA
ATOM     12  C   UNL     1       5.036   4.811  16.583  0.00  0.00    +0.000 C 
ATOM     13  N   UNL     1       4.352   3.716  17.072  0.00  0.00    +0.000 N 
ATOM     14  H   UNL     1       4.891   2.883  17.269  0.00  0.00    +0.000 HD
BRANCH  13  15
ATOM     15  C   UNL     1       2.975   3.717  17.528  0.00  0.00    +0.000 C 
ATOM     16  C   UNL     1       2.389   2.341  17.819  0.00  0.00    +0.000 C 
ATOM     17  C   UNL     1       1.091   2.660  18.549  0.00  0.00    +0.000 C 
ATOM     18  C   UNL     1       1.335   3.980  19.284  0.00  0.00    +0.000 C 
ATOM     19  C   UNL     1       2.693   4.501  18.807  0.00  0.00    +0.000 C 
ENDBRANCH  13  15
ENDBRANCH   1  12
TORSDOF 4
ENDMDL
MODEL 4
REMARK VINA RESULT:      -6.9      3.079      6.151
REMARK  Name = 
REMARK  4 active torsions:
REMARK  status: ('A' for Active; 'I' for Inactive)
REMARK    1  A    between atoms: C_2  and  C_3
REMARK    2  A    between atoms: C_3  and  C_4
REMARK    3  A    between atoms: C_8  and  N_9
REMARK    4  A    between atoms: N_13  and  C_14
REMARK                            x       y       z     vdW  Elec       q    Type
REMARK                         _______ _______ _______ _____ _____    ______ ____
ROOT
ATOM      1  C   UNL     1       5.548   6.447  17.181  0.00  0.00    +0.000 C 
ENDROOT
BRANCH   1   2
ATOM      2  C   UNL     1       4.576   5.674  18.045  0.00  0.00    +0.000 A 
ATOM      3  C   UNL     1       3.470   6.314  18.624  0.00  0.00    +0.000 A 
ATOM      4  C   UNL     1       2.601   5.621  19.473  0.00  0.00    +0.000 A 
ATOM      5  C   UNL     1       2.822   4.273  19.757  0.00  0.00    +0.000 A 
ATOM      6  C   UNL     1       3.921   3.624  19.184  0.00  0.00    +0.000 A 
ATOM      7  C   UNL     1       4.798   4.317  18.331  0.00  0.00    +0.000 A 
BRANCH   6   8
ATOM      8  N   UNL     1       4.166   2.205  19.482  0.00  0.00    +0.000 N 
ATOM      9  O   UNL     1       4.916   1.937  20.432  0.00  0.00    +0.000 OA
ATOM     10  O   UNL     1       3.604   1.363  18.768  0.00  0.00    +0.000 OA
ENDBRANCH   6   8
ENDBRANCH   1   2
BRANCH   1  12
ATOM     11  O   UNL     1       7.557   5.291  16.531  0.00  0.00    +0.000 OA
ATOM     12  C   UNL     1       6.395   5.578  16.263  0.00  0.00    +0.000 C 
ATOM     13  N   UNL     1       5.728   5.150  15.133  0.00  0.00    +0.000 N 
ATOM     14  H   UNL     1       4.828   5.568  14.940  0.00  0.00    +0.000 HD
BRANCH  13  15
ATOM     15  C   UNL     1       6.291   4.316  14.088  0.00  0.00    +0.000 C 
ATOM     16  C   UNL     1       5.270   3.649  13.173  0.00  0.00    +0.000 C 
ATOM     17  C   UNL     1       6.123   3.113  12.030  0.00  0.00    +0.000 C 
ATOM     18  C   UNL     1       7.317   4.063  11.914  0.00  0.00    +0.000 C 
ATOM     19  C   UNL     1       7.241   5.009  13.115  0.00  0.00    +0.000 C 
ENDBRANCH  13  15
ENDBRANCH   1  12
TORSDOF 4
ENDMDL
MODEL 5
REMARK VINA RESULT:      -6.9      2.656      3.621
REMARK  Name = 
REMARK  4 active torsions:
REMARK  status: ('A' for Active; 'I' for Inactive)
REMARK    1  A    between atoms: C_2  and  C_3
REMARK    2  A    between atoms: C_3  and  C_4
REMARK    3  A    between atoms: C_8  and  N_9
REMARK    4  A    between atoms: N_13  and  C_14
REMARK                            x       y       z     vdW  Elec       q    Type
REMARK                         _______ _______ _______ _____ _____    ______ ____
ROOT
ATOM      1  C   UNL     1       6.855   4.600  16.111  0.00  0.00    +0.000 C 
ENDROOT
BRANCH   1   2
ATOM      2  C   UNL     1       6.940   4.510  14.603  0.00  0.00    +0.000 A 
ATOM      3  C   UNL     1       7.817   5.339  13.886  0.00  0.00    +0.000 A 
ATOM      4  C   UNL     1       7.857   5.305  12.488  0.00  0.00    +0.000 A 
ATOM      5  C   UNL     1       7.022   4.440  11.781  0.00  0.00    +0.000 A 
ATOM      6  C   UNL     1       6.145   3.608  12.485  0.00  0.00    +0.000 A 
ATOM      7  C   UNL     1       6.100   3.640  13.890  0.00  0.00    +0.000 A 
BRANCH   6   8
ATOM      8  N   UNL     1       5.256   2.697  11.749  0.00  0.00    +0.000 N 
ATOM      9  O   UNL     1       4.116   3.101  11.475  0.00  0.00    +0.000 OA
ATOM     10  O   UNL     1       5.701   1.582  11.444  0.00  0.00    +0.000 OA
ENDBRANCH   6   8
ENDBRANCH   1   2
BRANCH   1  12
ATOM     11  O   UNL     1       4.706   5.664  16.322  0.00  0.00    +0.000 OA
ATOM     12  C   UNL     1       5.439   4.736  16.649  0.00  0.00    +0.000 C 
ATOM     13  N   UNL     1       5.074   3.724  17.514  0.00  0.00    +0.000 N 
ATOM     14  H   UNL     1       5.803   3.098  17.829  0.00  0.00    +0.000 HD
BRANCH  13  15
ATOM     15  C   UNL     1       3.789   3.604  18.176  0.00  0.00    +0.000 C 
ATOM     16  C   UNL     1       2.661   3.065  17.305  0.00  0.00    +0.000 C 
ATOM     17  C   UNL     1       1.556   2.764  18.310  0.00  0.00    +0.000 C 
ATOM     18  C   UNL     1       2.263   2.406  19.619  0.00  0.00    +0.000 C 
ATOM     19  C   UNL     1       3.750   2.701  19.406  0.00  0.00    +0.000 C 
ENDBRANCH  13  15
ENDBRANCH   1  12
TORSDOF 4
ENDMDL
MODEL 6
REMARK VINA RESULT:      -6.9      1.847      3.261
REMARK  Name = 
REMARK  4 active torsions:
REMARK  status: ('A' for Active; 'I' for Inactive)
REMARK    1  A    between atoms: C_2  and  C_3
REMARK    2  A    between atoms: C_3  and  C_4
REMARK    3  A    between atoms: C_8  and  N_9
REMARK    4  A    between atoms: N_13  and  C_14
REMARK                            x       y       z     vdW  Elec       q    Type
REMARK                         _______ _______ _______ _____ _____    ______ ____
ROOT
ATOM      1  C   UNL     1       3.419   3.385  17.579  0.00  0.00    +0.000 C 
ENDROOT
BRANCH   1   2
ATOM      2  C   UNL     1       4.816   3.884  17.283  0.00  0.00    +0.000 A 
ATOM      3  C   UNL     1       5.675   4.261  18.327  0.00  0.00    +0.000 A 
ATOM      4  C   UNL     1       6.946   4.781  18.060  0.00  0.00    +0.000 A 
ATOM      5  C   UNL     1       7.381   4.934  16.744  0.00  0.00    +0.000 A 
ATOM      6  C   UNL     1       6.533   4.559  15.695  0.00  0.00    +0.000 A 
ATOM      7  C   UNL     1       5.255   4.038  15.958  0.00  0.00    +0.000 A 
BRANCH   6   8
ATOM      8  N   UNL     1       6.980   4.721  14.303  0.00  0.00    +0.000 N 
ATOM      9  O   UNL     1       7.849   5.575  14.073  0.00  0.00    +0.000 OA
ATOM     10  O   UNL     1       6.464   3.991  13.446  0.00  0.00    +0.000 OA
ENDBRANCH   6   8
ENDBRANCH   1   2
BRANCH   1  12
ATOM     11  O   UNL     1       1.193   4.291  17.431  0.00  0.00    +0.000 OA
ATOM     12  C   UNL     1       2.375   4.485  17.698  0.00  0.00    +0.000 C 
ATOM     13  N   UNL     1       2.886   5.689  18.139  0.00  0.00    +0.000 N 
ATOM     14  H   UNL     1       3.892   5.777  18.184  0.00  0.00    +0.000 HD
BRANCH  13  15
ATOM     15  C   UNL     1       2.122   6.906  18.341  0.00  0.00    +0.000 C 
ATOM     16  C   UNL     1       2.077   7.410  19.778  0.00  0.00    +0.000 C 
ATOM     17  C   UNL     1       1.494   8.810  19.639  0.00  0.00    +0.000 C 
ATOM     18  C   UNL     1       1.930   9.314  18.262  0.00  0.00    +0.000 C 
ATOM     19  C   UNL     1       2.583   8.127  17.550  0.00  0.00    +0.000 C 
ENDBRANCH  13  15
ENDBRANCH   1  12
TORSDOF 4
ENDMDL
MODEL 7
REMARK VINA RESULT:      -6.9      2.883      6.624
REMARK  Name = 
REMARK  4 active torsions:
REMARK  status: ('A' for Active; 'I' for Inactive)
REMARK    1  A    between atoms: C_2  and  C_3
REMARK    2  A    between atoms: C_3  and  C_4
REMARK    3  A    between atoms: C_8  and  N_9
REMARK    4  A    between atoms: N_13  and  C_14
REMARK                            x       y       z     vdW  Elec       q    Type
REMARK                         _______ _______ _______ _____ _____    ______ ____
ROOT
ATOM      1  C   UNL     1       4.162   3.010  16.954  0.00  0.00    +0.000 C 
ENDROOT
BRANCH   1   2
ATOM      2  C   UNL     1       3.238   3.499  18.048  0.00  0.00    +0.000 A 
ATOM      3  C   UNL     1       2.462   4.654  17.865  0.00  0.00    +0.000 A 
ATOM      4  C   UNL     1       1.651   5.146  18.893  0.00  0.00    +0.000 A 
ATOM      5  C   UNL     1       1.602   4.492  20.124  0.00  0.00    +0.000 A 
ATOM      6  C   UNL     1       2.370   3.339  20.318  0.00  0.00    +0.000 A 
ATOM      7  C   UNL     1       3.187   2.841  19.288  0.00  0.00    +0.000 A 
BRANCH   6   8
ATOM      8  N   UNL     1       2.329   2.645  21.614  0.00  0.00    +0.000 N 
ATOM      9  O   UNL     1       1.275   2.700  22.263  0.00  0.00    +0.000 OA
ATOM     10  O   UNL     1       3.350   2.044  21.976  0.00  0.00    +0.000 OA
ENDBRANCH   6   8
ENDBRANCH   1   2
BRANCH   1  12
ATOM     11  O   UNL     1       5.632   4.149  15.425  0.00  0.00    +0.000 OA
ATOM     12  C   UNL     1       5.265   3.991  16.585  0.00  0.00    +0.000 C 
ATOM     13  N   UNL     1       5.786   4.673  17.666  0.00  0.00    +0.000 N 
ATOM     14  H   UNL     1       5.516   4.357  18.587  0.00  0.00    +0.000 HD
BRANCH  13  15
ATOM     15  C   UNL     1       6.845   5.663  17.607  0.00  0.00    +0.000 C 
ATOM     16  C   UNL     1       6.403   7.059  17.187  0.00  0.00    +0.000 C 
ATOM     17  C   UNL     1       7.618   7.921  17.505  0.00  0.00    +0.000 C 
ATOM     18  C   UNL     1       8.313   7.248  18.690  0.00  0.00    +0.000 C 
ATOM     19  C   UNL     1       7.608   5.907  18.907  0.00  0.00    +0.000 C 
ENDBRANCH  13  15
ENDBRANCH   1  12
TORSDOF 4
ENDMDL
MODEL 8
REMARK VINA RESULT:      -6.8      2.310      6.440
REMARK  Name = 
REMARK  4 active torsions:
REMARK  status: ('A' for Active; 'I' for Inactive)
REMARK    1  A    between atoms: C_2  and  C_3
REMARK    2  A    between atoms: C_3  and  C_4
REMARK    3  A    between atoms: C_8  and  N_9
REMARK    4  A    between atoms: N_13  and  C_14
REMARK                            x       y       z     vdW  Elec       q    Type
REMARK                         _______ _______ _______ _____ _____    ______ ____
ROOT
ATOM      1  C   UNL     1       6.468   6.499  17.068  0.00  0.00    +0.000 C 
ENDROOT
BRANCH   1   2
ATOM      2  C   UNL     1       5.036   6.367  17.539  0.00  0.00    +0.000 A 
ATOM      3  C   UNL     1       4.464   5.101  17.737  0.00  0.00    +0.000 A 
ATOM      4  C   UNL     1       3.123   4.969  18.114  0.00  0.00    +0.000 A 
ATOM      5  C   UNL     1       2.330   6.101  18.299  0.00  0.00    +0.000 A 
ATOM      6  C   UNL     1       2.891   7.369  18.105  0.00  0.00    +0.000 A 
ATOM      7  C   UNL     1       4.237   7.506  17.726  0.00  0.00    +0.000 A 
BRANCH   6   8
ATOM      8  N   UNL     1       2.061   8.569  18.292  0.00  0.00    +0.000 N 
ATOM      9  O   UNL     1       1.474   8.700  19.376  0.00  0.00    +0.000 OA
ATOM     10  O   UNL     1       2.004   9.378  17.357  0.00  0.00    +0.000 OA
ENDBRANCH   6   8
ENDBRANCH   1   2
BRANCH   1  12
ATOM     11  O   UNL     1       7.796   4.560  16.545  0.00  0.00    +0.000 OA
ATOM     12  C   UNL     1       6.940   5.359  16.179  0.00  0.00    +0.000 C 
ATOM     13  N   UNL     1       6.310   5.316  14.951  0.00  0.00    +0.000 N 
ATOM     14  H   UNL     1       5.735   6.107  14.697  0.00  0.00    +0.000 HD
BRANCH  13  15
ATOM     15  C   UNL     1       6.565   4.341  13.907  0.00  0.00    +0.000 C 
ATOM     16  C   UNL     1       5.321   3.759  13.247  0.00  0.00    +0.000 C 
ATOM     17  C   UNL     1       5.877   3.033  12.030  0.00  0.00    +0.000 C 
ATOM     18  C   UNL     1       7.138   3.798  11.622  0.00  0.00    +0.000 C 
ATOM     19  C   UNL     1       7.400   4.827  12.725  0.00  0.00    +0.000 C 
ENDBRANCH  13  15
ENDBRANCH   1  12
TORSDOF 4
ENDMDL
MODEL 9
REMARK VINA RESULT:      -6.8      2.589      3.719
REMARK  Name = 
REMARK  4 active torsions:
REMARK  status: ('A' for Active; 'I' for Inactive)
REMARK    1  A    between atoms: C_2  and  C_3
REMARK    2  A    between atoms: C_3  and  C_4
REMARK    3  A    between atoms: C_8  and  N_9
REMARK    4  A    between atoms: N_13  and  C_14
REMARK                            x       y       z     vdW  Elec       q    Type
REMARK                         _______ _______ _______ _____ _____    ______ ____
ROOT
ATOM      1  C   UNL     1       6.850   4.515  16.158  0.00  0.00    +0.000 C 
ENDROOT
BRANCH   1   2
ATOM      2  C   UNL     1       6.934   4.462  14.649  0.00  0.00    +0.000 A 
ATOM      3  C   UNL     1       7.802   5.317  13.952  0.00  0.00    +0.000 A 
ATOM      4  C   UNL     1       7.842   5.318  12.554  0.00  0.00    +0.000 A 
ATOM      5  C   UNL     1       7.015   4.461  11.826  0.00  0.00    +0.000 A 
ATOM      6  C   UNL     1       6.147   3.603  12.511  0.00  0.00    +0.000 A 
ATOM      7  C   UNL     1       6.103   3.601  13.916  0.00  0.00    +0.000 A 
BRANCH   6   8
ATOM      8  N   UNL     1       5.267   2.701  11.753  0.00  0.00    +0.000 N 
ATOM      9  O   UNL     1       5.704   1.577  11.466  0.00  0.00    +0.000 OA
ATOM     10  O   UNL     1       4.141   3.117  11.452  0.00  0.00    +0.000 OA
ENDBRANCH   6   8
ENDBRANCH   1   2
BRANCH   1  12
ATOM     11  O   UNL     1       4.713   5.590  16.435  0.00  0.00    +0.000 OA
ATOM     12  C   UNL     1       5.433   4.633  16.700  0.00  0.00    +0.000 C 
ATOM     13  N   UNL     1       5.052   3.568  17.493  0.00  0.00    +0.000 N 
ATOM     14  H   UNL     1       5.771   2.913  17.767  0.00  0.00    +0.000 HD
BRANCH  13  15
ATOM     15  C   UNL     1       3.762   3.420  18.141  0.00  0.00    +0.000 C 
ATOM     16  C   UNL     1       3.421   4.502  19.158  0.00  0.00    +0.000 C 
ATOM     17  C   UNL     1       1.941   4.269  19.432  0.00  0.00    +0.000 C 
ATOM     18  C   UNL     1       1.360   3.685  18.142  0.00  0.00    +0.000 C 
ATOM     19  C   UNL     1       2.547   3.402  17.218  0.00  0.00    +0.000 C 
ENDBRANCH  13  15
ENDBRANCH   1  12
TORSDOF 4
ENDMDL
