MODEL 1
REMARK VINA RESULT:      -6.6      0.000      0.000
REMARK  Name = 
REMARK  12 active torsions:
REMARK  status: ('A' for Active; 'I' for Inactive)
REMARK    1  A    between atoms: C_1  and  O_2
REMARK    2  A    between atoms: O_2  and  C_3
REMARK    3  A    between atoms: C_3  and  C_5
REMARK    4  A    between atoms: C_5  and  N_6
REMARK    5  A    between atoms: N_6  and  C_7
REMARK    6  A    between atoms: C_7  and  C_8
REMARK    7  A    between atoms: C_11  and  N_12
REMARK    8  A    between atoms: N_12  and  C_13
REMARK    9  A    between atoms: N_12  and  C_14
REMARK   10  A    between atoms: C_17  and  C_19
REMARK   11  A    between atoms: C_19  and  O_21
REMARK   12  A    between atoms: O_21  and  C_22
REMARK                            x       y       z     vdW  Elec       q    Type
REMARK                         _______ _______ _______ _____ _____    ______ ____
ROOT
ATOM      1  N   UNL     1       3.256   4.771  18.386  0.00  0.00    +0.000 N 
ATOM      2  C   UNL     1       2.081   4.025  18.230  0.00  0.00    +0.000 C 
ATOM      3  O   UNL     1       1.223   4.253  17.381  0.00  0.00    +0.000 OA
ENDROOT
BRANCH   2   4
ATOM      4  C   UNL     1       1.828   2.878  19.231  0.00  0.00    +0.000 C 
ATOM      5  O   UNL     1       2.232   1.745  19.046  0.00  0.00    +0.000 OA
BRANCH   4   6
ATOM      6  O   UNL     1       1.081   3.318  20.264  0.00  0.00    +0.000 OA
ATOM      7  C   UNL     1       1.552   2.868  21.534  0.00  0.00    +0.000 C 
ENDBRANCH   4   6
ENDBRANCH   2   4
BRANCH   1   8
ATOM      8  C   UNL     1       4.240   4.467  19.434  0.00  0.00    +0.000 C 
BRANCH   8   9
ATOM      9  C   UNL     1       5.726   4.665  19.099  0.00  0.00    +0.000 C 
ATOM     10  O   UNL     1       6.483   5.296  19.826  0.00  0.00    +0.000 OA
BRANCH   9  12
ATOM     11  C   UNL     1       7.142   4.672  17.189  0.00  0.00    +0.000 C 
ATOM     12  O   UNL     1       6.084   4.056  17.935  0.00  0.00    +0.000 OA
ENDBRANCH   9  12
ENDBRANCH   8   9
ENDBRANCH   1   8
BRANCH   1  13
ATOM     13  C   UNL     1       3.381   6.027  17.655  0.00  0.00    +0.000 C 
BRANCH  13  14
ATOM     14  C   UNL     1       2.747   7.237  18.312  0.00  0.00    +0.000 A 
ATOM     15  C   UNL     1       2.500   8.405  17.587  0.00  0.00    +0.000 A 
ATOM     16  C   UNL     1       1.731   9.449  18.143  0.00  0.00    +0.000 A 
ATOM     17  C   UNL     1       1.171   9.382  19.431  0.00  0.00    +0.000 A 
ATOM     18  C   UNL     1       1.513   8.238  20.169  0.00  0.00    +0.000 A 
ATOM     19  C   UNL     1       2.284   7.188  19.629  0.00  0.00    +0.000 A 
BRANCH  17  20
ATOM     20  N   UNL     1       0.374  10.409  19.934  0.00  0.00    +0.000 N 
ATOM     21  C   UNL     1      -1.086  10.324  19.813  0.00  0.00    +0.000 C 
ATOM     22  C   UNL     1       0.810  11.267  21.037  0.00  0.00    +0.000 C 
ENDBRANCH  17  20
ENDBRANCH  13  14
ENDBRANCH   1  13
TORSDOF 8
ENDMDL
MODEL 2
REMARK VINA RESULT:      -6.5      0.772      1.459
REMARK  Name = 
REMARK  12 active torsions:
REMARK  status: ('A' for Active; 'I' for Inactive)
REMARK    1  A    between atoms: C_1  and  O_2
REMARK    2  A    between atoms: O_2  and  C_3
REMARK    3  A    between atoms: C_3  and  C_5
REMARK    4  A    between atoms: C_5  and  N_6
REMARK    5  A    between atoms: N_6  and  C_7
REMARK    6  A    between atoms: C_7  and  C_8
REMARK    7  A    between atoms: C_11  and  N_12
REMARK    8  A    between atoms: N_12  and  C_13
REMARK    9  A    between atoms: N_12  and  C_14
REMARK   10  A    between atoms: C_17  and  C_19
REMARK   11  A    between atoms: C_19  and  O_21
REMARK   12  A    between atoms: O_21  and  C_22
REMARK                            x       y       z     vdW  Elec       q    Type
REMARK                         _______ _______ _______ _____ _____    ______ ____
ROOT
ATOM      1  N   UNL     1       3.214   5.154  18.413  0.00  0.00    +0.000 N 
ATOM      2  C   UNL     1       2.110   4.317  18.210  0.00  0.00    +0.000 C 
ATOM      3  O   UNL     1       1.209   4.541  17.407  0.00  0.00    +0.000 OA
ENDROOT
BRANCH   2   4
ATOM      4  C   UNL     1       1.999   3.059  19.097  0.00  0.00    +0.000 C 
ATOM      5  O   UNL     1       2.545   2.008  18.817  0.00  0.00    +0.000 OA
BRANCH   4   6
ATOM      6  O   UNL     1       1.194   3.302  20.152  0.00  0.00    +0.000 OA
ATOM      7  C   UNL     1       1.678   2.745  21.373  0.00  0.00    +0.000 C 
ENDBRANCH   4   6
ENDBRANCH   2   4
BRANCH   1   8
ATOM      8  C   UNL     1       4.256   4.847  19.403  0.00  0.00    +0.000 C 
BRANCH   8   9
ATOM      9  C   UNL     1       5.706   4.745  18.909  0.00  0.00    +0.000 C 
ATOM     10  O   UNL     1       5.992   4.307  17.802  0.00  0.00    +0.000 OA
BRANCH   9  12
ATOM     11  C   UNL     1       7.790   5.817  19.309  0.00  0.00    +0.000 C 
ATOM     12  O   UNL     1       6.603   5.202  19.826  0.00  0.00    +0.000 OA
ENDBRANCH   9  12
ENDBRANCH   8   9
ENDBRANCH   1   8
BRANCH   1  13
ATOM     13  C   UNL     1       3.198   6.481  17.808  0.00  0.00    +0.000 C 
BRANCH  13  14
ATOM     14  C   UNL     1       2.323   7.508  18.499  0.00  0.00    +0.000 A 
ATOM     15  C   UNL     1       2.085   7.446  19.875  0.00  0.00    +0.000 A 
ATOM     16  C   UNL     1       1.443   8.508  20.544  0.00  0.00    +0.000 A 
ATOM     17  C   UNL     1       1.016   9.676  19.889  0.00  0.00    +0.000 A 
ATOM     18  C   UNL     1       1.183   9.671  18.495  0.00  0.00    +0.000 A 
ATOM     19  C   UNL     1       1.819   8.614  17.811  0.00  0.00    +0.000 A 
BRANCH  17  20
ATOM     20  N   UNL     1       0.429  10.732  20.586  0.00  0.00    +0.000 N 
ATOM     21  C   UNL     1      -0.578  10.452  21.615  0.00  0.00    +0.000 C 
ATOM     22  C   UNL     1       1.107  12.014  20.777  0.00  0.00    +0.000 C 
ENDBRANCH  17  20
ENDBRANCH  13  14
ENDBRANCH   1  13
TORSDOF 8
ENDMDL
MODEL 3
REMARK VINA RESULT:      -6.5      1.504      3.938
REMARK  Name = 
REMARK  12 active torsions:
REMARK  status: ('A' for Active; 'I' for Inactive)
REMARK    1  A    between atoms: C_1  and  O_2
REMARK    2  A    between atoms: O_2  and  C_3
REMARK    3  A    between atoms: C_3  and  C_5
REMARK    4  A    between atoms: C_5  and  N_6
REMARK    5  A    between atoms: N_6  and  C_7
REMARK    6  A    between atoms: C_7  and  C_8
REMARK    7  A    between atoms: C_11  and  N_12
REMARK    8  A    between atoms: N_12  and  C_13
REMARK    9  A    between atoms: N_12  and  C_14
REMARK   10  A    between atoms: C_17  and  C_19
REMARK   11  A    between atoms: C_19  and  O_21
REMARK   12  A    between atoms: O_21  and  C_22
REMARK                            x       y       z     vdW  Elec       q    Type
REMARK                         _______ _______ _______ _____ _____    ______ ____
ROOT
ATOM      1  N   UNL     1       4.888   5.248  17.987  0.00  0.00    +0.000 N 
ATOM      2  C   UNL     1       5.929   5.777  17.214  0.00  0.00    +0.000 C 
ATOM      3  O   UNL     1       5.783   6.642  16.355  0.00  0.00    +0.000 OA
ENDROOT
BRANCH   2   4
ATOM      4  C   UNL     1       7.341   5.191  17.424  0.00  0.00    +0.000 C 
ATOM      5  O   UNL     1       7.842   4.396  16.651  0.00  0.00    +0.000 OA
BRANCH   4   6
ATOM      6  O   UNL     1       7.869   5.651  18.577  0.00  0.00    +0.000 OA
ATOM      7  C   UNL     1       8.103   7.059  18.568  0.00  0.00    +0.000 C 
ENDBRANCH   4   6
ENDBRANCH   2   4
BRANCH   1   8
ATOM      8  C   UNL     1       5.117   4.198  18.989  0.00  0.00    +0.000 C 
BRANCH   8   9
ATOM      9  C   UNL     1       4.011   3.152  19.194  0.00  0.00    +0.000 C 
ATOM     10  O   UNL     1       3.849   2.210  18.429  0.00  0.00    +0.000 OA
BRANCH   9  12
ATOM     11  C   UNL     1       1.953   2.820  20.339  0.00  0.00    +0.000 C 
ATOM     12  O   UNL     1       3.268   3.391  20.310  0.00  0.00    +0.000 OA
ENDBRANCH   9  12
ENDBRANCH   8   9
ENDBRANCH   1   8
BRANCH   1  13
ATOM     13  C   UNL     1       3.515   5.566  17.611  0.00  0.00    +0.000 C 
BRANCH  13  14
ATOM     14  C   UNL     1       2.911   6.780  18.289  0.00  0.00    +0.000 A 
ATOM     15  C   UNL     1       2.647   7.950  17.573  0.00  0.00    +0.000 A 
ATOM     16  C   UNL     1       1.905   8.999  18.154  0.00  0.00    +0.000 A 
ATOM     17  C   UNL     1       1.387   8.935  19.460  0.00  0.00    +0.000 A 
ATOM     18  C   UNL     1       1.747   7.789  20.186  0.00  0.00    +0.000 A 
ATOM     19  C   UNL     1       2.492   6.734  19.621  0.00  0.00    +0.000 A 
BRANCH  17  20
ATOM     20  N   UNL     1       0.614   9.968  19.989  0.00  0.00    +0.000 N 
ATOM     21  C   UNL     1      -0.222  10.781  19.099  0.00  0.00    +0.000 C 
ATOM     22  C   UNL     1       0.139   9.955  21.374  0.00  0.00    +0.000 C 
ENDBRANCH  17  20
ENDBRANCH  13  14
ENDBRANCH   1  13
TORSDOF 8
ENDMDL
MODEL 4
REMARK VINA RESULT:      -6.4      1.183      1.562
REMARK  Name = 
REMARK  12 active torsions:
REMARK  status: ('A' for Active; 'I' for Inactive)
REMARK    1  A    between atoms: C_1  and  O_2
REMARK    2  A    between atoms: O_2  and  C_3
REMARK    3  A    between atoms: C_3  and  C_5
REMARK    4  A    between atoms: C_5  and  N_6
REMARK    5  A    between atoms: N_6  and  C_7
REMARK    6  A    between atoms: C_7  and  C_8
REMARK    7  A    between atoms: C_11  and  N_12
REMARK    8  A    between atoms: N_12  and  C_13
REMARK    9  A    between atoms: N_12  and  C_14
REMARK   10  A    between atoms: C_17  and  C_19
REMARK   11  A    between atoms: C_19  and  O_21
REMARK   12  A    between atoms: O_21  and  C_22
REMARK                            x       y       z     vdW  Elec       q    Type
REMARK                         _______ _______ _______ _____ _____    ______ ____
ROOT
ATOM      1  N   UNL     1       4.014   4.340  17.862  0.00  0.00    +0.000 N 
ATOM      2  C   UNL     1       2.920   3.468  17.813  0.00  0.00    +0.000 C 
ATOM      3  O   UNL     1       1.895   3.677  17.168  0.00  0.00    +0.000 OA
ENDROOT
BRANCH   2   4
ATOM      4  C   UNL     1       2.991   2.187  18.671  0.00  0.00    +0.000 C 
ATOM      5  O   UNL     1       3.707   1.246  18.386  0.00  0.00    +0.000 OA
BRANCH   4   6
ATOM      6  O   UNL     1       2.131   2.273  19.707  0.00  0.00    +0.000 OA
ATOM      7  C   UNL     1       2.726   2.794  20.894  0.00  0.00    +0.000 C 
ENDBRANCH   4   6
ENDBRANCH   2   4
BRANCH   1   8
ATOM      8  C   UNL     1       5.208   4.049  18.667  0.00  0.00    +0.000 C 
BRANCH   8   9
ATOM      9  C   UNL     1       6.535   4.691  18.237  0.00  0.00    +0.000 C 
ATOM     10  O   UNL     1       7.156   4.317  17.250  0.00  0.00    +0.000 OA
BRANCH   9  12
ATOM     11  C   UNL     1       7.836   6.662  18.519  0.00  0.00    +0.000 C 
ATOM     12  O   UNL     1       6.914   5.708  19.061  0.00  0.00    +0.000 OA
ENDBRANCH   9  12
ENDBRANCH   8   9
ENDBRANCH   1   8
BRANCH   1  13
ATOM     13  C   UNL     1       3.859   5.679  17.304  0.00  0.00    +0.000 C 
BRANCH  13  14
ATOM     14  C   UNL     1       3.162   6.687  18.197  0.00  0.00    +0.000 A 
ATOM     15  C   UNL     1       2.763   7.932  17.705  0.00  0.00    +0.000 A 
ATOM     16  C   UNL     1       1.941   8.782  18.475  0.00  0.00    +0.000 A 
ATOM     17  C   UNL     1       1.474   8.436  19.755  0.00  0.00    +0.000 A 
ATOM     18  C   UNL     1       1.966   7.223  20.260  0.00  0.00    +0.000 A 
ATOM     19  C   UNL     1       2.792   6.365  19.505  0.00  0.00    +0.000 A 
BRANCH  17  20
ATOM     20  N   UNL     1       0.622   9.275  20.472  0.00  0.00    +0.000 N 
ATOM     21  C   UNL     1       0.958   9.649  21.850  0.00  0.00    +0.000 C 
ATOM     22  C   UNL     1      -0.260  10.240  19.813  0.00  0.00    +0.000 C 
ENDBRANCH  17  20
ENDBRANCH  13  14
ENDBRANCH   1  13
TORSDOF 8
ENDMDL
MODEL 5
REMARK VINA RESULT:      -6.4      1.215      1.753
REMARK  Name = 
REMARK  12 active torsions:
REMARK  status: ('A' for Active; 'I' for Inactive)
REMARK    1  A    between atoms: C_1  and  O_2
REMARK    2  A    between atoms: O_2  and  C_3
REMARK    3  A    between atoms: C_3  and  C_5
REMARK    4  A    between atoms: C_5  and  N_6
REMARK    5  A    between atoms: N_6  and  C_7
REMARK    6  A    between atoms: C_7  and  C_8
REMARK    7  A    between atoms: C_11  and  N_12
REMARK    8  A    between atoms: N_12  and  C_13
REMARK    9  A    between atoms: N_12  and  C_14
REMARK   10  A    between atoms: C_17  and  C_19
REMARK   11  A    between atoms: C_19  and  O_21
REMARK   12  A    between atoms: O_21  and  C_22
REMARK                            x       y       z     vdW  Elec       q    Type
REMARK                         _______ _______ _______ _____ _____    ______ ____
ROOT
ATOM      1  N   UNL     1       3.150   5.277  18.322  0.00  0.00    +0.000 N 
ATOM      2  C   UNL     1       2.119   4.365  18.063  0.00  0.00    +0.000 C 
ATOM      3  O   UNL     1       1.163   4.592  17.326  0.00  0.00    +0.000 OA
ENDROOT
BRANCH   2   4
ATOM      4  C   UNL     1       2.166   3.009  18.797  0.00  0.00    +0.000 C 
ATOM      5  O   UNL     1       1.804   2.875  19.951  0.00  0.00    +0.000 OA
BRANCH   4   6
ATOM      6  O   UNL     1       2.697   2.063  17.995  0.00  0.00    +0.000 OA
ATOM      7  C   UNL     1       3.735   1.309  18.620  0.00  0.00    +0.000 C 
ENDBRANCH   4   6
ENDBRANCH   2   4
BRANCH   1   8
ATOM      8  C   UNL     1       4.261   4.960  19.229  0.00  0.00    +0.000 C 
BRANCH   8   9
ATOM      9  C   UNL     1       5.619   4.610  18.603  0.00  0.00    +0.000 C 
ATOM     10  O   UNL     1       5.728   4.228  17.445  0.00  0.00    +0.000 OA
BRANCH   9  12
ATOM     11  C   UNL     1       7.608   5.801  19.131  0.00  0.00    +0.000 C 
ATOM     12  O   UNL     1       6.654   4.786  19.470  0.00  0.00    +0.000 OA
ENDBRANCH   9  12
ENDBRANCH   8   9
ENDBRANCH   1   8
BRANCH   1  13
ATOM     13  C   UNL     1       2.982   6.657  17.881  0.00  0.00    +0.000 C 
BRANCH  13  14
ATOM     14  C   UNL     1       2.304   7.586  18.868  0.00  0.00    +0.000 A 
ATOM     15  C   UNL     1       1.794   8.822  18.463  0.00  0.00    +0.000 A 
ATOM     16  C   UNL     1       0.990   9.589  19.331  0.00  0.00    +0.000 A 
ATOM     17  C   UNL     1       0.652   9.169  20.630  0.00  0.00    +0.000 A 
ATOM     18  C   UNL     1       1.255   7.970  21.042  0.00  0.00    +0.000 A 
ATOM     19  C   UNL     1       2.063   7.193  20.187  0.00  0.00    +0.000 A 
BRANCH  17  20
ATOM     20  N   UNL     1      -0.185   9.926  21.448  0.00  0.00    +0.000 N 
ATOM     21  C   UNL     1      -0.240   9.650  22.888  0.00  0.00    +0.000 C 
ATOM     22  C   UNL     1      -0.578  11.295  21.108  0.00  0.00    +0.000 C 
ENDBRANCH  17  20
ENDBRANCH  13  14
ENDBRANCH   1  13
TORSDOF 8
ENDMDL
MODEL 6
REMARK VINA RESULT:      -6.3      1.773      3.532
REMARK  Name = 
REMARK  12 active torsions:
REMARK  status: ('A' for Active; 'I' for Inactive)
REMARK    1  A    between atoms: C_1  and  O_2
REMARK    2  A    between atoms: O_2  and  C_3
REMARK    3  A    between atoms: C_3  and  C_5
REMARK    4  A    between atoms: C_5  and  N_6
REMARK    5  A    between atoms: N_6  and  C_7
REMARK    6  A    between atoms: C_7  and  C_8
REMARK    7  A    between atoms: C_11  and  N_12
REMARK    8  A    between atoms: N_12  and  C_13
REMARK    9  A    between atoms: N_12  and  C_14
REMARK   10  A    between atoms: C_17  and  C_19
REMARK   11  A    between atoms: C_19  and  O_21
REMARK   12  A    between atoms: O_21  and  C_22
REMARK                            x       y       z     vdW  Elec       q    Type
REMARK                         _______ _______ _______ _____ _____    ______ ____
ROOT
ATOM      1  N   UNL     1       4.365   5.715  18.193  0.00  0.00    +0.000 N 
ATOM      2  C   UNL     1       5.272   6.071  17.188  0.00  0.00    +0.000 C 
ATOM      3  O   UNL     1       4.994   6.777  16.222  0.00  0.00    +0.000 OA
ENDROOT
BRANCH   2   4
ATOM      4  C   UNL     1       6.699   5.490  17.277  0.00  0.00    +0.000 C 
ATOM      5  O   UNL     1       6.985   4.386  16.853  0.00  0.00    +0.000 OA
BRANCH   4   6
ATOM      6  O   UNL     1       7.513   6.354  17.918  0.00  0.00    +0.000 OA
ATOM      7  C   UNL     1       8.034   5.837  19.142  0.00  0.00    +0.000 C 
ENDBRANCH   4   6
ENDBRANCH   2   4
BRANCH   1   8
ATOM      8  C   UNL     1       4.747   4.849  19.318  0.00  0.00    +0.000 C 
BRANCH   8   9
ATOM      9  C   UNL     1       4.565   3.334  19.148  0.00  0.00    +0.000 C 
ATOM     10  O   UNL     1       4.867   2.535  20.025  0.00  0.00    +0.000 OA
BRANCH   9  12
ATOM     11  C   UNL     1       2.824   2.228  17.964  0.00  0.00    +0.000 C 
ATOM     12  O   UNL     1       4.029   3.005  17.940  0.00  0.00    +0.000 OA
ENDBRANCH   9  12
ENDBRANCH   8   9
ENDBRANCH   1   8
BRANCH   1  13
ATOM     13  C   UNL     1       2.950   6.002  17.984  0.00  0.00    +0.000 C 
BRANCH  13  14
ATOM     14  C   UNL     1       2.457   7.323  18.537  0.00  0.00    +0.000 A 
ATOM     15  C   UNL     1       2.283   8.434  17.708  0.00  0.00    +0.000 A 
ATOM     16  C   UNL     1       1.637   9.595  18.182  0.00  0.00    +0.000 A 
ATOM     17  C   UNL     1       1.131   9.706  19.489  0.00  0.00    +0.000 A 
ATOM     18  C   UNL     1       1.403   8.612  20.327  0.00  0.00    +0.000 A 
ATOM     19  C   UNL     1       2.051   7.447  19.868  0.00  0.00    +0.000 A 
BRANCH  17  20
ATOM     20  N   UNL     1       0.453  10.847  19.915  0.00  0.00    +0.000 N 
ATOM     21  C   UNL     1       0.387  12.023  19.040  0.00  0.00    +0.000 C 
ATOM     22  C   UNL     1      -0.642  10.788  20.884  0.00  0.00    +0.000 C 
ENDBRANCH  17  20
ENDBRANCH  13  14
ENDBRANCH   1  13
TORSDOF 8
ENDMDL
MODEL 7
REMARK VINA RESULT:      -6.3      0.787      1.336
REMARK  Name = 
REMARK  12 active torsions:
REMARK  status: ('A' for Active; 'I' for Inactive)
REMARK    1  A    between atoms: C_1  and  O_2
REMARK    2  A    between atoms: O_2  and  C_3
REMARK    3  A    between atoms: C_3  and  C_5
REMARK    4  A    between atoms: C_5  and  N_6
REMARK    5  A    between atoms: N_6  and  C_7
REMARK    6  A    between atoms: C_7  and  C_8
REMARK    7  A    between atoms: C_11  and  N_12
REMARK    8  A    between atoms: N_12  and  C_13
REMARK    9  A    between atoms: N_12  and  C_14
REMARK   10  A    between atoms: C_17  and  C_19
REMARK   11  A    between atoms: C_19  and  O_21
REMARK   12  A    between atoms: O_21  and  C_22
REMARK                            x       y       z     vdW  Elec       q    Type
REMARK                         _______ _______ _______ _____ _____    ______ ____
ROOT
ATOM      1  N   UNL     1       3.460   4.743  18.170  0.00  0.00    +0.000 N 
ATOM      2  C   UNL     1       2.310   3.969  17.972  0.00  0.00    +0.000 C 
ATOM      3  O   UNL     1       1.357   4.310  17.277  0.00  0.00    +0.000 OA
ENDROOT
BRANCH   2   4
ATOM      4  C   UNL     1       2.218   2.624  18.724  0.00  0.00    +0.000 C 
ATOM      5  O   UNL     1       2.978   1.699  18.507  0.00  0.00    +0.000 OA
BRANCH   4   6
ATOM      6  O   UNL     1       1.176   2.639  19.580  0.00  0.00    +0.000 OA
ATOM      7  C   UNL     1       1.486   3.239  20.837  0.00  0.00    +0.000 C 
ENDBRANCH   4   6
ENDBRANCH   2   4
BRANCH   1   8
ATOM      8  C   UNL     1       4.564   4.294  19.030  0.00  0.00    +0.000 C 
BRANCH   8   9
ATOM      9  C   UNL     1       5.915   5.010  18.892  0.00  0.00    +0.000 C 
ATOM     10  O   UNL     1       6.607   5.298  19.860  0.00  0.00    +0.000 OA
BRANCH   9  12
ATOM     11  C   UNL     1       7.296   4.472  17.033  0.00  0.00    +0.000 C 
ATOM     12  O   UNL     1       6.241   5.264  17.594  0.00  0.00    +0.000 OA
ENDBRANCH   9  12
ENDBRANCH   8   9
ENDBRANCH   1   8
BRANCH   1  13
ATOM     13  C   UNL     1       3.449   6.129  17.717  0.00  0.00    +0.000 C 
BRANCH  13  14
ATOM     14  C   UNL     1       2.549   7.069  18.494  0.00  0.00    +0.000 A 
ATOM     15  C   UNL     1       2.275   6.852  19.846  0.00  0.00    +0.000 A 
ATOM     16  C   UNL     1       1.608   7.830  20.613  0.00  0.00    +0.000 A 
ATOM     17  C   UNL     1       1.191   9.063  20.081  0.00  0.00    +0.000 A 
ATOM     18  C   UNL     1       1.396   9.214  18.700  0.00  0.00    +0.000 A 
ATOM     19  C   UNL     1       2.057   8.244  17.920  0.00  0.00    +0.000 A 
BRANCH  17  20
ATOM     20  N   UNL     1       0.578  10.031  20.875  0.00  0.00    +0.000 N 
ATOM     21  C   UNL     1       0.322   9.754  22.293  0.00  0.00    +0.000 C 
ATOM     22  C   UNL     1       0.674  11.461  20.577  0.00  0.00    +0.000 C 
ENDBRANCH  17  20
ENDBRANCH  13  14
ENDBRANCH   1  13
TORSDOF 8
ENDMDL
MODEL 8
REMARK VINA RESULT:      -6.3      1.290      3.836
REMARK  Name = 
REMARK  12 active torsions:
REMARK  status: ('A' for Active; 'I' for Inactive)
REMARK    1  A    between atoms: C_1  and  O_2
REMARK    2  A    between atoms: O_2  and  C_3
REMARK    3  A    between atoms: C_3  and  C_5
REMARK    4  A    between atoms: C_5  and  N_6
REMARK    5  A    between atoms: N_6  and  C_7
REMARK    6  A    between atoms: C_7  and  C_8
REMARK    7  A    between atoms: C_11  and  N_12
REMARK    8  A    between atoms: N_12  and  C_13
REMARK    9  A    between atoms: N_12  and  C_14
REMARK   10  A    between atoms: C_17  and  C_19
REMARK   11  A    between atoms: C_19  and  O_21
REMARK   12  A    between atoms: O_21  and  C_22
REMARK                            x       y       z     vdW  Elec       q    Type
REMARK                         _______ _______ _______ _____ _____    ______ ____
ROOT
ATOM      1  N   UNL     1       4.524   5.467  18.396  0.00  0.00    +0.000 N 
ATOM      2  C   UNL     1       5.690   6.077  17.917  0.00  0.00    +0.000 C 
ATOM      3  O   UNL     1       5.706   7.092  17.226  0.00  0.00    +0.000 OA
ENDROOT
BRANCH   2   4
ATOM      4  C   UNL     1       7.035   5.391  18.236  0.00  0.00    +0.000 C 
ATOM      5  O   UNL     1       7.434   5.228  19.373  0.00  0.00    +0.000 OA
BRANCH   4   6
ATOM      6  O   UNL     1       7.676   5.069  17.093  0.00  0.00    +0.000 OA
ATOM      7  C   UNL     1       6.914   4.215  16.240  0.00  0.00    +0.000 C 
ENDBRANCH   4   6
ENDBRANCH   2   4
BRANCH   1   8
ATOM      8  C   UNL     1       4.560   4.240  19.203  0.00  0.00    +0.000 C 
BRANCH   8   9
ATOM      9  C   UNL     1       3.508   3.160  18.912  0.00  0.00    +0.000 C 
ATOM     10  O   UNL     1       3.637   2.343  18.009  0.00  0.00    +0.000 OA
BRANCH   9  12
ATOM     11  C   UNL     1       2.679   2.737  21.100  0.00  0.00    +0.000 C 
ATOM     12  O   UNL     1       2.451   3.218  19.769  0.00  0.00    +0.000 OA
ENDBRANCH   9  12
ENDBRANCH   8   9
ENDBRANCH   1   8
BRANCH   1  13
ATOM     13  C   UNL     1       3.240   5.918  17.871  0.00  0.00    +0.000 C 
BRANCH  13  14
ATOM     14  C   UNL     1       2.620   7.107  18.579  0.00  0.00    +0.000 A 
ATOM     15  C   UNL     1       2.297   8.274  17.882  0.00  0.00    +0.000 A 
ATOM     16  C   UNL     1       1.541   9.294  18.496  0.00  0.00    +0.000 A 
ATOM     17  C   UNL     1       1.068   9.204  19.817  0.00  0.00    +0.000 A 
ATOM     18  C   UNL     1       1.487   8.064  20.522  0.00  0.00    +0.000 A 
ATOM     19  C   UNL     1       2.246   7.038  19.923  0.00  0.00    +0.000 A 
BRANCH  17  20
ATOM     20  N   UNL     1       0.281  10.207  20.381  0.00  0.00    +0.000 N 
ATOM     21  C   UNL     1      -0.861  10.744  19.631  0.00  0.00    +0.000 C 
ATOM     22  C   UNL     1       0.148  10.374  21.829  0.00  0.00    +0.000 C 
ENDBRANCH  17  20
ENDBRANCH  13  14
ENDBRANCH   1  13
TORSDOF 8
ENDMDL
MODEL 9
REMARK VINA RESULT:      -6.3      2.584      6.173
REMARK  Name = 
REMARK  12 active torsions:
REMARK  status: ('A' for Active; 'I' for Inactive)
REMARK    1  A    between atoms: C_1  and  O_2
REMARK    2  A    between atoms: O_2  and  C_3
REMARK    3  A    between atoms: C_3  and  C_5
REMARK    4  A    between atoms: C_5  and  N_6
REMARK    5  A    between atoms: N_6  and  C_7
REMARK    6  A    between atoms: C_7  and  C_8
REMARK    7  A    between atoms: C_11  and  N_12
REMARK    8  A    between atoms: N_12  and  C_13
REMARK    9  A    between atoms: N_12  and  C_14
REMARK   10  A    between atoms: C_17  and  C_19
REMARK   11  A    between atoms: C_19  and  O_21
REMARK   12  A    between atoms: O_21  and  C_22
REMARK                            x       y       z     vdW  Elec       q    Type
REMARK                         _______ _______ _______ _____ _____    ______ ____
ROOT
ATOM      1  N   UNL     1       3.928   4.763  19.319  0.00  0.00    +0.000 N 
ATOM      2  C   UNL     1       3.997   3.413  19.688  0.00  0.00    +0.000 C 
ATOM      3  O   UNL     1       5.038   2.823  19.963  0.00  0.00    +0.000 OA
ENDROOT
BRANCH   2   4
ATOM      4  C   UNL     1       2.680   2.609  19.693  0.00  0.00    +0.000 C 
ATOM      5  O   UNL     1       1.801   2.796  20.513  0.00  0.00    +0.000 OA
BRANCH   4   6
ATOM      6  O   UNL     1       2.698   1.681  18.715  0.00  0.00    +0.000 OA
ATOM      7  C   UNL     1       2.717   2.243  17.403  0.00  0.00    +0.000 C 
ENDBRANCH   4   6
ENDBRANCH   2   4
BRANCH   1   8
ATOM      8  C   UNL     1       2.656   5.415  18.980  0.00  0.00    +0.000 C 
BRANCH   8   9
ATOM      9  C   UNL     1       2.093   6.444  19.970  0.00  0.00    +0.000 C 
ATOM     10  O   UNL     1       1.585   6.120  21.035  0.00  0.00    +0.000 OA
BRANCH   9  12
ATOM     11  C   UNL     1       2.393   7.904  18.116  0.00  0.00    +0.000 C 
ATOM     12  O   UNL     1       2.240   7.725  19.530  0.00  0.00    +0.000 OA
ENDBRANCH   9  12
ENDBRANCH   8   9
ENDBRANCH   1   8
BRANCH   1  13
ATOM     13  C   UNL     1       5.172   5.464  19.022  0.00  0.00    +0.000 C 
BRANCH  13  14
ATOM     14  C   UNL     1       5.683   5.326  17.602  0.00  0.00    +0.000 A 
ATOM     15  C   UNL     1       6.872   4.647  17.325  0.00  0.00    +0.000 A 
ATOM     16  C   UNL     1       7.239   4.346  15.997  0.00  0.00    +0.000 A 
ATOM     17  C   UNL     1       6.446   4.694  14.889  0.00  0.00    +0.000 A 
ATOM     18  C   UNL     1       5.306   5.456  15.190  0.00  0.00    +0.000 A 
ATOM     19  C   UNL     1       4.929   5.769  16.513  0.00  0.00    +0.000 A 
BRANCH  17  20
ATOM     20  N   UNL     1       6.810   4.339  13.591  0.00  0.00    +0.000 N 
ATOM     21  C   UNL     1       5.919   3.490  12.792  0.00  0.00    +0.000 C 
ATOM     22  C   UNL     1       7.700   5.168  12.775  0.00  0.00    +0.000 C 
ENDBRANCH  17  20
ENDBRANCH  13  14
ENDBRANCH   1  13
TORSDOF 8
ENDMDL
