MODEL 1
REMARK VINA RESULT:      -8.2      0.000      0.000
REMARK  Name = 
REMARK  6 active torsions:
REMARK  status: ('A' for Active; 'I' for Inactive)
REMARK    1  A    between atoms: C_1  and  C_2
REMARK    2  A    between atoms: C_7  and  C_8
REMARK    3  A    between atoms: N_10  and  O_11
REMARK    4  A    between atoms: O_11  and  C_12
REMARK    5  A    between atoms: C_12  and  C_14
REMARK    6  A    between atoms: C_18  and  N_19
REMARK                            x       y       z     vdW  Elec       q    Type
REMARK                         _______ _______ _______ _____ _____    ______ ____
ROOT
ATOM      1  O   UNL     1       5.733   5.059  18.445  0.00  0.00    +0.000 OA
ENDROOT
BRANCH   1  11
ATOM      2  C   UNL     1       3.278   5.974  17.892  0.00  0.00    +0.000 C 
ATOM      3  C   UNL     1       2.948   4.600  18.391  0.00  0.00    +0.000 C 
ATOM      4  C   UNL     1       1.714   4.112  18.197  0.00  0.00    +0.000 C 
ATOM      5  C   UNL     1       1.274   2.815  18.729  0.00  0.00    +0.000 C 
ATOM      6  O   UNL     1       0.179   2.347  18.446  0.00  0.00    +0.000 OA
ATOM      7  C   UNL     1       2.176   2.151  19.671  0.00  0.00    +0.000 C 
ATOM      8  C   UNL     1       3.420   2.595  19.896  0.00  0.00    +0.000 C 
ATOM      9  C   UNL     1       4.312   1.911  20.891  0.00  0.00    +0.000 C 
ATOM     10  C   UNL     1       3.975   3.785  19.144  0.00  0.00    +0.000 C 
ATOM     11  N   UNL     1       5.263   3.972  19.204  0.00  0.00    +0.000 NA
ENDBRANCH   1  11
BRANCH   1  12
ATOM     12  C   UNL     1       6.884   4.724  17.787  0.00  0.00    +0.000 C 
ATOM     13  O   UNL     1       7.989   4.507  18.262  0.00  0.00    +0.000 OA
BRANCH  12  14
ATOM     14  C   UNL     1       6.605   4.551  16.334  0.00  0.00    +0.000 A 
ATOM     15  C   UNL     1       5.508   3.753  15.967  0.00  0.00    +0.000 A 
ATOM     16  C   UNL     1       5.222   3.504  14.622  0.00  0.00    +0.000 A 
ATOM     17  C   UNL     1       6.036   4.042  13.626  0.00  0.00    +0.000 A 
ATOM     18  C   UNL     1       7.131   4.838  13.988  0.00  0.00    +0.000 A 
ATOM     19  C   UNL     1       7.420   5.104  15.339  0.00  0.00    +0.000 A 
BRANCH  18  20
ATOM     20  N   UNL     1       7.996   5.387  12.933  0.00  0.00    +0.000 N 
ATOM     21  O   UNL     1       8.990   6.038  13.282  0.00  0.00    +0.000 OA
ATOM     22  O   UNL     1       7.678   5.157  11.758  0.00  0.00    +0.000 OA
ENDBRANCH  18  20
ENDBRANCH  12  14
ENDBRANCH   1  12
TORSDOF 4
ENDMDL
MODEL 2
REMARK VINA RESULT:      -8.1      2.259      3.175
REMARK  Name = 
REMARK  6 active torsions:
REMARK  status: ('A' for Active; 'I' for Inactive)
REMARK    1  A    between atoms: C_1  and  C_2
REMARK    2  A    between atoms: C_7  and  C_8
REMARK    3  A    between atoms: N_10  and  O_11
REMARK    4  A    between atoms: O_11  and  C_12
REMARK    5  A    between atoms: C_12  and  C_14
REMARK    6  A    between atoms: C_18  and  N_19
REMARK                            x       y       z     vdW  Elec       q    Type
REMARK                         _______ _______ _______ _____ _____    ______ ____
ROOT
ATOM      1  O   UNL     1       4.452   4.187  16.539  0.00  0.00    +0.000 OA
ENDROOT
BRANCH   1  11
ATOM      2  C   UNL     1       3.354   2.032  17.688  0.00  0.00    +0.000 C 
ATOM      3  C   UNL     1       3.099   3.061  18.747  0.00  0.00    +0.000 C 
ATOM      4  C   UNL     1       2.705   2.663  19.965  0.00  0.00    +0.000 C 
ATOM      5  C   UNL     1       2.346   3.603  21.035  0.00  0.00    +0.000 C 
ATOM      6  O   UNL     1       2.094   3.214  22.168  0.00  0.00    +0.000 OA
ATOM      7  C   UNL     1       2.230   5.014  20.662  0.00  0.00    +0.000 C 
ATOM      8  C   UNL     1       2.616   5.462  19.459  0.00  0.00    +0.000 C 
ATOM      9  C   UNL     1       2.457   6.910  19.093  0.00  0.00    +0.000 C 
ATOM     10  C   UNL     1       3.240   4.535  18.440  0.00  0.00    +0.000 C 
ATOM     11  N   UNL     1       3.843   5.092  17.428  0.00  0.00    +0.000 NA
ENDBRANCH   1  11
BRANCH   1  12
ATOM     12  C   UNL     1       5.786   4.459  16.415  0.00  0.00    +0.000 C 
ATOM     13  O   UNL     1       6.594   4.696  17.303  0.00  0.00    +0.000 OA
BRANCH  12  14
ATOM     14  C   UNL     1       6.198   4.339  14.989  0.00  0.00    +0.000 A 
ATOM     15  C   UNL     1       7.307   5.088  14.560  0.00  0.00    +0.000 A 
ATOM     16  C   UNL     1       7.713   5.065  13.223  0.00  0.00    +0.000 A 
ATOM     17  C   UNL     1       7.009   4.299  12.295  0.00  0.00    +0.000 A 
ATOM     18  C   UNL     1       5.902   3.550  12.719  0.00  0.00    +0.000 A 
ATOM     19  C   UNL     1       5.493   3.558  14.065  0.00  0.00    +0.000 A 
BRANCH  18  20
ATOM     20  N   UNL     1       5.154   2.759  11.731  0.00  0.00    +0.000 N 
ATOM     21  O   UNL     1       5.630   1.670  11.383  0.00  0.00    +0.000 OA
ATOM     22  O   UNL     1       4.087   3.230  11.313  0.00  0.00    +0.000 OA
ENDBRANCH  18  20
ENDBRANCH  12  14
ENDBRANCH   1  12
TORSDOF 4
ENDMDL
MODEL 3
REMARK VINA RESULT:      -7.9      2.108      2.701
REMARK  Name = 
REMARK  6 active torsions:
REMARK  status: ('A' for Active; 'I' for Inactive)
REMARK    1  A    between atoms: C_1  and  C_2
REMARK    2  A    between atoms: C_7  and  C_8
REMARK    3  A    between atoms: N_10  and  O_11
REMARK    4  A    between atoms: O_11  and  C_12
REMARK    5  A    between atoms: C_12  and  C_14
REMARK    6  A    between atoms: C_18  and  N_19
REMARK                            x       y       z     vdW  Elec       q    Type
REMARK                         _______ _______ _______ _____ _____    ______ ____
ROOT
ATOM      1  O   UNL     1       5.093   4.808  16.236  0.00  0.00    +0.000 OA
ENDROOT
BRANCH   1  11
ATOM      2  C   UNL     1       4.053   6.518  18.014  0.00  0.00    +0.000 C 
ATOM      3  C   UNL     1       3.330   5.262  18.394  0.00  0.00    +0.000 C 
ATOM      4  C   UNL     1       2.272   5.338  19.215  0.00  0.00    +0.000 C 
ATOM      5  C   UNL     1       1.560   4.153  19.713  0.00  0.00    +0.000 C 
ATOM      6  O   UNL     1       0.535   4.256  20.373  0.00  0.00    +0.000 OA
ATOM      7  C   UNL     1       2.177   2.853  19.444  0.00  0.00    +0.000 C 
ATOM      8  C   UNL     1       3.230   2.724  18.627  0.00  0.00    +0.000 C 
ATOM      9  C   UNL     1       3.862   1.381  18.395  0.00  0.00    +0.000 C 
ATOM     10  C   UNL     1       3.808   3.916  17.897  0.00  0.00    +0.000 C 
ATOM     11  N   UNL     1       4.628   3.667  16.916  0.00  0.00    +0.000 NA
ENDBRANCH   1  11
BRANCH   1  12
ATOM     12  C   UNL     1       6.430   4.697  15.970  0.00  0.00    +0.000 C 
ATOM     13  O   UNL     1       7.359   4.690  16.765  0.00  0.00    +0.000 OA
BRANCH  12  14
ATOM     14  C   UNL     1       6.640   4.480  14.512  0.00  0.00    +0.000 A 
ATOM     15  C   UNL     1       7.616   5.259  13.867  0.00  0.00    +0.000 A 
ATOM     16  C   UNL     1       7.827   5.146  12.490  0.00  0.00    +0.000 A 
ATOM     17  C   UNL     1       7.056   4.260  11.738  0.00  0.00    +0.000 A 
ATOM     18  C   UNL     1       6.080   3.483  12.378  0.00  0.00    +0.000 A 
ATOM     19  C   UNL     1       5.869   3.581  13.765  0.00  0.00    +0.000 A 
BRANCH  18  20
ATOM     20  N   UNL     1       5.258   2.564  11.575  0.00  0.00    +0.000 N 
ATOM     21  O   UNL     1       4.126   2.942  11.245  0.00  0.00    +0.000 OA
ATOM     22  O   UNL     1       5.754   1.470  11.275  0.00  0.00    +0.000 OA
ENDBRANCH  18  20
ENDBRANCH  12  14
ENDBRANCH   1  12
TORSDOF 4
ENDMDL
MODEL 4
REMARK VINA RESULT:      -7.7      4.466      6.075
REMARK  Name = 
REMARK  6 active torsions:
REMARK  status: ('A' for Active; 'I' for Inactive)
REMARK    1  A    between atoms: C_1  and  C_2
REMARK    2  A    between atoms: C_7  and  C_8
REMARK    3  A    between atoms: N_10  and  O_11
REMARK    4  A    between atoms: O_11  and  C_12
REMARK    5  A    between atoms: C_12  and  C_14
REMARK    6  A    between atoms: C_18  and  N_19
REMARK                            x       y       z     vdW  Elec       q    Type
REMARK                         _______ _______ _______ _____ _____    ______ ____
ROOT
ATOM      1  O   UNL     1       2.340   7.249  19.571  0.00  0.00    +0.000 OA
ENDROOT
BRANCH   1  11
ATOM      2  C   UNL     1       1.983   9.241  17.818  0.00  0.00    +0.000 C 
ATOM      3  C   UNL     1       0.998   9.635  18.877  0.00  0.00    +0.000 C 
ATOM      4  C   UNL     1       0.091  10.585  18.607  0.00  0.00    +0.000 C 
ATOM      5  C   UNL     1      -0.851  11.098  19.611  0.00  0.00    +0.000 C 
ATOM      6  O   UNL     1      -1.737  11.887  19.309  0.00  0.00    +0.000 OA
ATOM      7  C   UNL     1      -0.631  10.678  20.996  0.00  0.00    +0.000 C 
ATOM      8  C   UNL     1       0.258   9.728  21.316  0.00  0.00    +0.000 C 
ATOM      9  C   UNL     1       0.484   9.340  22.749  0.00  0.00    +0.000 C 
ATOM     10  C   UNL     1       1.048   9.003  20.250  0.00  0.00    +0.000 C 
ATOM     11  N   UNL     1       1.665   7.914  20.611  0.00  0.00    +0.000 NA
ENDBRANCH   1  11
BRANCH   1  12
ATOM     12  C   UNL     1       2.548   5.937  19.893  0.00  0.00    +0.000 C 
ATOM     13  O   UNL     1       2.024   5.288  20.788  0.00  0.00    +0.000 OA
BRANCH  12  14
ATOM     14  C   UNL     1       3.479   5.315  18.911  0.00  0.00    +0.000 A 
ATOM     15  C   UNL     1       2.922   4.548  17.874  0.00  0.00    +0.000 A 
ATOM     16  C   UNL     1       3.741   3.891  16.950  0.00  0.00    +0.000 A 
ATOM     17  C   UNL     1       5.127   3.985  17.059  0.00  0.00    +0.000 A 
ATOM     18  C   UNL     1       5.686   4.749  18.093  0.00  0.00    +0.000 A 
ATOM     19  C   UNL     1       4.871   5.423  19.020  0.00  0.00    +0.000 A 
BRANCH  18  20
ATOM     20  N   UNL     1       7.150   4.828  18.212  0.00  0.00    +0.000 N 
ATOM     21  O   UNL     1       7.621   5.216  19.290  0.00  0.00    +0.000 OA
ATOM     22  O   UNL     1       7.821   4.495  17.226  0.00  0.00    +0.000 OA
ENDBRANCH  18  20
ENDBRANCH  12  14
ENDBRANCH   1  12
TORSDOF 4
ENDMDL
MODEL 5
REMARK VINA RESULT:      -7.7      3.731      7.167
REMARK  Name = 
REMARK  6 active torsions:
REMARK  status: ('A' for Active; 'I' for Inactive)
REMARK    1  A    between atoms: C_1  and  C_2
REMARK    2  A    between atoms: C_7  and  C_8
REMARK    3  A    between atoms: N_10  and  O_11
REMARK    4  A    between atoms: O_11  and  C_12
REMARK    5  A    between atoms: C_12  and  C_14
REMARK    6  A    between atoms: C_18  and  N_19
REMARK                            x       y       z     vdW  Elec       q    Type
REMARK                         _______ _______ _______ _____ _____    ______ ____
ROOT
ATOM      1  O   UNL     1       3.287   4.810  19.204  0.00  0.00    +0.000 OA
ENDROOT
BRANCH   1  11
ATOM      2  C   UNL     1       3.539   3.594  16.832  0.00  0.00    +0.000 C 
ATOM      3  C   UNL     1       4.839   4.336  16.894  0.00  0.00    +0.000 C 
ATOM      4  C   UNL     1       5.587   4.441  15.785  0.00  0.00    +0.000 C 
ATOM      5  C   UNL     1       6.914   5.070  15.773  0.00  0.00    +0.000 C 
ATOM      6  O   UNL     1       7.526   5.247  14.728  0.00  0.00    +0.000 OA
ATOM      7  C   UNL     1       7.497   5.402  17.074  0.00  0.00    +0.000 C 
ATOM      8  C   UNL     1       6.791   5.319  18.209  0.00  0.00    +0.000 C 
ATOM      9  C   UNL     1       7.426   5.637  19.533  0.00  0.00    +0.000 C 
ATOM     10  C   UNL     1       5.331   4.924  18.197  0.00  0.00    +0.000 C 
ATOM     11  N   UNL     1       4.651   5.146  19.286  0.00  0.00    +0.000 NA
ENDBRANCH   1  11
BRANCH   1  12
ATOM     12  C   UNL     1       2.576   5.447  20.183  0.00  0.00    +0.000 C 
ATOM     13  O   UNL     1       2.356   5.067  21.325  0.00  0.00    +0.000 OA
BRANCH  12  14
ATOM     14  C   UNL     1       2.143   6.789  19.703  0.00  0.00    +0.000 A 
ATOM     15  C   UNL     1       2.387   7.115  18.358  0.00  0.00    +0.000 A 
ATOM     16  C   UNL     1       2.056   8.376  17.856  0.00  0.00    +0.000 A 
ATOM     17  C   UNL     1       1.487   9.332  18.696  0.00  0.00    +0.000 A 
ATOM     18  C   UNL     1       1.243   9.011  20.039  0.00  0.00    +0.000 A 
ATOM     19  C   UNL     1       1.561   7.740  20.550  0.00  0.00    +0.000 A 
BRANCH  18  20
ATOM     20  N   UNL     1       0.659  10.031  20.923  0.00  0.00    +0.000 N 
ATOM     21  O   UNL     1       1.234  10.263  21.995  0.00  0.00    +0.000 OA
ATOM     22  O   UNL     1      -0.371  10.600  20.535  0.00  0.00    +0.000 OA
ENDBRANCH  18  20
ENDBRANCH  12  14
ENDBRANCH   1  12
TORSDOF 4
ENDMDL
MODEL 6
REMARK VINA RESULT:      -7.6      5.147      8.257
REMARK  Name = 
REMARK  6 active torsions:
REMARK  status: ('A' for Active; 'I' for Inactive)
REMARK    1  A    between atoms: C_1  and  C_2
REMARK    2  A    between atoms: C_7  and  C_8
REMARK    3  A    between atoms: N_10  and  O_11
REMARK    4  A    between atoms: O_11  and  C_12
REMARK    5  A    between atoms: C_12  and  C_14
REMARK    6  A    between atoms: C_18  and  N_19
REMARK                            x       y       z     vdW  Elec       q    Type
REMARK                         _______ _______ _______ _____ _____    ______ ____
ROOT
ATOM      1  O   UNL     1       2.131   7.797  18.828  0.00  0.00    +0.000 OA
ENDROOT
BRANCH   1  11
ATOM      2  C   UNL     1       1.830   5.683  20.443  0.00  0.00    +0.000 C 
ATOM      3  C   UNL     1       2.485   5.030  19.264  0.00  0.00    +0.000 C 
ATOM      4  C   UNL     1       2.498   3.692  19.180  0.00  0.00    +0.000 C 
ATOM      5  C   UNL     1       3.194   2.965  18.110  0.00  0.00    +0.000 C 
ATOM      6  O   UNL     1       3.099   1.749  17.998  0.00  0.00    +0.000 OA
ATOM      7  C   UNL     1       4.063   3.753  17.235  0.00  0.00    +0.000 C 
ATOM      8  C   UNL     1       4.082   5.092  17.276  0.00  0.00    +0.000 C 
ATOM      9  C   UNL     1       5.007   5.874  16.388  0.00  0.00    +0.000 C 
ATOM     10  C   UNL     1       3.164   5.862  18.199  0.00  0.00    +0.000 C 
ATOM     11  N   UNL     1       3.038   7.139  17.975  0.00  0.00    +0.000 NA
ENDBRANCH   1  11
BRANCH   1  12
ATOM     12  C   UNL     1       1.828   9.038  18.341  0.00  0.00    +0.000 C 
ATOM     13  O   UNL     1       2.229   9.564  17.312  0.00  0.00    +0.000 OA
BRANCH  12  14
ATOM     14  C   UNL     1       0.815   9.692  19.215  0.00  0.00    +0.000 A 
ATOM     15  C   UNL     1      -0.160  10.497  18.602  0.00  0.00    +0.000 A 
ATOM     16  C   UNL     1      -1.107  11.183  19.367  0.00  0.00    +0.000 A 
ATOM     17  C   UNL     1      -1.084  11.081  20.757  0.00  0.00    +0.000 A 
ATOM     18  C   UNL     1      -0.113  10.279  21.373  0.00  0.00    +0.000 A 
ATOM     19  C   UNL     1       0.837   9.576  20.611  0.00  0.00    +0.000 A 
BRANCH  18  20
ATOM     20  N   UNL     1      -0.084  10.192  22.840  0.00  0.00    +0.000 N 
ATOM     21  O   UNL     1      -1.038  10.673  23.466  0.00  0.00    +0.000 OA
ATOM     22  O   UNL     1       0.892   9.634  23.360  0.00  0.00    +0.000 OA
ENDBRANCH  18  20
ENDBRANCH  12  14
ENDBRANCH   1  12
TORSDOF 4
ENDMDL
MODEL 7
REMARK VINA RESULT:      -7.6      1.654      2.260
REMARK  Name = 
REMARK  6 active torsions:
REMARK  status: ('A' for Active; 'I' for Inactive)
REMARK    1  A    between atoms: C_1  and  C_2
REMARK    2  A    between atoms: C_7  and  C_8
REMARK    3  A    between atoms: N_10  and  O_11
REMARK    4  A    between atoms: O_11  and  C_12
REMARK    5  A    between atoms: C_12  and  C_14
REMARK    6  A    between atoms: C_18  and  N_19
REMARK                            x       y       z     vdW  Elec       q    Type
REMARK                         _______ _______ _______ _____ _____    ______ ____
ROOT
ATOM      1  O   UNL     1       5.611   4.040  19.492  0.00  0.00    +0.000 OA
ENDROOT
BRANCH   1  11
ATOM      2  C   UNL     1       4.532   2.671  17.460  0.00  0.00    +0.000 C 
ATOM      3  C   UNL     1       3.312   2.926  18.291  0.00  0.00    +0.000 C 
ATOM      4  C   UNL     1       2.182   2.256  18.019  0.00  0.00    +0.000 C 
ATOM      5  C   UNL     1       0.916   2.506  18.720  0.00  0.00    +0.000 C 
ATOM      6  O   UNL     1      -0.070   1.807  18.525  0.00  0.00    +0.000 OA
ATOM      7  C   UNL     1       0.871   3.673  19.602  0.00  0.00    +0.000 C 
ATOM      8  C   UNL     1       1.972   4.371  19.910  0.00  0.00    +0.000 C 
ATOM      9  C   UNL     1       1.890   5.583  20.793  0.00  0.00    +0.000 C 
ATOM     10  C   UNL     1       3.333   3.955  19.398  0.00  0.00    +0.000 C 
ATOM     11  N   UNL     1       4.370   4.502  19.967  0.00  0.00    +0.000 NA
ENDBRANCH   1  11
BRANCH   1  12
ATOM     12  C   UNL     1       6.424   5.092  19.171  0.00  0.00    +0.000 C 
ATOM     13  O   UNL     1       7.328   5.577  19.836  0.00  0.00    +0.000 OA
BRANCH  12  14
ATOM     14  C   UNL     1       6.126   5.558  17.788  0.00  0.00    +0.000 A 
ATOM     15  C   UNL     1       5.105   6.509  17.621  0.00  0.00    +0.000 A 
ATOM     16  C   UNL     1       4.737   6.949  16.347  0.00  0.00    +0.000 A 
ATOM     17  C   UNL     1       5.379   6.435  15.221  0.00  0.00    +0.000 A 
ATOM     18  C   UNL     1       6.398   5.486  15.383  0.00  0.00    +0.000 A 
ATOM     19  C   UNL     1       6.784   5.046  16.662  0.00  0.00    +0.000 A 
BRANCH  18  20
ATOM     20  N   UNL     1       7.058   4.935  14.190  0.00  0.00    +0.000 N 
ATOM     21  O   UNL     1       8.063   5.520  13.764  0.00  0.00    +0.000 OA
ATOM     22  O   UNL     1       6.569   3.913  13.688  0.00  0.00    +0.000 OA
ENDBRANCH  18  20
ENDBRANCH  12  14
ENDBRANCH   1  12
TORSDOF 4
ENDMDL
MODEL 8
REMARK VINA RESULT:      -7.6      2.860      4.203
REMARK  Name = 
REMARK  6 active torsions:
REMARK  status: ('A' for Active; 'I' for Inactive)
REMARK    1  A    between atoms: C_1  and  C_2
REMARK    2  A    between atoms: C_7  and  C_8
REMARK    3  A    between atoms: N_10  and  O_11
REMARK    4  A    between atoms: O_11  and  C_12
REMARK    5  A    between atoms: C_12  and  C_14
REMARK    6  A    between atoms: C_18  and  N_19
REMARK                            x       y       z     vdW  Elec       q    Type
REMARK                         _______ _______ _______ _____ _____    ______ ____
ROOT
ATOM      1  O   UNL     1       4.344   4.614  16.775  0.00  0.00    +0.000 OA
ENDROOT
BRANCH   1  11
ATOM      2  C   UNL     1       3.304   2.323  17.694  0.00  0.00    +0.000 C 
ATOM      3  C   UNL     1       3.022   3.231  18.853  0.00  0.00    +0.000 C 
ATOM      4  C   UNL     1       2.639   2.700  20.023  0.00  0.00    +0.000 C 
ATOM      5  C   UNL     1       2.255   3.515  21.183  0.00  0.00    +0.000 C 
ATOM      6  O   UNL     1       2.014   3.004  22.269  0.00  0.00    +0.000 OA
ATOM      7  C   UNL     1       2.102   4.952  20.956  0.00  0.00    +0.000 C 
ATOM      8  C   UNL     1       2.475   5.532  19.807  0.00  0.00    +0.000 C 
ATOM      9  C   UNL     1       2.277   7.005  19.592  0.00  0.00    +0.000 C 
ATOM     10  C   UNL     1       3.123   4.732  18.699  0.00  0.00    +0.000 C 
ATOM     11  N   UNL     1       3.711   5.405  17.752  0.00  0.00    +0.000 NA
ENDBRANCH   1  11
BRANCH   1  12
ATOM     12  C   UNL     1       5.293   5.338  16.111  0.00  0.00    +0.000 C 
ATOM     13  O   UNL     1       5.303   5.670  14.934  0.00  0.00    +0.000 OA
BRANCH  12  14
ATOM     14  C   UNL     1       6.345   5.789  17.064  0.00  0.00    +0.000 A 
ATOM     15  C   UNL     1       6.855   4.846  17.972  0.00  0.00    +0.000 A 
ATOM     16  C   UNL     1       7.804   5.215  18.930  0.00  0.00    +0.000 A 
ATOM     17  C   UNL     1       8.246   6.536  18.998  0.00  0.00    +0.000 A 
ATOM     18  C   UNL     1       7.739   7.479  18.094  0.00  0.00    +0.000 A 
ATOM     19  C   UNL     1       6.794   7.115  17.119  0.00  0.00    +0.000 A 
BRANCH  18  20
ATOM     20  N   UNL     1       8.198   8.874  18.184  0.00  0.00    +0.000 N 
ATOM     21  O   UNL     1       7.650   9.710  17.453  0.00  0.00    +0.000 OA
ATOM     22  O   UNL     1       9.101   9.126  18.994  0.00  0.00    +0.000 OA
ENDBRANCH  18  20
ENDBRANCH  12  14
ENDBRANCH   1  12
TORSDOF 4
ENDMDL
MODEL 9
REMARK VINA RESULT:      -7.5      1.482      1.874
REMARK  Name = 
REMARK  6 active torsions:
REMARK  status: ('A' for Active; 'I' for Inactive)
REMARK    1  A    between atoms: C_1  and  C_2
REMARK    2  A    between atoms: C_7  and  C_8
REMARK    3  A    between atoms: N_10  and  O_11
REMARK    4  A    between atoms: O_11  and  C_12
REMARK    5  A    between atoms: C_12  and  C_14
REMARK    6  A    between atoms: C_18  and  N_19
REMARK                            x       y       z     vdW  Elec       q    Type
REMARK                         _______ _______ _______ _____ _____    ______ ____
ROOT
ATOM      1  O   UNL     1       5.537   5.155  19.820  0.00  0.00    +0.000 OA
ENDROOT
BRANCH   1  11
ATOM      2  C   UNL     1       2.985   5.894  20.160  0.00  0.00    +0.000 C 
ATOM      3  C   UNL     1       2.795   4.509  19.621  0.00  0.00    +0.000 C 
ATOM      4  C   UNL     1       1.575   4.126  19.214  0.00  0.00    +0.000 C 
ATOM      5  C   UNL     1       1.276   2.763  18.757  0.00  0.00    +0.000 C 
ATOM      6  O   UNL     1       0.182   2.471  18.292  0.00  0.00    +0.000 OA
ATOM      7  C   UNL     1       2.322   1.758  18.956  0.00  0.00    +0.000 C 
ATOM      8  C   UNL     1       3.557   2.090  19.354  0.00  0.00    +0.000 C 
ATOM      9  C   UNL     1       4.601   1.033  19.579  0.00  0.00    +0.000 C 
ATOM     10  C   UNL     1       3.950   3.534  19.572  0.00  0.00    +0.000 C 
ATOM     11  N   UNL     1       5.223   3.790  19.673  0.00  0.00    +0.000 NA
ENDBRANCH   1  11
BRANCH   1  12
ATOM     12  C   UNL     1       6.640   5.477  19.081  0.00  0.00    +0.000 C 
ATOM     13  O   UNL     1       7.812   5.465  19.429  0.00  0.00    +0.000 OA
BRANCH  12  14
ATOM     14  C   UNL     1       6.240   5.778  17.678  0.00  0.00    +0.000 A 
ATOM     15  C   UNL     1       5.146   6.637  17.478  0.00  0.00    +0.000 A 
ATOM     16  C   UNL     1       4.683   6.918  16.190  0.00  0.00    +0.000 A 
ATOM     17  C   UNL     1       5.302   6.336  15.085  0.00  0.00    +0.000 A 
ATOM     18  C   UNL     1       6.393   5.478  15.280  0.00  0.00    +0.000 A 
ATOM     19  C   UNL     1       6.874   5.198  16.572  0.00  0.00    +0.000 A 
BRANCH  18  20
ATOM     20  N   UNL     1       7.030   4.853  14.111  0.00  0.00    +0.000 N 
ATOM     21  O   UNL     1       6.518   3.820  13.659  0.00  0.00    +0.000 OA
ATOM     22  O   UNL     1       8.037   5.404  13.647  0.00  0.00    +0.000 OA
ENDBRANCH  18  20
ENDBRANCH  12  14
ENDBRANCH   1  12
TORSDOF 4
ENDMDL
