MODEL 1
REMARK VINA RESULT:      -5.9      0.000      0.000
REMARK  Name = 
REMARK  3 active torsions:
REMARK  status: ('A' for Active; 'I' for Inactive)
REMARK    1  A    between atoms: C_2  and  C_3
REMARK    2  A    between atoms: C_7  and  S_8
REMARK    3  A    between atoms: S_8  and  N_9
REMARK                            x       y       z     vdW  Elec       q    Type
REMARK                         _______ _______ _______ _____ _____    ______ ____
ROOT
ATOM      1  C   UNL     1       2.906   4.687  17.905  0.00  0.00    +0.000 A 
ATOM      2  C   UNL     1       2.580   6.033  18.105  0.00  0.00    +0.000 A 
ATOM      3  C   UNL     1       3.498   7.036  17.781  0.00  0.00    +0.000 A 
ATOM      4  C   UNL     1       4.743   6.695  17.258  0.00  0.00    +0.000 A 
ATOM      5  C   UNL     1       5.067   5.348  17.072  0.00  0.00    +0.000 A 
ATOM      6  C   UNL     1       4.152   4.339  17.385  0.00  0.00    +0.000 A 
ENDROOT
BRANCH   5   7
ATOM      7  S   UNL     1       6.646   4.920  16.411  0.00  0.00    +0.000 S 
ATOM      8  O   UNL     1       6.492   3.852  15.450  0.00  0.00    +0.000 OA
ATOM      9  O   UNL     1       7.382   6.127  16.118  0.00  0.00    +0.000 OA
BRANCH   7  10
ATOM     10  N   UNL     1       7.386   4.237  17.752  0.00  0.00    +0.000 NA
ATOM     11  H   UNL     1       6.684   3.846  18.380  0.00  0.00    +0.000 HD
ATOM     12  H   UNL     1       8.104   3.576  17.459  0.00  0.00    +0.000 HD
ENDBRANCH   7  10
ENDBRANCH   5   7
BRANCH   1  14
ATOM     13  C   UNL     1       1.156   2.817  18.502  0.00  0.00    +0.000 C 
ATOM     14  C   UNL     1       1.957   3.666  18.227  0.00  0.00    +0.000 C 
ENDBRANCH   1  14
TORSDOF 3
ENDMDL
MODEL 2
REMARK VINA RESULT:      -5.8      1.577      2.919
REMARK  Name = 
REMARK  3 active torsions:
REMARK  status: ('A' for Active; 'I' for Inactive)
REMARK    1  A    between atoms: C_2  and  C_3
REMARK    2  A    between atoms: C_7  and  S_8
REMARK    3  A    between atoms: S_8  and  N_9
REMARK                            x       y       z     vdW  Elec       q    Type
REMARK                         _______ _______ _______ _____ _____    ______ ____
ROOT
ATOM      1  C   UNL     1       3.456   6.428  17.713  0.00  0.00    +0.000 A 
ATOM      2  C   UNL     1       2.857   5.166  17.803  0.00  0.00    +0.000 A 
ATOM      3  C   UNL     1       3.596   4.014  17.524  0.00  0.00    +0.000 A 
ATOM      4  C   UNL     1       4.935   4.120  17.153  0.00  0.00    +0.000 A 
ATOM      5  C   UNL     1       5.523   5.383  17.053  0.00  0.00    +0.000 A 
ATOM      6  C   UNL     1       4.794   6.541  17.339  0.00  0.00    +0.000 A 
ENDROOT
BRANCH   5   7
ATOM      7  S   UNL     1       7.219   5.515  16.582  0.00  0.00    +0.000 S 
ATOM      8  O   UNL     1       7.655   6.883  16.730  0.00  0.00    +0.000 OA
ATOM      9  O   UNL     1       7.954   4.402  17.136  0.00  0.00    +0.000 OA
BRANCH   7  10
ATOM     10  N   UNL     1       7.121   5.233  14.931  0.00  0.00    +0.000 NA
ATOM     11  H   UNL     1       8.002   4.852  14.587  0.00  0.00    +0.000 HD
ATOM     12  H   UNL     1       6.304   4.661  14.720  0.00  0.00    +0.000 HD
ENDBRANCH   7  10
ENDBRANCH   5   7
BRANCH   1  14
ATOM     13  C   UNL     1       2.064   8.593  18.254  0.00  0.00    +0.000 C 
ATOM     14  C   UNL     1       2.697   7.603  18.012  0.00  0.00    +0.000 C 
ENDBRANCH   1  14
TORSDOF 3
ENDMDL
MODEL 3
REMARK VINA RESULT:      -5.8      1.382      2.849
REMARK  Name = 
REMARK  3 active torsions:
REMARK  status: ('A' for Active; 'I' for Inactive)
REMARK    1  A    between atoms: C_2  and  C_3
REMARK    2  A    between atoms: C_7  and  S_8
REMARK    3  A    between atoms: S_8  and  N_9
REMARK                            x       y       z     vdW  Elec       q    Type
REMARK                         _______ _______ _______ _____ _____    ______ ____
ROOT
ATOM      1  C   UNL     1       3.428   6.361  17.741  0.00  0.00    +0.000 A 
ATOM      2  C   UNL     1       2.698   5.172  17.846  0.00  0.00    +0.000 A 
ATOM      3  C   UNL     1       3.333   3.938  17.681  0.00  0.00    +0.000 A 
ATOM      4  C   UNL     1       4.699   3.892  17.410  0.00  0.00    +0.000 A 
ATOM      5  C   UNL     1       5.419   5.083  17.295  0.00  0.00    +0.000 A 
ATOM      6  C   UNL     1       4.793   6.321  17.466  0.00  0.00    +0.000 A 
ENDROOT
BRANCH   5   7
ATOM      7  S   UNL     1       7.149   5.020  16.950  0.00  0.00    +0.000 S 
ATOM      8  O   UNL     1       7.848   4.481  18.092  0.00  0.00    +0.000 OA
ATOM      9  O   UNL     1       7.348   4.518  15.611  0.00  0.00    +0.000 OA
BRANCH   7  10
ATOM     10  N   UNL     1       7.530   6.653  16.897  0.00  0.00    +0.000 NA
ATOM     11  H   UNL     1       6.868   7.148  16.299  0.00  0.00    +0.000 HD
ATOM     12  H   UNL     1       7.607   7.027  17.842  0.00  0.00    +0.000 HD
ENDBRANCH   7  10
ENDBRANCH   5   7
BRANCH   1  14
ATOM     13  C   UNL     1       2.234   8.681  18.073  0.00  0.00    +0.000 C 
ATOM     14  C   UNL     1       2.773   7.621  17.923  0.00  0.00    +0.000 C 
ENDBRANCH   1  14
TORSDOF 3
ENDMDL
MODEL 4
REMARK VINA RESULT:      -5.8      1.029      2.563
REMARK  Name = 
REMARK  3 active torsions:
REMARK  status: ('A' for Active; 'I' for Inactive)
REMARK    1  A    between atoms: C_2  and  C_3
REMARK    2  A    between atoms: C_7  and  S_8
REMARK    3  A    between atoms: S_8  and  N_9
REMARK                            x       y       z     vdW  Elec       q    Type
REMARK                         _______ _______ _______ _____ _____    ______ ____
ROOT
ATOM      1  C   UNL     1       3.366   6.419  17.695  0.00  0.00    +0.000 A 
ATOM      2  C   UNL     1       2.707   5.206  17.924  0.00  0.00    +0.000 A 
ATOM      3  C   UNL     1       3.364   3.994  17.700  0.00  0.00    +0.000 A 
ATOM      4  C   UNL     1       4.681   3.992  17.244  0.00  0.00    +0.000 A 
ATOM      5  C   UNL     1       5.329   5.206  17.006  0.00  0.00    +0.000 A 
ATOM      6  C   UNL     1       4.682   6.424  17.236  0.00  0.00    +0.000 A 
ENDROOT
BRANCH   5   7
ATOM      7  S   UNL     1       6.996   5.200  16.428  0.00  0.00    +0.000 S 
ATOM      8  O   UNL     1       7.091   4.388  15.237  0.00  0.00    +0.000 OA
ATOM      9  O   UNL     1       7.528   6.541  16.496  0.00  0.00    +0.000 OA
BRANCH   7  10
ATOM     10  N   UNL     1       7.760   4.334  17.645  0.00  0.00    +0.000 NA
ATOM     11  H   UNL     1       7.614   4.790  18.545  0.00  0.00    +0.000 HD
ATOM     12  H   UNL     1       7.470   3.357  17.616  0.00  0.00    +0.000 HD
ENDBRANCH   7  10
ENDBRANCH   5   7
BRANCH   1  14
ATOM     13  C   UNL     1       2.120   8.690  18.151  0.00  0.00    +0.000 C 
ATOM     14  C   UNL     1       2.691   7.657  17.940  0.00  0.00    +0.000 C 
ENDBRANCH   1  14
TORSDOF 3
ENDMDL
MODEL 5
REMARK VINA RESULT:      -5.7      3.155      4.259
REMARK  Name = 
REMARK  3 active torsions:
REMARK  status: ('A' for Active; 'I' for Inactive)
REMARK    1  A    between atoms: C_2  and  C_3
REMARK    2  A    between atoms: C_7  and  S_8
REMARK    3  A    between atoms: S_8  and  N_9
REMARK                            x       y       z     vdW  Elec       q    Type
REMARK                         _______ _______ _______ _____ _____    ______ ____
ROOT
ATOM      1  C   UNL     1       5.309   4.654  15.427  0.00  0.00    +0.000 A 
ATOM      2  C   UNL     1       5.291   6.035  15.657  0.00  0.00    +0.000 A 
ATOM      3  C   UNL     1       4.810   6.540  16.868  0.00  0.00    +0.000 A 
ATOM      4  C   UNL     1       4.345   5.667  17.849  0.00  0.00    +0.000 A 
ATOM      5  C   UNL     1       4.355   4.291  17.607  0.00  0.00    +0.000 A 
ATOM      6  C   UNL     1       4.842   3.776  16.403  0.00  0.00    +0.000 A 
ENDROOT
BRANCH   5   7
ATOM      7  S   UNL     1       3.763   3.189  18.852  0.00  0.00    +0.000 S 
ATOM      8  O   UNL     1       3.009   3.931  19.835  0.00  0.00    +0.000 OA
ATOM      9  O   UNL     1       3.253   1.993  18.224  0.00  0.00    +0.000 OA
BRANCH   7  10
ATOM     10  N   UNL     1       5.197   2.745  19.602  0.00  0.00    +0.000 NA
ATOM     11  H   UNL     1       5.973   2.812  18.943  0.00  0.00    +0.000 HD
ATOM     12  H   UNL     1       5.326   3.280  20.460  0.00  0.00    +0.000 HD
ENDBRANCH   7  10
ENDBRANCH   5   7
BRANCH   1  14
ATOM     13  C   UNL     1       6.236   3.722  13.148  0.00  0.00    +0.000 C 
ATOM     14  C   UNL     1       5.815   4.142  14.190  0.00  0.00    +0.000 C 
ENDBRANCH   1  14
TORSDOF 3
ENDMDL
MODEL 6
REMARK VINA RESULT:      -5.7      1.048      1.278
REMARK  Name = 
REMARK  3 active torsions:
REMARK  status: ('A' for Active; 'I' for Inactive)
REMARK    1  A    between atoms: C_2  and  C_3
REMARK    2  A    between atoms: C_7  and  S_8
REMARK    3  A    between atoms: S_8  and  N_9
REMARK                            x       y       z     vdW  Elec       q    Type
REMARK                         _______ _______ _______ _____ _____    ______ ____
ROOT
ATOM      1  C   UNL     1       2.906   4.643  18.002  0.00  0.00    +0.000 A 
ATOM      2  C   UNL     1       2.563   5.997  18.092  0.00  0.00    +0.000 A 
ATOM      3  C   UNL     1       3.506   6.983  17.793  0.00  0.00    +0.000 A 
ATOM      4  C   UNL     1       4.794   6.619  17.406  0.00  0.00    +0.000 A 
ATOM      5  C   UNL     1       5.133   5.265  17.331  0.00  0.00    +0.000 A 
ATOM      6  C   UNL     1       4.193   4.271  17.619  0.00  0.00    +0.000 A 
ENDROOT
BRANCH   5   7
ATOM      7  S   UNL     1       6.765   4.807  16.841  0.00  0.00    +0.000 S 
ATOM      8  O   UNL     1       7.521   4.401  18.003  0.00  0.00    +0.000 OA
ATOM      9  O   UNL     1       6.695   4.004  15.643  0.00  0.00    +0.000 OA
BRANCH   7  10
ATOM     10  N   UNL     1       7.393   6.290  16.372  0.00  0.00    +0.000 NA
ATOM     11  H   UNL     1       6.741   6.766  15.749  0.00  0.00    +0.000 HD
ATOM     12  H   UNL     1       7.666   6.832  17.191  0.00  0.00    +0.000 HD
ENDBRANCH   7  10
ENDBRANCH   5   7
BRANCH   1  14
ATOM     13  C   UNL     1       1.121   2.787  18.539  0.00  0.00    +0.000 C 
ATOM     14  C   UNL     1       1.931   3.637  18.297  0.00  0.00    +0.000 C 
ENDBRANCH   1  14
TORSDOF 3
ENDMDL
MODEL 7
REMARK VINA RESULT:      -5.7      1.303      1.608
REMARK  Name = 
REMARK  3 active torsions:
REMARK  status: ('A' for Active; 'I' for Inactive)
REMARK    1  A    between atoms: C_2  and  C_3
REMARK    2  A    between atoms: C_7  and  S_8
REMARK    3  A    between atoms: S_8  and  N_9
REMARK                            x       y       z     vdW  Elec       q    Type
REMARK                         _______ _______ _______ _____ _____    ______ ____
ROOT
ATOM      1  C   UNL     1       3.481   4.390  17.647  0.00  0.00    +0.000 A 
ATOM      2  C   UNL     1       2.866   5.608  17.961  0.00  0.00    +0.000 A 
ATOM      3  C   UNL     1       3.555   6.810  17.788  0.00  0.00    +0.000 A 
ATOM      4  C   UNL     1       4.861   6.799  17.303  0.00  0.00    +0.000 A 
ATOM      5  C   UNL     1       5.474   5.580  17.005  0.00  0.00    +0.000 A 
ATOM      6  C   UNL     1       4.789   4.372  17.166  0.00  0.00    +0.000 A 
ENDROOT
BRANCH   5   7
ATOM      7  S   UNL     1       7.129   5.569  16.393  0.00  0.00    +0.000 S 
ATOM      8  O   UNL     1       7.692   6.895  16.502  0.00  0.00    +0.000 OA
ATOM      9  O   UNL     1       7.810   4.394  16.884  0.00  0.00    +0.000 OA
BRANCH   7  10
ATOM     10  N   UNL     1       6.870   5.307  14.756  0.00  0.00    +0.000 NA
ATOM     11  H   UNL     1       7.613   5.742  14.209  0.00  0.00    +0.000 HD
ATOM     12  H   UNL     1       6.740   4.312  14.575  0.00  0.00    +0.000 HD
ENDBRANCH   7  10
ENDBRANCH   5   7
BRANCH   1  14
ATOM     13  C   UNL     1       2.171   2.130  17.946  0.00  0.00    +0.000 C 
ATOM     14  C   UNL     1       2.765   3.163  17.814  0.00  0.00    +0.000 C 
ENDBRANCH   1  14
TORSDOF 3
ENDMDL
MODEL 8
REMARK VINA RESULT:      -5.7      2.053      2.526
REMARK  Name = 
REMARK  3 active torsions:
REMARK  status: ('A' for Active; 'I' for Inactive)
REMARK    1  A    between atoms: C_2  and  C_3
REMARK    2  A    between atoms: C_7  and  S_8
REMARK    3  A    between atoms: S_8  and  N_9
REMARK                            x       y       z     vdW  Elec       q    Type
REMARK                         _______ _______ _______ _____ _____    ______ ____
ROOT
ATOM      1  C   UNL     1       3.461   4.149  19.101  0.00  0.00    +0.000 A 
ATOM      2  C   UNL     1       3.054   3.795  17.810  0.00  0.00    +0.000 A 
ATOM      3  C   UNL     1       3.933   3.927  16.733  0.00  0.00    +0.000 A 
ATOM      4  C   UNL     1       5.221   4.415  16.944  0.00  0.00    +0.000 A 
ATOM      5  C   UNL     1       5.616   4.780  18.233  0.00  0.00    +0.000 A 
ATOM      6  C   UNL     1       4.746   4.642  19.318  0.00  0.00    +0.000 A 
ENDROOT
BRANCH   5   7
ATOM      7  S   UNL     1       7.248   5.400  18.496  0.00  0.00    +0.000 S 
ATOM      8  O   UNL     1       7.458   6.567  17.673  0.00  0.00    +0.000 OA
ATOM      9  O   UNL     1       7.539   5.385  19.911  0.00  0.00    +0.000 OA
BRANCH   7  10
ATOM     10  N   UNL     1       8.174   4.177  17.817  0.00  0.00    +0.000 NA
ATOM     11  H   UNL     1       7.698   3.787  17.004  0.00  0.00    +0.000 HD
ATOM     12  H   UNL     1       9.119   4.513  17.633  0.00  0.00    +0.000 HD
ENDBRANCH   7  10
ENDBRANCH   5   7
BRANCH   1  14
ATOM     13  C   UNL     1       1.802   3.885  21.125  0.00  0.00    +0.000 C 
ATOM     14  C   UNL     1       2.559   4.000  20.202  0.00  0.00    +0.000 C 
ENDBRANCH   1  14
TORSDOF 3
ENDMDL
MODEL 9
REMARK VINA RESULT:      -5.7      1.052      1.117
REMARK  Name = 
REMARK  3 active torsions:
REMARK  status: ('A' for Active; 'I' for Inactive)
REMARK    1  A    between atoms: C_2  and  C_3
REMARK    2  A    between atoms: C_7  and  S_8
REMARK    3  A    between atoms: S_8  and  N_9
REMARK                            x       y       z     vdW  Elec       q    Type
REMARK                         _______ _______ _______ _____ _____    ______ ____
ROOT
ATOM      1  C   UNL     1       2.835   4.554  17.919  0.00  0.00    +0.000 A 
ATOM      2  C   UNL     1       2.549   5.901  18.165  0.00  0.00    +0.000 A 
ATOM      3  C   UNL     1       3.469   6.892  17.814  0.00  0.00    +0.000 A 
ATOM      4  C   UNL     1       4.678   6.538  17.220  0.00  0.00    +0.000 A 
ATOM      5  C   UNL     1       4.963   5.190  16.990  0.00  0.00    +0.000 A 
ATOM      6  C   UNL     1       4.045   4.192  17.329  0.00  0.00    +0.000 A 
ENDROOT
BRANCH   5   7
ATOM      7  S   UNL     1       6.497   4.744  16.238  0.00  0.00    +0.000 S 
ATOM      8  O   UNL     1       6.759   5.623  15.122  0.00  0.00    +0.000 OA
ATOM      9  O   UNL     1       7.474   4.486  17.269  0.00  0.00    +0.000 OA
BRANCH   7  10
ATOM     10  N   UNL     1       6.113   3.252  15.576  0.00  0.00    +0.000 NA
ATOM     11  H   UNL     1       5.881   2.589  16.316  0.00  0.00    +0.000 HD
ATOM     12  H   UNL     1       5.392   3.357  14.863  0.00  0.00    +0.000 HD
ENDBRANCH   7  10
ENDBRANCH   5   7
BRANCH   1  14
ATOM     13  C   UNL     1       1.078   2.706  18.566  0.00  0.00    +0.000 C 
ATOM     14  C   UNL     1       1.883   3.545  18.269  0.00  0.00    +0.000 C 
ENDBRANCH   1  14
TORSDOF 3
ENDMDL
