MODEL 1
REMARK VINA RESULT:      -7.6      0.000      0.000
REMARK  Name = 
REMARK  5 active torsions:
REMARK  status: ('A' for Active; 'I' for Inactive)
REMARK    1  A    between atoms: C_1  and  C_2
REMARK    2  A    between atoms: C_4  and  O_5
REMARK    3  A    between atoms: O_5  and  C_6
REMARK    4  A    between atoms: C_6  and  C_7
REMARK    5  A    between atoms: C_12  and  C_13
REMARK                            x       y       z     vdW  Elec       q    Type
REMARK                         _______ _______ _______ _____ _____    ______ ____
ROOT
ATOM      1  C   UNL     1       2.394   2.166  17.716  0.00  0.00    +0.000 C 
ATOM      2  C   UNL     1       2.868   3.578  17.880  0.00  0.00    +0.000 A 
ATOM      3  C   UNL     1       3.857   4.100  17.046  0.00  0.00    +0.000 A 
ATOM      4  C   UNL     1       4.274   5.418  17.231  0.00  0.00    +0.000 A 
ATOM      5  C   UNL     1       3.688   6.172  18.239  0.00  0.00    +0.000 A 
ATOM      6  C   UNL     1       2.694   5.588  19.010  0.00  0.00    +0.000 A 
ATOM      7  N   UNL     1       2.285   4.299  18.866  0.00  0.00    +0.000 NA
ENDROOT
BRANCH   6   8
ATOM      8  C   UNL     1       1.972   6.399  20.042  0.00  0.00    +0.000 C 
ATOM      9  O   UNL     1       1.445   5.845  21.002  0.00  0.00    +0.000 OA
ATOM     10  N   UNL     1       1.932   7.749  19.765  0.00  0.00    +0.000 N 
ATOM     11  C   UNL     1       1.227   8.683  20.522  0.00  0.00    +0.000 A 
ATOM     12  C   UNL     1       1.213   8.639  21.911  0.00  0.00    +0.000 A 
ATOM     13  C   UNL     1       0.459   9.583  22.604  0.00  0.00    +0.000 A 
ATOM     14  C   UNL     1      -0.287  10.510  21.889  0.00  0.00    +0.000 A 
ATOM     15  C   UNL     1      -0.197  10.489  20.507  0.00  0.00    +0.000 A 
ATOM     16  N   UNL     1       0.578   9.627  19.811  0.00  0.00    +0.000 NA
ATOM     17  H   UNL     1       2.129   8.020  18.810  0.00  0.00    +0.000 HD
ENDBRANCH   6   8
BRANCH   4  18
ATOM     18  O   UNL     1       5.247   6.051  16.514  0.00  0.00    +0.000 OA
BRANCH  18  19
ATOM     19  C   UNL     1       6.082   6.965  17.230  0.00  0.00    +0.000 C 
BRANCH  19  20
ATOM     20  C   UNL     1       7.401   6.272  17.512  0.00  0.00    +0.000 C 
ATOM     21  C   UNL     1       7.624   5.757  18.940  0.00  0.00    +0.000 C 
ATOM     22  O   UNL     1       8.042   4.463  18.430  0.00  0.00    +0.000 OA
ATOM     23  C   UNL     1       7.467   4.785  17.138  0.00  0.00    +0.000 C 
ENDBRANCH  19  20
ENDBRANCH  18  19
ENDBRANCH   4  18
TORSDOF 4
ENDMDL
MODEL 2
REMARK VINA RESULT:      -7.5      1.510      2.027
REMARK  Name = 
REMARK  5 active torsions:
REMARK  status: ('A' for Active; 'I' for Inactive)
REMARK    1  A    between atoms: C_1  and  C_2
REMARK    2  A    between atoms: C_4  and  O_5
REMARK    3  A    between atoms: O_5  and  C_6
REMARK    4  A    between atoms: C_6  and  C_7
REMARK    5  A    between atoms: C_12  and  C_13
REMARK                            x       y       z     vdW  Elec       q    Type
REMARK                         _______ _______ _______ _____ _____    ______ ____
ROOT
ATOM      1  C   UNL     1       1.338   2.482  18.759  0.00  0.00    +0.000 C 
ATOM      2  C   UNL     1       2.340   3.571  18.988  0.00  0.00    +0.000 A 
ATOM      3  C   UNL     1       3.708   3.297  18.973  0.00  0.00    +0.000 A 
ATOM      4  C   UNL     1       4.611   4.338  19.192  0.00  0.00    +0.000 A 
ATOM      5  C   UNL     1       4.119   5.617  19.417  0.00  0.00    +0.000 A 
ATOM      6  C   UNL     1       2.746   5.812  19.393  0.00  0.00    +0.000 A 
ATOM      7  N   UNL     1       1.844   4.812  19.203  0.00  0.00    +0.000 NA
ENDROOT
BRANCH   6   8
ATOM      8  C   UNL     1       2.183   7.192  19.535  0.00  0.00    +0.000 C 
ATOM      9  O   UNL     1       2.518   8.077  18.753  0.00  0.00    +0.000 OA
ATOM     10  N   UNL     1       1.340   7.345  20.616  0.00  0.00    +0.000 N 
ATOM     11  C   UNL     1       0.785   8.560  21.010  0.00  0.00    +0.000 A 
ATOM     12  C   UNL     1       0.291   9.473  20.086  0.00  0.00    +0.000 A 
ATOM     13  C   UNL     1      -0.219  10.685  20.547  0.00  0.00    +0.000 A 
ATOM     14  C   UNL     1      -0.181  10.960  21.907  0.00  0.00    +0.000 A 
ATOM     15  C   UNL     1       0.313   9.982  22.755  0.00  0.00    +0.000 A 
ATOM     16  N   UNL     1       0.752   8.773  22.341  0.00  0.00    +0.000 NA
ATOM     17  H   UNL     1       1.398   6.636  21.336  0.00  0.00    +0.000 HD
ENDBRANCH   6   8
BRANCH   4  18
ATOM     18  O   UNL     1       5.969   4.215  19.234  0.00  0.00    +0.000 OA
BRANCH  18  19
ATOM     19  C   UNL     1       6.720   5.422  19.389  0.00  0.00    +0.000 C 
BRANCH  19  20
ATOM     20  C   UNL     1       7.640   5.558  18.192  0.00  0.00    +0.000 C 
ATOM     21  C   UNL     1       7.261   4.772  16.930  0.00  0.00    +0.000 C 
ATOM     22  O   UNL     1       7.438   5.958  16.112  0.00  0.00    +0.000 OA
ATOM     23  C   UNL     1       7.402   6.786  17.303  0.00  0.00    +0.000 C 
ENDBRANCH  19  20
ENDBRANCH  18  19
ENDBRANCH   4  18
TORSDOF 4
ENDMDL
MODEL 3
REMARK VINA RESULT:      -7.5      1.843      2.347
REMARK  Name = 
REMARK  5 active torsions:
REMARK  status: ('A' for Active; 'I' for Inactive)
REMARK    1  A    between atoms: C_1  and  C_2
REMARK    2  A    between atoms: C_4  and  O_5
REMARK    3  A    between atoms: O_5  and  C_6
REMARK    4  A    between atoms: C_6  and  C_7
REMARK    5  A    between atoms: C_12  and  C_13
REMARK                            x       y       z     vdW  Elec       q    Type
REMARK                         _______ _______ _______ _____ _____    ______ ____
ROOT
ATOM      1  C   UNL     1       1.432   2.974  21.291  0.00  0.00    +0.000 C 
ATOM      2  C   UNL     1       2.192   4.058  20.591  0.00  0.00    +0.000 A 
ATOM      3  C   UNL     1       3.369   3.773  19.898  0.00  0.00    +0.000 A 
ATOM      4  C   UNL     1       4.049   4.810  19.260  0.00  0.00    +0.000 A 
ATOM      5  C   UNL     1       3.531   6.097  19.333  0.00  0.00    +0.000 A 
ATOM      6  C   UNL     1       2.344   6.295  20.021  0.00  0.00    +0.000 A 
ATOM      7  N   UNL     1       1.672   5.306  20.669  0.00  0.00    +0.000 NA
ENDROOT
BRANCH   6   8
ATOM      8  C   UNL     1       1.705   7.649  20.038  0.00  0.00    +0.000 C 
ATOM      9  O   UNL     1       2.049   8.503  19.226  0.00  0.00    +0.000 OA
ATOM     10  N   UNL     1       0.784   7.822  21.050  0.00  0.00    +0.000 N 
ATOM     11  C   UNL     1       0.144   9.027  21.330  0.00  0.00    +0.000 A 
ATOM     12  C   UNL     1      -0.330   9.856  20.320  0.00  0.00    +0.000 A 
ATOM     13  C   UNL     1      -0.929  11.064  20.670  0.00  0.00    +0.000 A 
ATOM     14  C   UNL     1      -0.997  11.421  22.009  0.00  0.00    +0.000 A 
ATOM     15  C   UNL     1      -0.515  10.523  22.947  0.00  0.00    +0.000 A 
ATOM     16  N   UNL     1       0.010   9.316  22.640  0.00  0.00    +0.000 NA
ATOM     17  H   UNL     1       0.827   7.161  21.816  0.00  0.00    +0.000 HD
ENDBRANCH   6   8
BRANCH   4  18
ATOM     18  O   UNL     1       5.221   4.687  18.574  0.00  0.00    +0.000 OA
BRANCH  18  19
ATOM     19  C   UNL     1       6.387   5.247  19.184  0.00  0.00    +0.000 C 
BRANCH  19  20
ATOM     20  C   UNL     1       7.383   5.567  18.086  0.00  0.00    +0.000 C 
ATOM     21  C   UNL     1       7.429   4.609  16.888  0.00  0.00    +0.000 C 
ATOM     22  O   UNL     1       7.360   5.726  15.964  0.00  0.00    +0.000 OA
ATOM     23  C   UNL     1       6.919   6.591  17.042  0.00  0.00    +0.000 C 
ENDBRANCH  19  20
ENDBRANCH  18  19
ENDBRANCH   4  18
TORSDOF 4
ENDMDL
MODEL 4
REMARK VINA RESULT:      -7.4      3.038      7.526
REMARK  Name = 
REMARK  5 active torsions:
REMARK  status: ('A' for Active; 'I' for Inactive)
REMARK    1  A    between atoms: C_1  and  C_2
REMARK    2  A    between atoms: C_4  and  O_5
REMARK    3  A    between atoms: O_5  and  C_6
REMARK    4  A    between atoms: C_6  and  C_7
REMARK    5  A    between atoms: C_12  and  C_13
REMARK                            x       y       z     vdW  Elec       q    Type
REMARK                         _______ _______ _______ _____ _____    ______ ____
ROOT
ATOM      1  C   UNL     1       1.816   8.653  18.710  0.00  0.00    +0.000 C 
ATOM      2  C   UNL     1       2.655   7.416  18.617  0.00  0.00    +0.000 A 
ATOM      3  C   UNL     1       2.532   6.397  19.562  0.00  0.00    +0.000 A 
ATOM      4  C   UNL     1       3.332   5.260  19.442  0.00  0.00    +0.000 A 
ATOM      5  C   UNL     1       4.226   5.178  18.383  0.00  0.00    +0.000 A 
ATOM      6  C   UNL     1       4.272   6.222  17.472  0.00  0.00    +0.000 A 
ATOM      7  N   UNL     1       3.519   7.350  17.577  0.00  0.00    +0.000 NA
ENDROOT
BRANCH   6   8
ATOM      8  C   UNL     1       5.153   6.125  16.265  0.00  0.00    +0.000 C 
ATOM      9  O   UNL     1       5.723   7.125  15.837  0.00  0.00    +0.000 OA
ATOM     10  N   UNL     1       5.195   4.867  15.701  0.00  0.00    +0.000 N 
ATOM     11  C   UNL     1       5.858   4.563  14.515  0.00  0.00    +0.000 A 
ATOM     12  C   UNL     1       7.111   5.088  14.221  0.00  0.00    +0.000 A 
ATOM     13  C   UNL     1       7.702   4.770  13.000  0.00  0.00    +0.000 A 
ATOM     14  C   UNL     1       7.007   3.973  12.101  0.00  0.00    +0.000 A 
ATOM     15  C   UNL     1       5.772   3.480  12.488  0.00  0.00    +0.000 A 
ATOM     16  N   UNL     1       5.205   3.719  13.691  0.00  0.00    +0.000 NA
ATOM     17  H   UNL     1       4.452   4.231  15.963  0.00  0.00    +0.000 HD
ENDBRANCH   6   8
BRANCH   4  18
ATOM     18  O   UNL     1       3.342   4.202  20.303  0.00  0.00    +0.000 OA
BRANCH  18  19
ATOM     19  C   UNL     1       3.621   2.917  19.741  0.00  0.00    +0.000 C 
BRANCH  19  20
ATOM     20  C   UNL     1       2.321   2.141  19.677  0.00  0.00    +0.000 C 
ATOM     21  C   UNL     1       1.107   2.758  20.384  0.00  0.00    +0.000 C 
ATOM     22  O   UNL     1       0.287   2.550  19.204  0.00  0.00    +0.000 OA
ATOM     23  C   UNL     1       1.482   2.346  18.408  0.00  0.00    +0.000 C 
ENDBRANCH  19  20
ENDBRANCH  18  19
ENDBRANCH   4  18
TORSDOF 4
ENDMDL
MODEL 5
REMARK VINA RESULT:      -7.4      1.741      2.114
REMARK  Name = 
REMARK  5 active torsions:
REMARK  status: ('A' for Active; 'I' for Inactive)
REMARK    1  A    between atoms: C_1  and  C_2
REMARK    2  A    between atoms: C_4  and  O_5
REMARK    3  A    between atoms: O_5  and  C_6
REMARK    4  A    between atoms: C_6  and  C_7
REMARK    5  A    between atoms: C_12  and  C_13
REMARK                            x       y       z     vdW  Elec       q    Type
REMARK                         _______ _______ _______ _____ _____    ______ ____
ROOT
ATOM      1  C   UNL     1       2.087   3.246  21.446  0.00  0.00    +0.000 C 
ATOM      2  C   UNL     1       2.504   4.303  20.470  0.00  0.00    +0.000 A 
ATOM      3  C   UNL     1       3.365   4.001  19.414  0.00  0.00    +0.000 A 
ATOM      4  C   UNL     1       3.732   5.013  18.527  0.00  0.00    +0.000 A 
ATOM      5  C   UNL     1       3.226   6.292  18.722  0.00  0.00    +0.000 A 
ATOM      6  C   UNL     1       2.356   6.506  19.781  0.00  0.00    +0.000 A 
ATOM      7  N   UNL     1       2.000   5.543  20.672  0.00  0.00    +0.000 NA
ENDROOT
BRANCH   6   8
ATOM      8  C   UNL     1       1.716   7.847  19.965  0.00  0.00    +0.000 C 
ATOM      9  O   UNL     1       2.068   8.798  19.273  0.00  0.00    +0.000 OA
ATOM     10  N   UNL     1       0.782   7.888  20.979  0.00  0.00    +0.000 N 
ATOM     11  C   UNL     1       0.137   9.047  21.403  0.00  0.00    +0.000 A 
ATOM     12  C   UNL     1      -0.326   9.999  20.503  0.00  0.00    +0.000 A 
ATOM     13  C   UNL     1      -0.931  11.152  20.998  0.00  0.00    +0.000 A 
ATOM     14  C   UNL     1      -1.017  11.334  22.371  0.00  0.00    +0.000 A 
ATOM     15  C   UNL     1      -0.545  10.322  23.191  0.00  0.00    +0.000 A 
ATOM     16  N   UNL     1      -0.014   9.165  22.738  0.00  0.00    +0.000 NA
ATOM     17  H   UNL     1       0.816   7.134  21.654  0.00  0.00    +0.000 HD
ENDBRANCH   6   8
BRANCH   4  18
ATOM     18  O   UNL     1       4.584   4.874  17.471  0.00  0.00    +0.000 OA
BRANCH  18  19
ATOM     19  C   UNL     1       5.107   6.077  16.902  0.00  0.00    +0.000 C 
BRANCH  19  20
ATOM     20  C   UNL     1       6.597   5.890  16.698  0.00  0.00    +0.000 C 
ATOM     21  C   UNL     1       7.403   5.372  17.897  0.00  0.00    +0.000 C 
ATOM     22  O   UNL     1       8.038   4.366  17.063  0.00  0.00    +0.000 OA
ATOM     23  C   UNL     1       7.021   4.566  16.048  0.00  0.00    +0.000 C 
ENDBRANCH  19  20
ENDBRANCH  18  19
ENDBRANCH   4  18
TORSDOF 4
ENDMDL
MODEL 6
REMARK VINA RESULT:      -7.3      4.023      5.734
REMARK  Name = 
REMARK  5 active torsions:
REMARK  status: ('A' for Active; 'I' for Inactive)
REMARK    1  A    between atoms: C_1  and  C_2
REMARK    2  A    between atoms: C_4  and  O_5
REMARK    3  A    between atoms: O_5  and  C_6
REMARK    4  A    between atoms: C_6  and  C_7
REMARK    5  A    between atoms: C_12  and  C_13
REMARK                            x       y       z     vdW  Elec       q    Type
REMARK                         _______ _______ _______ _____ _____    ______ ____
ROOT
ATOM      1  C   UNL     1       7.779   7.491  17.344  0.00  0.00    +0.000 C 
ATOM      2  C   UNL     1       6.884   6.393  16.857  0.00  0.00    +0.000 A 
ATOM      3  C   UNL     1       7.232   5.627  15.745  0.00  0.00    +0.000 A 
ATOM      4  C   UNL     1       6.372   4.615  15.321  0.00  0.00    +0.000 A 
ATOM      5  C   UNL     1       5.193   4.399  16.023  0.00  0.00    +0.000 A 
ATOM      6  C   UNL     1       4.929   5.187  17.133  0.00  0.00    +0.000 A 
ATOM      7  N   UNL     1       5.740   6.194  17.554  0.00  0.00    +0.000 NA
ENDROOT
BRANCH   6   8
ATOM      8  C   UNL     1       3.717   4.920  17.971  0.00  0.00    +0.000 C 
ATOM      9  O   UNL     1       2.787   5.721  17.981  0.00  0.00    +0.000 OA
ATOM     10  N   UNL     1       3.797   3.765  18.720  0.00  0.00    +0.000 N 
ATOM     11  C   UNL     1       2.841   3.368  19.652  0.00  0.00    +0.000 A 
ATOM     12  C   UNL     1       1.479   3.495  19.402  0.00  0.00    +0.000 A 
ATOM     13  C   UNL     1       0.577   3.110  20.392  0.00  0.00    +0.000 A 
ATOM     14  C   UNL     1       1.064   2.652  21.608  0.00  0.00    +0.000 A 
ATOM     15  C   UNL     1       2.437   2.542  21.760  0.00  0.00    +0.000 A 
ATOM     16  N   UNL     1       3.332   2.845  20.793  0.00  0.00    +0.000 NA
ATOM     17  H   UNL     1       4.723   3.375  18.850  0.00  0.00    +0.000 HD
ENDBRANCH   6   8
BRANCH   4  18
ATOM     18  O   UNL     1       6.567   3.808  14.238  0.00  0.00    +0.000 OA
BRANCH  18  19
ATOM     19  C   UNL     1       7.133   4.418  13.075  0.00  0.00    +0.000 C 
BRANCH  19  20
ATOM     20  C   UNL     1       6.520   3.760  11.855  0.00  0.00    +0.000 C 
ATOM     21  C   UNL     1       6.873   2.288  11.607  0.00  0.00    +0.000 C 
ATOM     22  O   UNL     1       5.470   1.960  11.420  0.00  0.00    +0.000 OA
ATOM     23  C   UNL     1       5.094   3.220  12.033  0.00  0.00    +0.000 C 
ENDBRANCH  19  20
ENDBRANCH  18  19
ENDBRANCH   4  18
TORSDOF 4
ENDMDL
MODEL 7
REMARK VINA RESULT:      -7.2      1.938      2.667
REMARK  Name = 
REMARK  5 active torsions:
REMARK  status: ('A' for Active; 'I' for Inactive)
REMARK    1  A    between atoms: C_1  and  C_2
REMARK    2  A    between atoms: C_4  and  O_5
REMARK    3  A    between atoms: O_5  and  C_6
REMARK    4  A    between atoms: C_6  and  C_7
REMARK    5  A    between atoms: C_12  and  C_13
REMARK                            x       y       z     vdW  Elec       q    Type
REMARK                         _______ _______ _______ _____ _____    ______ ____
ROOT
ATOM      1  C   UNL     1       2.019   3.378  21.689  0.00  0.00    +0.000 C 
ATOM      2  C   UNL     1       2.588   4.026  20.464  0.00  0.00    +0.000 A 
ATOM      3  C   UNL     1       3.362   3.294  19.563  0.00  0.00    +0.000 A 
ATOM      4  C   UNL     1       3.875   3.932  18.434  0.00  0.00    +0.000 A 
ATOM      5  C   UNL     1       3.598   5.279  18.241  0.00  0.00    +0.000 A 
ATOM      6  C   UNL     1       2.801   5.931  19.170  0.00  0.00    +0.000 A 
ATOM      7  N   UNL     1       2.306   5.338  20.289  0.00  0.00    +0.000 NA
ENDROOT
BRANCH   6   8
ATOM      8  C   UNL     1       2.400   7.357  18.944  0.00  0.00    +0.000 C 
ATOM      9  O   UNL     1       2.882   7.991  18.011  0.00  0.00    +0.000 OA
ATOM     10  N   UNL     1       1.524   7.848  19.889  0.00  0.00    +0.000 N 
ATOM     11  C   UNL     1       1.098   9.173  19.947  0.00  0.00    +0.000 A 
ATOM     12  C   UNL     1       0.769   9.887  18.801  0.00  0.00    +0.000 A 
ATOM     13  C   UNL     1       0.383  11.220  18.928  0.00  0.00    +0.000 A 
ATOM     14  C   UNL     1       0.379  11.804  20.187  0.00  0.00    +0.000 A 
ATOM     15  C   UNL     1       0.705  11.010  21.274  0.00  0.00    +0.000 A 
ATOM     16  N   UNL     1       1.018   9.698  21.186  0.00  0.00    +0.000 NA
ATOM     17  H   UNL     1       1.456   7.329  20.756  0.00  0.00    +0.000 HD
ENDBRANCH   6   8
BRANCH   4  18
ATOM     18  O   UNL     1       4.668   3.354  17.487  0.00  0.00    +0.000 OA
BRANCH  18  19
ATOM     19  C   UNL     1       4.838   4.074  16.263  0.00  0.00    +0.000 C 
BRANCH  19  20
ATOM     20  C   UNL     1       6.324   4.167  15.976  0.00  0.00    +0.000 C 
ATOM     21  C   UNL     1       6.734   4.631  14.572  0.00  0.00    +0.000 C 
ATOM     22  O   UNL     1       7.660   5.596  15.138  0.00  0.00    +0.000 OA
ATOM     23  C   UNL     1       7.012   5.462  16.429  0.00  0.00    +0.000 C 
ENDBRANCH  19  20
ENDBRANCH  18  19
ENDBRANCH   4  18
TORSDOF 4
ENDMDL
MODEL 8
REMARK VINA RESULT:      -7.2      2.302      3.046
REMARK  Name = 
REMARK  5 active torsions:
REMARK  status: ('A' for Active; 'I' for Inactive)
REMARK    1  A    between atoms: C_1  and  C_2
REMARK    2  A    between atoms: C_4  and  O_5
REMARK    3  A    between atoms: O_5  and  C_6
REMARK    4  A    between atoms: C_6  and  C_7
REMARK    5  A    between atoms: C_12  and  C_13
REMARK                            x       y       z     vdW  Elec       q    Type
REMARK                         _______ _______ _______ _____ _____    ______ ____
ROOT
ATOM      1  C   UNL     1       2.242   4.706  20.880  0.00  0.00    +0.000 C 
ATOM      2  C   UNL     1       2.659   5.560  19.723  0.00  0.00    +0.000 A 
ATOM      3  C   UNL     1       3.550   5.078  18.764  0.00  0.00    +0.000 A 
ATOM      4  C   UNL     1       3.916   5.904  17.701  0.00  0.00    +0.000 A 
ATOM      5  C   UNL     1       3.381   7.183  17.631  0.00  0.00    +0.000 A 
ATOM      6  C   UNL     1       2.483   7.581  18.610  0.00  0.00    +0.000 A 
ATOM      7  N   UNL     1       2.126   6.803  19.668  0.00  0.00    +0.000 NA
ENDROOT
BRANCH   6   8
ATOM      8  C   UNL     1       1.812   8.916  18.514  0.00  0.00    +0.000 C 
ATOM      9  O   UNL     1       1.980   9.619  17.522  0.00  0.00    +0.000 OA
ATOM     10  N   UNL     1       1.076   9.254  19.630  0.00  0.00    +0.000 N 
ATOM     11  C   UNL     1       0.454  10.487  19.814  0.00  0.00    +0.000 A 
ATOM     12  C   UNL     1      -0.216  11.130  18.780  0.00  0.00    +0.000 A 
ATOM     13  C   UNL     1      -0.786  12.378  19.023  0.00  0.00    +0.000 A 
ATOM     14  C   UNL     1      -0.632  12.958  20.275  0.00  0.00    +0.000 A 
ATOM     15  C   UNL     1       0.037  12.235  21.249  0.00  0.00    +0.000 A 
ATOM     16  N   UNL     1       0.541  10.996  21.059  0.00  0.00    +0.000 NA
ATOM     17  H   UNL     1       1.275   8.734  20.476  0.00  0.00    +0.000 HD
ENDBRANCH   6   8
BRANCH   4  18
ATOM     18  O   UNL     1       4.795   5.579  16.710  0.00  0.00    +0.000 OA
BRANCH  18  19
ATOM     19  C   UNL     1       4.939   4.189  16.406  0.00  0.00    +0.000 C 
BRANCH  19  20
ATOM     20  C   UNL     1       6.271   3.998  15.707  0.00  0.00    +0.000 C 
ATOM     21  C   UNL     1       6.331   4.352  14.216  0.00  0.00    +0.000 C 
ATOM     22  O   UNL     1       7.535   5.136  14.428  0.00  0.00    +0.000 OA
ATOM     23  C   UNL     1       7.274   5.150  15.855  0.00  0.00    +0.000 C 
ENDBRANCH  19  20
ENDBRANCH  18  19
ENDBRANCH   4  18
TORSDOF 4
ENDMDL
MODEL 9
REMARK VINA RESULT:      -7.1      2.026      4.074
REMARK  Name = 
REMARK  5 active torsions:
REMARK  status: ('A' for Active; 'I' for Inactive)
REMARK    1  A    between atoms: C_1  and  C_2
REMARK    2  A    between atoms: C_4  and  O_5
REMARK    3  A    between atoms: O_5  and  C_6
REMARK    4  A    between atoms: C_6  and  C_7
REMARK    5  A    between atoms: C_12  and  C_13
REMARK                            x       y       z     vdW  Elec       q    Type
REMARK                         _______ _______ _______ _____ _____    ______ ____
ROOT
ATOM      1  C   UNL     1       6.977   6.230  17.149  0.00  0.00    +0.000 C 
ATOM      2  C   UNL     1       5.520   5.948  17.346  0.00  0.00    +0.000 A 
ATOM      3  C   UNL     1       5.019   4.652  17.219  0.00  0.00    +0.000 A 
ATOM      4  C   UNL     1       3.655   4.429  17.408  0.00  0.00    +0.000 A 
ATOM      5  C   UNL     1       2.837   5.507  17.721  0.00  0.00    +0.000 A 
ATOM      6  C   UNL     1       3.414   6.761  17.853  0.00  0.00    +0.000 A 
ATOM      7  N   UNL     1       4.737   7.009  17.653  0.00  0.00    +0.000 NA
ENDROOT
BRANCH   6   8
ATOM      8  C   UNL     1       2.580   7.928  18.283  0.00  0.00    +0.000 C 
ATOM      9  O   UNL     1       2.534   8.940  17.590  0.00  0.00    +0.000 OA
ATOM     10  N   UNL     1       1.958   7.754  19.502  0.00  0.00    +0.000 N 
ATOM     11  C   UNL     1       1.222   8.741  20.153  0.00  0.00    +0.000 A 
ATOM     12  C   UNL     1       0.352   9.578  19.466  0.00  0.00    +0.000 A 
ATOM     13  C   UNL     1      -0.328  10.567  20.174  0.00  0.00    +0.000 A 
ATOM     14  C   UNL     1      -0.085  10.711  21.533  0.00  0.00    +0.000 A 
ATOM     15  C   UNL     1       0.785   9.818  22.137  0.00  0.00    +0.000 A 
ATOM     16  N   UNL     1       1.406   8.809  21.487  0.00  0.00    +0.000 NA
ATOM     17  H   UNL     1       2.325   7.018  20.094  0.00  0.00    +0.000 HD
ENDBRANCH   6   8
BRANCH   4  18
ATOM     18  O   UNL     1       3.022   3.227  17.288  0.00  0.00    +0.000 OA
BRANCH  18  19
ATOM     19  C   UNL     1       3.454   2.182  18.164  0.00  0.00    +0.000 C 
BRANCH  19  20
ATOM     20  C   UNL     1       2.326   1.888  19.134  0.00  0.00    +0.000 C 
ATOM     21  C   UNL     1       2.207   2.803  20.360  0.00  0.00    +0.000 C 
ATOM     22  O   UNL     1       0.788   2.988  20.111  0.00  0.00    +0.000 OA
ATOM     23  C   UNL     1       0.957   2.476  18.765  0.00  0.00    +0.000 C 
ENDBRANCH  19  20
ENDBRANCH  18  19
ENDBRANCH   4  18
TORSDOF 4
ENDMDL
