MODEL 1
REMARK VINA RESULT:      -8.7      0.000      0.000
REMARK  Name = 
REMARK  10 active torsions:
REMARK  status: ('A' for Active; 'I' for Inactive)
REMARK    1  A    between atoms: C_1  and  C_2
REMARK    2  A    between atoms: C_5  and  C_6
REMARK    3  A    between atoms: C_6  and  N_7
REMARK    4  A    between atoms: C_9  and  C_10
REMARK    5  A    between atoms: N_12  and  C_13
REMARK    6  A    between atoms: C_14  and  C_15
REMARK    7  A    between atoms: C_20  and  C_21
REMARK    8  A    between atoms: C_20  and  C_22
REMARK    9  A    between atoms: C_24  and  C_25
REMARK   10  A    between atoms: C_30  and  C_31
REMARK                            x       y       z     vdW  Elec       q    Type
REMARK                         _______ _______ _______ _____ _____    ______ ____
ROOT
ATOM      1  N   UNL     1       0.954   9.805  18.830  0.00  0.00    +0.000 N 
ATOM      2  N   UNL     1       1.673   8.796  18.273  0.00  0.00    +0.000 NA
ATOM      3  C   UNL     1       2.009   8.008  19.309  0.00  0.00    +0.000 A 
ATOM      4  C   UNL     1       1.514   8.546  20.525  0.00  0.00    +0.000 A 
ATOM      5  C   UNL     1       0.846   9.724  20.208  0.00  0.00    +0.000 A 
ENDROOT
BRANCH   5   6
ATOM      6  C   UNL     1       0.172  10.669  21.110  0.00  0.00    +0.000 A 
ATOM      7  C   UNL     1      -0.750  10.221  22.054  0.00  0.00    +0.000 A 
ATOM      8  C   UNL     1      -1.362  11.114  22.945  0.00  0.00    +0.000 A 
ATOM      9  C   UNL     1      -1.068  12.481  22.905  0.00  0.00    +0.000 A 
ATOM     10 CL   UNL     1      -1.844  13.503  24.056  0.00  0.00    +0.000 Cl
ATOM     11  C   UNL     1      -0.157  12.970  21.972  0.00  0.00    +0.000 A 
ATOM     12  C   UNL     1       0.244  14.414  21.833  0.00  0.00    +0.000 C 
ATOM     13  C   UNL     1       0.455  12.046  21.102  0.00  0.00    +0.000 A 
ENDBRANCH   5   6
BRANCH   3  14
ATOM     14  C   UNL     1       2.792   6.769  19.125  0.00  0.00    +0.000 C 
ATOM     15  O   UNL     1       3.909   6.763  18.608  0.00  0.00    +0.000 OA
ATOM     16  N   UNL     1       2.153   5.633  19.581  0.00  0.00    +0.000 N 
ATOM     17  H   UNL     1       1.298   5.823  20.098  0.00  0.00    +0.000 HD
BRANCH  16  18
ATOM     18  C   UNL     1       2.743   4.304  19.568  0.00  0.00    +0.000 C 
ATOM     19  C   UNL     1       2.019   3.285  20.512  0.00  0.00    +0.000 C 
ATOM     20  C   UNL     1       2.323   3.446  21.988  0.00  0.00    +0.000 C 
ATOM     21  C   UNL     1       0.508   3.231  20.188  0.00  0.00    +0.000 C 
ATOM     22  C   UNL     1       0.471   2.485  18.848  0.00  0.00    +0.000 C 
ATOM     23  C   UNL     1       1.960   2.244  18.533  0.00  0.00    +0.000 C 
ATOM     24  C   UNL     1       2.485   1.938  19.941  0.00  0.00    +0.000 C 
ATOM     25  C   UNL     1       2.702   3.572  18.175  0.00  0.00    +0.000 C 
ATOM     26  C   UNL     1       2.030   4.348  17.032  0.00  0.00    +0.000 C 
ATOM     27  C   UNL     1       4.142   3.258  17.697  0.00  0.00    +0.000 C 
ENDBRANCH  16  18
ENDBRANCH   3  14
BRANCH   1  28
ATOM     28  C   UNL     1       0.336  10.774  17.916  0.00  0.00    +0.000 C 
BRANCH  28  33
ATOM     29  C   UNL     1      -5.499  10.731  18.182  0.00  0.00    +0.000 C 
ATOM     30  C   UNL     1      -4.004  10.759  18.057  0.00  0.00    +0.000 A 
ATOM     31  C   UNL     1      -3.318   9.704  17.454  0.00  0.00    +0.000 A 
ATOM     32  C   UNL     1      -1.925   9.706  17.402  0.00  0.00    +0.000 A 
ATOM     33  C   UNL     1      -1.181  10.765  17.942  0.00  0.00    +0.000 A 
ATOM     34  C   UNL     1      -1.878  11.837  18.527  0.00  0.00    +0.000 A 
ATOM     35  C   UNL     1      -3.276  11.833  18.579  0.00  0.00    +0.000 A 
ENDBRANCH  28  33
ENDBRANCH   1  28
TORSDOF 5
ENDMDL
MODEL 2
REMARK VINA RESULT:      -8.4      1.239      1.944
REMARK  Name = 
REMARK  10 active torsions:
REMARK  status: ('A' for Active; 'I' for Inactive)
REMARK    1  A    between atoms: C_1  and  C_2
REMARK    2  A    between atoms: C_5  and  C_6
REMARK    3  A    between atoms: C_6  and  N_7
REMARK    4  A    between atoms: C_9  and  C_10
REMARK    5  A    between atoms: N_12  and  C_13
REMARK    6  A    between atoms: C_14  and  C_15
REMARK    7  A    between atoms: C_20  and  C_21
REMARK    8  A    between atoms: C_20  and  C_22
REMARK    9  A    between atoms: C_24  and  C_25
REMARK   10  A    between atoms: C_30  and  C_31
REMARK                            x       y       z     vdW  Elec       q    Type
REMARK                         _______ _______ _______ _____ _____    ______ ____
ROOT
ATOM      1  N   UNL     1       0.796   9.765  19.458  0.00  0.00    +0.000 N 
ATOM      2  N   UNL     1       1.362   8.559  19.186  0.00  0.00    +0.000 NA
ATOM      3  C   UNL     1       1.530   7.985  20.389  0.00  0.00    +0.000 A 
ATOM      4  C   UNL     1       1.085   8.851  21.421  0.00  0.00    +0.000 A 
ATOM      5  C   UNL     1       0.629  10.014  20.809  0.00  0.00    +0.000 A 
ENDROOT
BRANCH   5   6
ATOM      6  C   UNL     1       0.085  11.228  21.434  0.00  0.00    +0.000 A 
ATOM      7  C   UNL     1       0.713  12.461  21.267  0.00  0.00    +0.000 A 
ATOM      8  C   UNL     1       0.172  13.628  21.825  0.00  0.00    +0.000 A 
ATOM      9  C   UNL     1      -1.010  13.584  22.572  0.00  0.00    +0.000 A 
ATOM     10 CL   UNL     1      -1.619  15.070  23.198  0.00  0.00    +0.000 Cl
ATOM     11  C   UNL     1      -1.664  12.370  22.768  0.00  0.00    +0.000 A 
ATOM     12  C   UNL     1      -2.940  12.196  23.547  0.00  0.00    +0.000 C 
ATOM     13  C   UNL     1      -1.107  11.218  22.180  0.00  0.00    +0.000 A 
ENDBRANCH   5   6
BRANCH   3  14
ATOM     14  C   UNL     1       2.108   6.633  20.534  0.00  0.00    +0.000 C 
ATOM     15  O   UNL     1       1.924   5.940  21.535  0.00  0.00    +0.000 OA
ATOM     16  N   UNL     1       2.864   6.230  19.452  0.00  0.00    +0.000 N 
ATOM     17  H   UNL     1       2.809   6.861  18.655  0.00  0.00    +0.000 HD
BRANCH  16  18
ATOM     18  C   UNL     1       3.484   4.921  19.330  0.00  0.00    +0.000 C 
ATOM     19  C   UNL     1       2.469   3.772  19.012  0.00  0.00    +0.000 C 
ATOM     20  C   UNL     1       1.631   3.308  20.188  0.00  0.00    +0.000 C 
ATOM     21  C   UNL     1       1.641   4.118  17.753  0.00  0.00    +0.000 C 
ATOM     22  C   UNL     1       2.658   3.950  16.617  0.00  0.00    +0.000 C 
ATOM     23  C   UNL     1       3.958   3.579  17.355  0.00  0.00    +0.000 C 
ATOM     24  C   UNL     1       3.392   2.677  18.458  0.00  0.00    +0.000 C 
ATOM     25  C   UNL     1       4.533   4.787  18.165  0.00  0.00    +0.000 C 
ATOM     26  C   UNL     1       4.742   6.043  17.306  0.00  0.00    +0.000 C 
ATOM     27  C   UNL     1       5.923   4.420  18.741  0.00  0.00    +0.000 C 
ENDBRANCH  16  18
ENDBRANCH   3  14
BRANCH   1  28
ATOM     28  C   UNL     1       0.377  10.583  18.314  0.00  0.00    +0.000 C 
BRANCH  28  33
ATOM     29  C   UNL     1      -5.433  10.971  17.848  0.00  0.00    +0.000 C 
ATOM     30  C   UNL     1      -3.937  10.890  17.911  0.00  0.00    +0.000 A 
ATOM     31  C   UNL     1      -3.258   9.795  17.375  0.00  0.00    +0.000 A 
ATOM     32  C   UNL     1      -1.873   9.693  17.498  0.00  0.00    +0.000 A 
ATOM     33  C   UNL     1      -1.128  10.688  18.150  0.00  0.00    +0.000 A 
ATOM     34  C   UNL     1      -1.815  11.800  18.668  0.00  0.00    +0.000 A 
ATOM     35  C   UNL     1      -3.205  11.900  18.544  0.00  0.00    +0.000 A 
ENDBRANCH  28  33
ENDBRANCH   1  28
TORSDOF 5
ENDMDL
MODEL 3
REMARK VINA RESULT:      -8.4      1.173      1.596
REMARK  Name = 
REMARK  10 active torsions:
REMARK  status: ('A' for Active; 'I' for Inactive)
REMARK    1  A    between atoms: C_1  and  C_2
REMARK    2  A    between atoms: C_5  and  C_6
REMARK    3  A    between atoms: C_6  and  N_7
REMARK    4  A    between atoms: C_9  and  C_10
REMARK    5  A    between atoms: N_12  and  C_13
REMARK    6  A    between atoms: C_14  and  C_15
REMARK    7  A    between atoms: C_20  and  C_21
REMARK    8  A    between atoms: C_20  and  C_22
REMARK    9  A    between atoms: C_24  and  C_25
REMARK   10  A    between atoms: C_30  and  C_31
REMARK                            x       y       z     vdW  Elec       q    Type
REMARK                         _______ _______ _______ _____ _____    ______ ____
ROOT
ATOM      1  N   UNL     1       0.816   9.699  19.561  0.00  0.00    +0.000 N 
ATOM      2  N   UNL     1       1.404   8.511  19.260  0.00  0.00    +0.000 NA
ATOM      3  C   UNL     1       1.527   7.885  20.442  0.00  0.00    +0.000 A 
ATOM      4  C   UNL     1       1.032   8.701  21.492  0.00  0.00    +0.000 A 
ATOM      5  C   UNL     1       0.591   9.887  20.914  0.00  0.00    +0.000 A 
ENDROOT
BRANCH   5   6
ATOM      6  C   UNL     1       0.010  11.067  21.569  0.00  0.00    +0.000 A 
ATOM      7  C   UNL     1      -1.045  10.938  22.471  0.00  0.00    +0.000 A 
ATOM      8  C   UNL     1      -1.571  12.058  23.131  0.00  0.00    +0.000 A 
ATOM      9  C   UNL     1      -1.055  13.337  22.896  0.00  0.00    +0.000 A 
ATOM     10 CL   UNL     1      -1.742  14.653  23.772  0.00  0.00    +0.000 Cl
ATOM     11  C   UNL     1      -0.004  13.509  21.998  0.00  0.00    +0.000 A 
ATOM     12  C   UNL     1       0.637  14.829  21.666  0.00  0.00    +0.000 C 
ATOM     13  C   UNL     1       0.516  12.364  21.364  0.00  0.00    +0.000 A 
ENDBRANCH   5   6
BRANCH   3  14
ATOM     14  C   UNL     1       2.111   6.532  20.551  0.00  0.00    +0.000 C 
ATOM     15  O   UNL     1       1.908   5.801  21.521  0.00  0.00    +0.000 OA
ATOM     16  N   UNL     1       2.896   6.175  19.473  0.00  0.00    +0.000 N 
ATOM     17  H   UNL     1       2.854   6.834  18.700  0.00  0.00    +0.000 HD
BRANCH  16  18
ATOM     18  C   UNL     1       3.527   4.874  19.318  0.00  0.00    +0.000 C 
ATOM     19  C   UNL     1       2.518   3.718  19.006  0.00  0.00    +0.000 C 
ATOM     20  C   UNL     1       1.712   3.228  20.194  0.00  0.00    +0.000 C 
ATOM     21  C   UNL     1       1.658   4.073  17.772  0.00  0.00    +0.000 C 
ATOM     22  C   UNL     1       2.651   3.934  16.610  0.00  0.00    +0.000 C 
ATOM     23  C   UNL     1       3.972   3.567  17.314  0.00  0.00    +0.000 C 
ATOM     24  C   UNL     1       3.441   2.643  18.415  0.00  0.00    +0.000 C 
ATOM     25  C   UNL     1       4.551   4.769  18.128  0.00  0.00    +0.000 C 
ATOM     26  C   UNL     1       4.726   6.040  17.283  0.00  0.00    +0.000 C 
ATOM     27  C   UNL     1       5.958   4.410  18.667  0.00  0.00    +0.000 C 
ENDBRANCH  16  18
ENDBRANCH   3  14
BRANCH   1  28
ATOM     28  C   UNL     1       0.436  10.565  18.439  0.00  0.00    +0.000 C 
BRANCH  28  33
ATOM     29  C   UNL     1      -5.353  10.952  17.765  0.00  0.00    +0.000 C 
ATOM     30  C   UNL     1      -3.860  10.873  17.883  0.00  0.00    +0.000 A 
ATOM     31  C   UNL     1      -3.154   9.810  17.319  0.00  0.00    +0.000 A 
ATOM     32  C   UNL     1      -1.774   9.708  17.491  0.00  0.00    +0.000 A 
ATOM     33  C   UNL     1      -1.062  10.671  18.221  0.00  0.00    +0.000 A 
ATOM     34  C   UNL     1      -1.775  11.753  18.767  0.00  0.00    +0.000 A 
ATOM     35  C   UNL     1      -3.159  11.853  18.594  0.00  0.00    +0.000 A 
ENDBRANCH  28  33
ENDBRANCH   1  28
TORSDOF 5
ENDMDL
MODEL 4
REMARK VINA RESULT:      -8.1      0.451      1.435
REMARK  Name = 
REMARK  10 active torsions:
REMARK  status: ('A' for Active; 'I' for Inactive)
REMARK    1  A    between atoms: C_1  and  C_2
REMARK    2  A    between atoms: C_5  and  C_6
REMARK    3  A    between atoms: C_6  and  N_7
REMARK    4  A    between atoms: C_9  and  C_10
REMARK    5  A    between atoms: N_12  and  C_13
REMARK    6  A    between atoms: C_14  and  C_15
REMARK    7  A    between atoms: C_20  and  C_21
REMARK    8  A    between atoms: C_20  and  C_22
REMARK    9  A    between atoms: C_24  and  C_25
REMARK   10  A    between atoms: C_30  and  C_31
REMARK                            x       y       z     vdW  Elec       q    Type
REMARK                         _______ _______ _______ _____ _____    ______ ____
ROOT
ATOM      1  N   UNL     1       0.979   9.842  18.535  0.00  0.00    +0.000 N 
ATOM      2  N   UNL     1       1.608   8.767  17.990  0.00  0.00    +0.000 NA
ATOM      3  C   UNL     1       2.071   8.076  19.045  0.00  0.00    +0.000 A 
ATOM      4  C   UNL     1       1.748   8.738  20.256  0.00  0.00    +0.000 A 
ATOM      5  C   UNL     1       1.055   9.896  19.916  0.00  0.00    +0.000 A 
ENDROOT
BRANCH   5   6
ATOM      6  C   UNL     1       0.517  10.938  20.802  0.00  0.00    +0.000 A 
ATOM      7  C   UNL     1       1.029  12.233  20.776  0.00  0.00    +0.000 A 
ATOM      8  C   UNL     1       0.488  13.240  21.588  0.00  0.00    +0.000 A 
ATOM      9  C   UNL     1      -0.578  12.968  22.452  0.00  0.00    +0.000 A 
ATOM     10 CL   UNL     1      -1.200  14.271  23.394  0.00  0.00    +0.000 Cl
ATOM     11  C   UNL     1      -1.115  11.684  22.513  0.00  0.00    +0.000 A 
ATOM     12  C   UNL     1      -2.260  11.270  23.397  0.00  0.00    +0.000 C 
ATOM     13  C   UNL     1      -0.562  10.698  21.672  0.00  0.00    +0.000 A 
ENDBRANCH   5   6
BRANCH   3  14
ATOM     14  C   UNL     1       2.811   6.807  18.881  0.00  0.00    +0.000 C 
ATOM     15  O   UNL     1       3.890   6.742  18.293  0.00  0.00    +0.000 OA
ATOM     16  N   UNL     1       2.178   5.716  19.443  0.00  0.00    +0.000 N 
ATOM     17  H   UNL     1       1.364   5.958  20.004  0.00  0.00    +0.000 HD
BRANCH  16  18
ATOM     18  C   UNL     1       2.733   4.373  19.468  0.00  0.00    +0.000 C 
ATOM     19  C   UNL     1       2.021   3.417  20.484  0.00  0.00    +0.000 C 
ATOM     20  C   UNL     1       2.386   3.635  21.939  0.00  0.00    +0.000 C 
ATOM     21  C   UNL     1       0.499   3.388  20.219  0.00  0.00    +0.000 C 
ATOM     22  C   UNL     1       0.392   2.584  18.916  0.00  0.00    +0.000 C 
ATOM     23  C   UNL     1       1.861   2.291  18.558  0.00  0.00    +0.000 C 
ATOM     24  C   UNL     1       2.432   2.033  19.957  0.00  0.00    +0.000 C 
ATOM     25  C   UNL     1       2.621   3.582  18.112  0.00  0.00    +0.000 C 
ATOM     26  C   UNL     1       1.925   4.323  16.961  0.00  0.00    +0.000 C 
ATOM     27  C   UNL     1       4.033   3.209  17.596  0.00  0.00    +0.000 C 
ENDBRANCH  16  18
ENDBRANCH   3  14
BRANCH   1  28
ATOM     28  C   UNL     1       0.255  10.732  17.620  0.00  0.00    +0.000 C 
BRANCH  28  33
ATOM     29  C   UNL     1      -5.551  10.780  18.264  0.00  0.00    +0.000 C 
ATOM     30  C   UNL     1      -4.055  10.750  18.155  0.00  0.00    +0.000 A 
ATOM     31  C   UNL     1      -3.282  11.801  18.650  0.00  0.00    +0.000 A 
ATOM     32  C   UNL     1      -1.898  11.798  18.485  0.00  0.00    +0.000 A 
ATOM     33  C   UNL     1      -1.248  10.741  17.830  0.00  0.00    +0.000 A 
ATOM     34  C   UNL     1      -2.030   9.674  17.354  0.00  0.00    +0.000 A 
ATOM     35  C   UNL     1      -3.419   9.678  17.521  0.00  0.00    +0.000 A 
ENDBRANCH  28  33
ENDBRANCH   1  28
TORSDOF 5
ENDMDL
MODEL 5
REMARK VINA RESULT:      -7.9      1.827      2.952
REMARK  Name = 
REMARK  10 active torsions:
REMARK  status: ('A' for Active; 'I' for Inactive)
REMARK    1  A    between atoms: C_1  and  C_2
REMARK    2  A    between atoms: C_5  and  C_6
REMARK    3  A    between atoms: C_6  and  N_7
REMARK    4  A    between atoms: C_9  and  C_10
REMARK    5  A    between atoms: N_12  and  C_13
REMARK    6  A    between atoms: C_14  and  C_15
REMARK    7  A    between atoms: C_20  and  C_21
REMARK    8  A    between atoms: C_20  and  C_22
REMARK    9  A    between atoms: C_24  and  C_25
REMARK   10  A    between atoms: C_30  and  C_31
REMARK                            x       y       z     vdW  Elec       q    Type
REMARK                         _______ _______ _______ _____ _____    ______ ____
ROOT
ATOM      1  N   UNL     1       1.365   9.386  18.718  0.00  0.00    +0.000 N 
ATOM      2  N   UNL     1       2.095   8.346  18.237  0.00  0.00    +0.000 NA
ATOM      3  C   UNL     1       2.355   7.588  19.316  0.00  0.00    +0.000 A 
ATOM      4  C   UNL     1       1.802   8.175  20.483  0.00  0.00    +0.000 A 
ATOM      5  C   UNL     1       1.177   9.355  20.089  0.00  0.00    +0.000 A 
ENDROOT
BRANCH   5   6
ATOM      6  C   UNL     1       0.472  10.341  20.919  0.00  0.00    +0.000 A 
ATOM      7  C   UNL     1      -0.543   9.948  21.790  0.00  0.00    +0.000 A 
ATOM      8  C   UNL     1      -1.187  10.880  22.615  0.00  0.00    +0.000 A 
ATOM      9  C   UNL     1      -0.833  12.233  22.581  0.00  0.00    +0.000 A 
ATOM     10 CL   UNL     1      -1.657  13.306  23.650  0.00  0.00    +0.000 Cl
ATOM     11  C   UNL     1       0.172  12.668  21.720  0.00  0.00    +0.000 A 
ATOM     12  C   UNL     1       0.644  14.092  21.596  0.00  0.00    +0.000 C 
ATOM     13  C   UNL     1       0.814  11.705  20.917  0.00  0.00    +0.000 A 
ENDBRANCH   5   6
BRANCH   3  14
ATOM     14  C   UNL     1       3.121   6.328  19.218  0.00  0.00    +0.000 C 
ATOM     15  O   UNL     1       2.786   5.303  19.810  0.00  0.00    +0.000 OA
ATOM     16  N   UNL     1       4.236   6.415  18.408  0.00  0.00    +0.000 N 
ATOM     17  H   UNL     1       4.299   7.289  17.890  0.00  0.00    +0.000 HD
BRANCH  16  18
ATOM     18  C   UNL     1       5.114   5.297  18.104  0.00  0.00    +0.000 C 
ATOM     19  C   UNL     1       4.645   4.444  16.878  0.00  0.00    +0.000 C 
ATOM     20  C   UNL     1       3.484   3.507  17.150  0.00  0.00    +0.000 C 
ATOM     21  C   UNL     1       4.441   5.348  15.641  0.00  0.00    +0.000 C 
ATOM     22  C   UNL     1       5.877   5.703  15.234  0.00  0.00    +0.000 C 
ATOM     23  C   UNL     1       6.733   5.007  16.310  0.00  0.00    +0.000 C 
ATOM     24  C   UNL     1       5.937   3.710  16.489  0.00  0.00    +0.000 C 
ATOM     25  C   UNL     1       6.584   5.694  17.706  0.00  0.00    +0.000 C 
ATOM     26  C   UNL     1       6.883   7.201  17.671  0.00  0.00    +0.000 C 
ATOM     27  C   UNL     1       7.591   5.076  18.707  0.00  0.00    +0.000 C 
ENDBRANCH  16  18
ENDBRANCH   3  14
BRANCH   1  28
ATOM     28  C   UNL     1       0.821  10.335  17.739  0.00  0.00    +0.000 C 
BRANCH  28  33
ATOM     29  C   UNL     1      -4.966  10.981  18.197  0.00  0.00    +0.000 C 
ATOM     30  C   UNL     1      -3.484  10.829  18.022  0.00  0.00    +0.000 A 
ATOM     31  C   UNL     1      -2.946   9.665  17.471  0.00  0.00    +0.000 A 
ATOM     32  C   UNL     1      -1.565   9.503  17.374  0.00  0.00    +0.000 A 
ATOM     33  C   UNL     1      -0.685  10.503  17.815  0.00  0.00    +0.000 A 
ATOM     34  C   UNL     1      -1.233  11.683  18.347  0.00  0.00    +0.000 A 
ATOM     35  C   UNL     1      -2.619  11.844  18.444  0.00  0.00    +0.000 A 
ENDBRANCH  28  33
ENDBRANCH   1  28
TORSDOF 5
ENDMDL
MODEL 6
REMARK VINA RESULT:      -7.7      1.276      2.051
REMARK  Name = 
REMARK  10 active torsions:
REMARK  status: ('A' for Active; 'I' for Inactive)
REMARK    1  A    between atoms: C_1  and  C_2
REMARK    2  A    between atoms: C_5  and  C_6
REMARK    3  A    between atoms: C_6  and  N_7
REMARK    4  A    between atoms: C_9  and  C_10
REMARK    5  A    between atoms: N_12  and  C_13
REMARK    6  A    between atoms: C_14  and  C_15
REMARK    7  A    between atoms: C_20  and  C_21
REMARK    8  A    between atoms: C_20  and  C_22
REMARK    9  A    between atoms: C_24  and  C_25
REMARK   10  A    between atoms: C_30  and  C_31
REMARK                            x       y       z     vdW  Elec       q    Type
REMARK                         _______ _______ _______ _____ _____    ______ ____
ROOT
ATOM      1  N   UNL     1       1.208   9.182  19.612  0.00  0.00    +0.000 N 
ATOM      2  N   UNL     1       1.739   7.954  19.376  0.00  0.00    +0.000 NA
ATOM      3  C   UNL     1       1.634   7.310  20.551  0.00  0.00    +0.000 A 
ATOM      4  C   UNL     1       1.054   8.153  21.532  0.00  0.00    +0.000 A 
ATOM      5  C   UNL     1       0.798   9.376  20.920  0.00  0.00    +0.000 A 
ENDROOT
BRANCH   5   6
ATOM      6  C   UNL     1       0.221  10.593  21.507  0.00  0.00    +0.000 A 
ATOM      7  C   UNL     1      -0.836  10.519  22.412  0.00  0.00    +0.000 A 
ATOM      8  C   UNL     1      -1.360  11.675  23.007  0.00  0.00    +0.000 A 
ATOM      9  C   UNL     1      -0.839  12.937  22.702  0.00  0.00    +0.000 A 
ATOM     10 CL   UNL     1      -1.524  14.303  23.500  0.00  0.00    +0.000 Cl
ATOM     11  C   UNL     1       0.213  13.055  21.797  0.00  0.00    +0.000 A 
ATOM     12  C   UNL     1       0.860  14.353  21.392  0.00  0.00    +0.000 C 
ATOM     13  C   UNL     1       0.730  11.874  21.229  0.00  0.00    +0.000 A 
ENDBRANCH   5   6
BRANCH   3  14
ATOM     14  C   UNL     1       2.088   5.913  20.717  0.00  0.00    +0.000 C 
ATOM     15  O   UNL     1       2.252   5.399  21.823  0.00  0.00    +0.000 OA
ATOM     16  N   UNL     1       2.307   5.252  19.524  0.00  0.00    +0.000 N 
ATOM     17  H   UNL     1       1.999   5.771  18.705  0.00  0.00    +0.000 HD
BRANCH  16  18
ATOM     18  C   UNL     1       2.696   3.855  19.425  0.00  0.00    +0.000 C 
ATOM     19  C   UNL     1       1.934   3.068  18.305  0.00  0.00    +0.000 C 
ATOM     20  C   UNL     1       0.506   2.685  18.643  0.00  0.00    +0.000 C 
ATOM     21  C   UNL     1       2.082   3.789  16.946  0.00  0.00    +0.000 C 
ATOM     22  C   UNL     1       3.544   3.516  16.570  0.00  0.00    +0.000 C 
ATOM     23  C   UNL     1       4.078   2.718  17.776  0.00  0.00    +0.000 C 
ATOM     24  C   UNL     1       2.851   1.855  18.090  0.00  0.00    +0.000 C 
ATOM     25  C   UNL     1       4.205   3.609  19.053  0.00  0.00    +0.000 C 
ATOM     26  C   UNL     1       5.051   4.871  18.826  0.00  0.00    +0.000 C 
ATOM     27  C   UNL     1       4.908   2.814  20.182  0.00  0.00    +0.000 C 
ENDBRANCH  16  18
ENDBRANCH   3  14
BRANCH   1  28
ATOM     28  C   UNL     1       1.068  10.086  18.464  0.00  0.00    +0.000 C 
BRANCH  28  33
ATOM     29  C   UNL     1      -4.426  11.393  16.972  0.00  0.00    +0.000 C 
ATOM     30  C   UNL     1      -3.034  11.046  17.410  0.00  0.00    +0.000 A 
ATOM     31  C   UNL     1      -2.253  11.971  18.106  0.00  0.00    +0.000 A 
ATOM     32  C   UNL     1      -0.937  11.666  18.450  0.00  0.00    +0.000 A 
ATOM     33  C   UNL     1      -0.369  10.427  18.118  0.00  0.00    +0.000 A 
ATOM     34  C   UNL     1      -1.168   9.491  17.438  0.00  0.00    +0.000 A 
ATOM     35  C   UNL     1      -2.488   9.798  17.093  0.00  0.00    +0.000 A 
ENDBRANCH  28  33
ENDBRANCH   1  28
TORSDOF 5
ENDMDL
MODEL 7
REMARK VINA RESULT:      -7.6      2.201      4.178
REMARK  Name = 
REMARK  10 active torsions:
REMARK  status: ('A' for Active; 'I' for Inactive)
REMARK    1  A    between atoms: C_1  and  C_2
REMARK    2  A    between atoms: C_5  and  C_6
REMARK    3  A    between atoms: C_6  and  N_7
REMARK    4  A    between atoms: C_9  and  C_10
REMARK    5  A    between atoms: N_12  and  C_13
REMARK    6  A    between atoms: C_14  and  C_15
REMARK    7  A    between atoms: C_20  and  C_21
REMARK    8  A    between atoms: C_20  and  C_22
REMARK    9  A    between atoms: C_24  and  C_25
REMARK   10  A    between atoms: C_30  and  C_31
REMARK                            x       y       z     vdW  Elec       q    Type
REMARK                         _______ _______ _______ _____ _____    ______ ____
ROOT
ATOM      1  N   UNL     1       0.641  10.967  18.986  0.00  0.00    +0.000 N 
ATOM      2  N   UNL     1       1.645  10.198  19.482  0.00  0.00    +0.000 NA
ATOM      3  C   UNL     1       1.073   9.005  19.717  0.00  0.00    +0.000 A 
ATOM      4  C   UNL     1      -0.306   9.039  19.386  0.00  0.00    +0.000 A 
ATOM      5  C   UNL     1      -0.584  10.324  18.930  0.00  0.00    +0.000 A 
ENDROOT
BRANCH   5   6
ATOM      6  C   UNL     1      -1.868  10.882  18.483  0.00  0.00    +0.000 A 
ATOM      7  C   UNL     1      -2.337  10.650  17.191  0.00  0.00    +0.000 A 
ATOM      8  C   UNL     1      -3.581  11.144  16.775  0.00  0.00    +0.000 A 
ATOM      9  C   UNL     1      -4.384  11.889  17.646  0.00  0.00    +0.000 A 
ATOM     10 CL   UNL     1      -5.912  12.433  17.061  0.00  0.00    +0.000 Cl
ATOM     11  C   UNL     1      -3.949  12.148  18.943  0.00  0.00    +0.000 A 
ATOM     12  C   UNL     1      -4.721  12.931  19.970  0.00  0.00    +0.000 C 
ATOM     13  C   UNL     1      -2.702  11.624  19.338  0.00  0.00    +0.000 A 
ENDBRANCH   5   6
BRANCH   3  14
ATOM     14  C   UNL     1       1.843   7.862  20.251  0.00  0.00    +0.000 C 
ATOM     15  O   UNL     1       1.992   7.672  21.458  0.00  0.00    +0.000 OA
ATOM     16  N   UNL     1       2.373   7.042  19.275  0.00  0.00    +0.000 N 
ATOM     17  H   UNL     1       2.050   7.261  18.336  0.00  0.00    +0.000 HD
BRANCH  16  18
ATOM     18  C   UNL     1       3.116   5.822  19.548  0.00  0.00    +0.000 C 
ATOM     19  C   UNL     1       2.240   4.526  19.488  0.00  0.00    +0.000 C 
ATOM     20  C   UNL     1       1.345   4.295  20.690  0.00  0.00    +0.000 C 
ATOM     21  C   UNL     1       1.500   4.440  18.133  0.00  0.00    +0.000 C 
ATOM     22  C   UNL     1       2.625   4.094  17.149  0.00  0.00    +0.000 C 
ATOM     23  C   UNL     1       3.883   4.073  18.039  0.00  0.00    +0.000 C 
ATOM     24  C   UNL     1       3.303   3.433  19.306  0.00  0.00    +0.000 C 
ATOM     25  C   UNL     1       4.273   5.506  18.530  0.00  0.00    +0.000 C 
ATOM     26  C   UNL     1       4.444   6.509  17.380  0.00  0.00    +0.000 C 
ATOM     27  C   UNL     1       5.633   5.456  19.269  0.00  0.00    +0.000 C 
ENDBRANCH  16  18
ENDBRANCH   3  14
BRANCH   1  28
ATOM     28  C   UNL     1       0.994  12.311  18.513  0.00  0.00    +0.000 C 
BRANCH  28  33
ATOM     29  C   UNL     1      -1.055  16.511  22.018  0.00  0.00    +0.000 C 
ATOM     30  C   UNL     1      -0.486  15.470  21.100  0.00  0.00    +0.000 A 
ATOM     31  C   UNL     1      -0.772  15.489  19.734  0.00  0.00    +0.000 A 
ATOM     32  C   UNL     1      -0.296  14.480  18.898  0.00  0.00    +0.000 A 
ATOM     33  C   UNL     1       0.487  13.430  19.403  0.00  0.00    +0.000 A 
ATOM     34  C   UNL     1       0.792  13.429  20.775  0.00  0.00    +0.000 A 
ATOM     35  C   UNL     1       0.313  14.442  21.612  0.00  0.00    +0.000 A 
ENDBRANCH  28  33
ENDBRANCH   1  28
TORSDOF 5
ENDMDL
MODEL 8
REMARK VINA RESULT:      -7.6      2.224      4.322
REMARK  Name = 
REMARK  10 active torsions:
REMARK  status: ('A' for Active; 'I' for Inactive)
REMARK    1  A    between atoms: C_1  and  C_2
REMARK    2  A    between atoms: C_5  and  C_6
REMARK    3  A    between atoms: C_6  and  N_7
REMARK    4  A    between atoms: C_9  and  C_10
REMARK    5  A    between atoms: N_12  and  C_13
REMARK    6  A    between atoms: C_14  and  C_15
REMARK    7  A    between atoms: C_20  and  C_21
REMARK    8  A    between atoms: C_20  and  C_22
REMARK    9  A    between atoms: C_24  and  C_25
REMARK   10  A    between atoms: C_30  and  C_31
REMARK                            x       y       z     vdW  Elec       q    Type
REMARK                         _______ _______ _______ _____ _____    ______ ____
ROOT
ATOM      1  N   UNL     1       0.586  10.966  18.945  0.00  0.00    +0.000 N 
ATOM      2  N   UNL     1       1.605  10.238  19.473  0.00  0.00    +0.000 NA
ATOM      3  C   UNL     1       1.081   9.017  19.670  0.00  0.00    +0.000 A 
ATOM      4  C   UNL     1      -0.283   8.991  19.283  0.00  0.00    +0.000 A 
ATOM      5  C   UNL     1      -0.604  10.268  18.832  0.00  0.00    +0.000 A 
ENDROOT
BRANCH   5   6
ATOM      6  C   UNL     1      -1.894  10.771  18.339  0.00  0.00    +0.000 A 
ATOM      7  C   UNL     1      -2.715  11.549  19.153  0.00  0.00    +0.000 A 
ATOM      8  C   UNL     1      -3.926  12.067  18.671  0.00  0.00    +0.000 A 
ATOM      9  C   UNL     1      -4.345  11.810  17.361  0.00  0.00    +0.000 A 
ATOM     10 CL   UNL     1      -5.832  12.510  16.843  0.00  0.00    +0.000 Cl
ATOM     11  C   UNL     1      -3.555  11.032  16.518  0.00  0.00    +0.000 A 
ATOM     12  C   UNL     1      -3.895  10.690  15.093  0.00  0.00    +0.000 C 
ATOM     13  C   UNL     1      -2.336  10.540  17.025  0.00  0.00    +0.000 A 
ENDBRANCH   5   6
BRANCH   3  14
ATOM     14  C   UNL     1       1.882   7.904  20.221  0.00  0.00    +0.000 C 
ATOM     15  O   UNL     1       2.067   7.758  21.430  0.00  0.00    +0.000 OA
ATOM     16  N   UNL     1       2.397   7.058  19.260  0.00  0.00    +0.000 N 
ATOM     17  H   UNL     1       2.045   7.239  18.323  0.00  0.00    +0.000 HD
BRANCH  16  18
ATOM     18  C   UNL     1       3.164   5.859  19.554  0.00  0.00    +0.000 C 
ATOM     19  C   UNL     1       2.309   4.547  19.550  0.00  0.00    +0.000 C 
ATOM     20  C   UNL     1       1.442   4.339  20.777  0.00  0.00    +0.000 C 
ATOM     21  C   UNL     1       1.543   4.408  18.214  0.00  0.00    +0.000 C 
ATOM     22  C   UNL     1       2.654   4.051  17.218  0.00  0.00    +0.000 C 
ATOM     23  C   UNL     1       3.929   4.077  18.083  0.00  0.00    +0.000 C 
ATOM     24  C   UNL     1       3.386   3.466  19.379  0.00  0.00    +0.000 C 
ATOM     25  C   UNL     1       4.306   5.529  18.522  0.00  0.00    +0.000 C 
ATOM     26  C   UNL     1       4.438   6.500  17.339  0.00  0.00    +0.000 C 
ATOM     27  C   UNL     1       5.681   5.523  19.233  0.00  0.00    +0.000 C 
ENDBRANCH  16  18
ENDBRANCH   3  14
BRANCH   1  28
ATOM     28  C   UNL     1       0.894  12.332  18.504  0.00  0.00    +0.000 C 
BRANCH  28  33
ATOM     29  C   UNL     1      -1.495  16.396  21.952  0.00  0.00    +0.000 C 
ATOM     30  C   UNL     1      -0.831  15.384  21.065  0.00  0.00    +0.000 A 
ATOM     31  C   UNL     1      -0.735  15.595  19.689  0.00  0.00    +0.000 A 
ATOM     32  C   UNL     1      -0.178  14.620  18.863  0.00  0.00    +0.000 A 
ATOM     33  C   UNL     1       0.307  13.414  19.390  0.00  0.00    +0.000 A 
ATOM     34  C   UNL     1       0.228  13.217  20.780  0.00  0.00    +0.000 A 
ATOM     35  C   UNL     1      -0.331  14.196  21.608  0.00  0.00    +0.000 A 
ENDBRANCH  28  33
ENDBRANCH   1  28
TORSDOF 5
ENDMDL
MODEL 9
REMARK VINA RESULT:      -7.6      2.742      4.991
REMARK  Name = 
REMARK  10 active torsions:
REMARK  status: ('A' for Active; 'I' for Inactive)
REMARK    1  A    between atoms: C_1  and  C_2
REMARK    2  A    between atoms: C_5  and  C_6
REMARK    3  A    between atoms: C_6  and  N_7
REMARK    4  A    between atoms: C_9  and  C_10
REMARK    5  A    between atoms: N_12  and  C_13
REMARK    6  A    between atoms: C_14  and  C_15
REMARK    7  A    between atoms: C_20  and  C_21
REMARK    8  A    between atoms: C_20  and  C_22
REMARK    9  A    between atoms: C_24  and  C_25
REMARK   10  A    between atoms: C_30  and  C_31
REMARK                            x       y       z     vdW  Elec       q    Type
REMARK                         _______ _______ _______ _____ _____    ______ ____
ROOT
ATOM      1  N   UNL     1       1.776  10.121  18.077  0.00  0.00    +0.000 N 
ATOM      2  N   UNL     1       2.850   9.324  18.320  0.00  0.00    +0.000 NA
ATOM      3  C   UNL     1       2.336   8.088  18.434  0.00  0.00    +0.000 A 
ATOM      4  C   UNL     1       0.926   8.119  18.285  0.00  0.00    +0.000 A 
ATOM      5  C   UNL     1       0.566   9.447  18.073  0.00  0.00    +0.000 A 
ENDROOT
BRANCH   5   6
ATOM      6  C   UNL     1      -0.775  10.016  17.880  0.00  0.00    +0.000 A 
ATOM      7  C   UNL     1      -1.382  10.769  18.883  0.00  0.00    +0.000 A 
ATOM      8  C   UNL     1      -2.643  11.351  18.685  0.00  0.00    +0.000 A 
ATOM      9  C   UNL     1      -3.328  11.183  17.477  0.00  0.00    +0.000 A 
ATOM     10 CL   UNL     1      -4.860  11.956  17.309  0.00  0.00    +0.000 Cl
ATOM     11  C   UNL     1      -2.758  10.432  16.452  0.00  0.00    +0.000 A 
ATOM     12  C   UNL     1      -3.392  10.184  15.110  0.00  0.00    +0.000 C 
ATOM     13  C   UNL     1      -1.482   9.876  16.673  0.00  0.00    +0.000 A 
ENDBRANCH   5   6
BRANCH   3  14
ATOM     14  C   UNL     1       3.190   6.908  18.684  0.00  0.00    +0.000 C 
ATOM     15  O   UNL     1       2.920   6.067  19.541  0.00  0.00    +0.000 OA
ATOM     16  N   UNL     1       4.305   6.845  17.873  0.00  0.00    +0.000 N 
ATOM     17  H   UNL     1       4.313   7.542  17.132  0.00  0.00    +0.000 HD
BRANCH  16  18
ATOM     18  C   UNL     1       5.262   5.751  17.885  0.00  0.00    +0.000 C 
ATOM     19  C   UNL     1       5.027   4.697  16.751  0.00  0.00    +0.000 C 
ATOM     20  C   UNL     1       3.874   3.741  16.989  0.00  0.00    +0.000 C 
ATOM     21  C   UNL     1       4.988   5.392  15.370  0.00  0.00    +0.000 C 
ATOM     22  C   UNL     1       6.456   5.771  15.135  0.00  0.00    +0.000 C 
ATOM     23  C   UNL     1       7.156   5.299  16.424  0.00  0.00    +0.000 C 
ATOM     24  C   UNL     1       6.392   3.996  16.682  0.00  0.00    +0.000 C 
ATOM     25  C   UNL     1       6.760   6.176  17.656  0.00  0.00    +0.000 C 
ATOM     26  C   UNL     1       7.003   7.676  17.430  0.00  0.00    +0.000 C 
ATOM     27  C   UNL     1       7.619   5.778  18.882  0.00  0.00    +0.000 C 
ENDBRANCH  16  18
ENDBRANCH   3  14
BRANCH   1  28
ATOM     28  C   UNL     1       2.040  11.534  17.781  0.00  0.00    +0.000 C 
BRANCH  28  33
ATOM     29  C   UNL     1      -0.183  15.365  21.589  0.00  0.00    +0.000 C 
ATOM     30  C   UNL     1       0.344  14.344  20.624  0.00  0.00    +0.000 A 
ATOM     31  C   UNL     1       1.084  13.250  21.075  0.00  0.00    +0.000 A 
ATOM     32  C   UNL     1       1.627  12.343  20.167  0.00  0.00    +0.000 A 
ATOM     33  C   UNL     1       1.437  12.498  18.785  0.00  0.00    +0.000 A 
ATOM     34  C   UNL     1       0.671  13.588  18.339  0.00  0.00    +0.000 A 
ATOM     35  C   UNL     1       0.126  14.498  19.251  0.00  0.00    +0.000 A 
ENDBRANCH  28  33
ENDBRANCH   1  28
TORSDOF 5
ENDMDL
