MODEL 1
REMARK VINA RESULT:      -7.2      0.000      0.000
REMARK  Name = 
REMARK  11 active torsions:
REMARK  status: ('A' for Active; 'I' for Inactive)
REMARK    1  A    between atoms: C_1  and  C_2
REMARK    2  A    between atoms: C_2  and  N_3
REMARK    3  A    between atoms: N_3  and  C_4
REMARK    4  A    between atoms: N_3  and  C_6
REMARK    5  A    between atoms: C_4  and  C_5
REMARK    6  A    between atoms: C_9  and  C_10
REMARK    7  A    between atoms: C_15  and  C_17
REMARK    8  A    between atoms: C_18  and  O_19
REMARK    9  A    between atoms: O_19  and  C_20
REMARK   10  A    between atoms: C_24  and  O_25
REMARK   11  A    between atoms: O_25  and  C_26
REMARK                            x       y       z     vdW  Elec       q    Type
REMARK                         _______ _______ _______ _____ _____    ______ ____
ROOT
ATOM      1  C   UNL     1       0.983   9.370  19.431  0.00  0.00    +0.000 A 
ATOM      2  N   UNL     1       0.335  10.090  18.535  0.00  0.00    +0.000 NA
ATOM      3  N   UNL     1      -0.384  11.117  19.115  0.00  0.00    +0.000 NA
ATOM      4  C   UNL     1      -0.269  11.120  20.425  0.00  0.00    +0.000 A 
ATOM      5  N   UNL     1      -0.846  12.080  21.215  0.00  0.00    +0.000 N 
ATOM      6  C   UNL     1      -0.948  12.085  22.590  0.00  0.00    +0.000 C 
ATOM      7  O   UNL     1      -0.643  11.150  23.324  0.00  0.00    +0.000 OA
ATOM      8  S   UNL     1       0.743   9.905  21.046  0.00  0.00    +0.000 S 
ATOM      9  H   UNL     1      -1.338  12.793  20.693  0.00  0.00    +0.000 HD
ENDROOT
BRANCH   1  13
ATOM     10  C   UNL     1       3.704   6.139  18.411  0.00  0.00    +0.000 A 
ATOM     11  C   UNL     1       3.520   7.266  17.594  0.00  0.00    +0.000 A 
ATOM     12  C   UNL     1       2.628   8.297  17.928  0.00  0.00    +0.000 A 
ATOM     13  C   UNL     1       1.895   8.263  19.114  0.00  0.00    +0.000 A 
ATOM     14  C   UNL     1       2.072   7.161  19.951  0.00  0.00    +0.000 A 
ATOM     15  C   UNL     1       2.956   6.131  19.604  0.00  0.00    +0.000 A 
BRANCH  10  16
ATOM     16  N   UNL     1       4.553   5.079  18.059  0.00  0.00    +0.000 N 
BRANCH  16  18
ATOM     17  C   UNL     1       6.778   5.528  19.048  0.00  0.00    +0.000 C 
ATOM     18  C   UNL     1       5.569   4.599  19.004  0.00  0.00    +0.000 C 
ENDBRANCH  16  18
BRANCH  16  19
ATOM     19  C   UNL     1       4.261   4.355  16.809  0.00  0.00    +0.000 C 
ATOM     20  C   UNL     1       5.319   4.379  15.721  0.00  0.00    +0.000 C 
ENDBRANCH  16  19
ENDBRANCH  10  16
ENDBRANCH   1  13
BRANCH   6  21
ATOM     21  C   UNL     1      -1.519  13.353  23.182  0.00  0.00    +0.000 A 
ATOM     22  C   UNL     1      -0.768  14.555  23.196  0.00  0.00    +0.000 A 
ATOM     23  C   UNL     1      -1.312  15.702  23.779  0.00  0.00    +0.000 A 
ATOM     24  C   UNL     1      -2.565  15.679  24.375  0.00  0.00    +0.000 A 
ATOM     25  C   UNL     1      -3.310  14.508  24.364  0.00  0.00    +0.000 A 
ATOM     26  C   UNL     1      -2.816  13.345  23.759  0.00  0.00    +0.000 A 
BRANCH  22  27
ATOM     27  O   UNL     1       0.474  14.563  22.605  0.00  0.00    +0.000 OA
ATOM     28  C   UNL     1       0.930  15.818  22.098  0.00  0.00    +0.000 C 
ENDBRANCH  22  27
BRANCH  26  29
ATOM     29  O   UNL     1      -3.527  12.170  23.790  0.00  0.00    +0.000 OA
ATOM     30  C   UNL     1      -4.673  12.137  24.639  0.00  0.00    +0.000 C 
ENDBRANCH  26  29
ENDBRANCH   6  21
TORSDOF 7
ENDMDL
MODEL 2
REMARK VINA RESULT:      -7.1      0.403      2.886
REMARK  Name = 
REMARK  11 active torsions:
REMARK  status: ('A' for Active; 'I' for Inactive)
REMARK    1  A    between atoms: C_1  and  C_2
REMARK    2  A    between atoms: C_2  and  N_3
REMARK    3  A    between atoms: N_3  and  C_4
REMARK    4  A    between atoms: N_3  and  C_6
REMARK    5  A    between atoms: C_4  and  C_5
REMARK    6  A    between atoms: C_9  and  C_10
REMARK    7  A    between atoms: C_15  and  C_17
REMARK    8  A    between atoms: C_18  and  O_19
REMARK    9  A    between atoms: O_19  and  C_20
REMARK   10  A    between atoms: C_24  and  O_25
REMARK   11  A    between atoms: O_25  and  C_26
REMARK                            x       y       z     vdW  Elec       q    Type
REMARK                         _______ _______ _______ _____ _____    ______ ____
ROOT
ATOM      1  C   UNL     1       0.919   9.512  19.455  0.00  0.00    +0.000 A 
ATOM      2  N   UNL     1       0.313  10.287  18.574  0.00  0.00    +0.000 NA
ATOM      3  N   UNL     1      -0.412  11.294  19.181  0.00  0.00    +0.000 NA
ATOM      4  C   UNL     1      -0.346  11.227  20.492  0.00  0.00    +0.000 A 
ATOM      5  N   UNL     1      -0.939  12.154  21.309  0.00  0.00    +0.000 N 
ATOM      6  C   UNL     1      -1.092  12.090  22.678  0.00  0.00    +0.000 C 
ATOM      7  O   UNL     1      -0.827  11.114  23.373  0.00  0.00    +0.000 OA
ATOM      8  S   UNL     1       0.625   9.966  21.085  0.00  0.00    +0.000 S 
ATOM      9  H   UNL     1      -1.402  12.901  20.808  0.00  0.00    +0.000 HD
ENDROOT
BRANCH   1  13
ATOM     10  C   UNL     1       3.582   6.207  18.526  0.00  0.00    +0.000 A 
ATOM     11  C   UNL     1       2.810   6.256  19.698  0.00  0.00    +0.000 A 
ATOM     12  C   UNL     1       1.963   7.335  19.993  0.00  0.00    +0.000 A 
ATOM     13  C   UNL     1       1.826   8.409  19.114  0.00  0.00    +0.000 A 
ATOM     14  C   UNL     1       2.572   8.377  17.934  0.00  0.00    +0.000 A 
ATOM     15  C   UNL     1       3.422   7.300  17.653  0.00  0.00    +0.000 A 
BRANCH  10  16
ATOM     16  N   UNL     1       4.471   5.157  18.249  0.00  0.00    +0.000 N 
BRANCH  16  18
ATOM     17  C   UNL     1       2.971   3.493  17.192  0.00  0.00    +0.000 C 
ATOM     18  C   UNL     1       4.261   4.300  17.075  0.00  0.00    +0.000 C 
ENDBRANCH  16  18
BRANCH  16  19
ATOM     19  C   UNL     1       5.703   5.074  19.052  0.00  0.00    +0.000 C 
ATOM     20  C   UNL     1       7.016   5.388  18.356  0.00  0.00    +0.000 C 
ENDBRANCH  16  19
ENDBRANCH  10  16
ENDBRANCH   1  13
BRANCH   6  21
ATOM     21  C   UNL     1      -1.667  13.334  23.315  0.00  0.00    +0.000 A 
ATOM     22  C   UNL     1      -2.964  13.330  23.886  0.00  0.00    +0.000 A 
ATOM     23  C   UNL     1      -3.479  14.504  24.440  0.00  0.00    +0.000 A 
ATOM     24  C   UNL     1      -2.755  15.688  24.412  0.00  0.00    +0.000 A 
ATOM     25  C   UNL     1      -1.483  15.703  23.857  0.00  0.00    +0.000 A 
ATOM     26  C   UNL     1      -0.915  14.538  23.324  0.00  0.00    +0.000 A 
BRANCH  22  27
ATOM     27  O   UNL     1      -3.672  12.151  23.904  0.00  0.00    +0.000 OA
ATOM     28  C   UNL     1      -4.917  12.165  24.604  0.00  0.00    +0.000 C 
ENDBRANCH  22  27
BRANCH  26  29
ATOM     29  O   UNL     1       0.323  14.559  22.729  0.00  0.00    +0.000 OA
ATOM     30  C   UNL     1       0.686  15.757  22.045  0.00  0.00    +0.000 C 
ENDBRANCH  26  29
ENDBRANCH   6  21
TORSDOF 7
ENDMDL
MODEL 3
REMARK VINA RESULT:      -7.1      3.103     10.617
REMARK  Name = 
REMARK  11 active torsions:
REMARK  status: ('A' for Active; 'I' for Inactive)
REMARK    1  A    between atoms: C_1  and  C_2
REMARK    2  A    between atoms: C_2  and  N_3
REMARK    3  A    between atoms: N_3  and  C_4
REMARK    4  A    between atoms: N_3  and  C_6
REMARK    5  A    between atoms: C_4  and  C_5
REMARK    6  A    between atoms: C_9  and  C_10
REMARK    7  A    between atoms: C_15  and  C_17
REMARK    8  A    between atoms: C_18  and  O_19
REMARK    9  A    between atoms: O_19  and  C_20
REMARK   10  A    between atoms: C_24  and  O_25
REMARK   11  A    between atoms: O_25  and  C_26
REMARK                            x       y       z     vdW  Elec       q    Type
REMARK                         _______ _______ _______ _____ _____    ______ ____
ROOT
ATOM      1  C   UNL     1       0.410  10.522  19.844  0.00  0.00    +0.000 A 
ATOM      2  N   UNL     1       0.826  10.992  18.683  0.00  0.00    +0.000 NA
ATOM      3  N   UNL     1       1.587  10.069  17.991  0.00  0.00    +0.000 NA
ATOM      4  C   UNL     1       1.735   8.950  18.665  0.00  0.00    +0.000 A 
ATOM      5  N   UNL     1       2.403   7.866  18.157  0.00  0.00    +0.000 N 
ATOM      6  C   UNL     1       2.775   6.721  18.828  0.00  0.00    +0.000 C 
ATOM      7  O   UNL     1       2.675   6.548  20.038  0.00  0.00    +0.000 OA
ATOM      8  S   UNL     1       0.936   8.918  20.163  0.00  0.00    +0.000 S 
ATOM      9  H   UNL     1       2.740   8.003  17.213  0.00  0.00    +0.000 HD
ENDROOT
BRANCH   1  13
ATOM     10  C   UNL     1      -2.206  12.582  22.635  0.00  0.00    +0.000 A 
ATOM     11  C   UNL     1      -1.387  11.506  23.013  0.00  0.00    +0.000 A 
ATOM     12  C   UNL     1      -0.555  10.840  22.099  0.00  0.00    +0.000 A 
ATOM     13  C   UNL     1      -0.483  11.238  20.764  0.00  0.00    +0.000 A 
ATOM     14  C   UNL     1      -1.277  12.314  20.367  0.00  0.00    +0.000 A 
ATOM     15  C   UNL     1      -2.112  12.967  21.285  0.00  0.00    +0.000 A 
BRANCH  10  16
ATOM     16  N   UNL     1      -3.079  13.219  23.531  0.00  0.00    +0.000 N 
BRANCH  16  18
ATOM     17  C   UNL     1      -5.497  13.006  24.021  0.00  0.00    +0.000 C 
ATOM     18  C   UNL     1      -4.097  12.443  24.251  0.00  0.00    +0.000 C 
ENDBRANCH  16  18
BRANCH  16  19
ATOM     19  C   UNL     1      -2.811  14.630  23.860  0.00  0.00    +0.000 C 
ATOM     20  C   UNL     1      -1.442  14.971  24.422  0.00  0.00    +0.000 C 
ENDBRANCH  16  19
ENDBRANCH  10  16
ENDBRANCH   1  13
BRANCH   6  21
ATOM     21  C   UNL     1       3.381   5.641  17.960  0.00  0.00    +0.000 A 
ATOM     22  C   UNL     1       2.773   4.366  17.851  0.00  0.00    +0.000 A 
ATOM     23  C   UNL     1       3.374   3.379  17.065  0.00  0.00    +0.000 A 
ATOM     24  C   UNL     1       4.575   3.616  16.411  0.00  0.00    +0.000 A 
ATOM     25  C   UNL     1       5.177   4.862  16.510  0.00  0.00    +0.000 A 
ATOM     26  C   UNL     1       4.590   5.890  17.259  0.00  0.00    +0.000 A 
BRANCH  22  27
ATOM     27  O   UNL     1       1.584   4.144  18.505  0.00  0.00    +0.000 OA
ATOM     28  C   UNL     1       1.166   2.784  18.625  0.00  0.00    +0.000 C 
ENDBRANCH  22  27
BRANCH  26  29
ATOM     29  O   UNL     1       5.207   7.110  17.400  0.00  0.00    +0.000 OA
ATOM     30  C   UNL     1       6.631   7.119  17.326  0.00  0.00    +0.000 C 
ENDBRANCH  26  29
ENDBRANCH   6  21
TORSDOF 7
ENDMDL
MODEL 4
REMARK VINA RESULT:      -7.1      0.521      1.493
REMARK  Name = 
REMARK  11 active torsions:
REMARK  status: ('A' for Active; 'I' for Inactive)
REMARK    1  A    between atoms: C_1  and  C_2
REMARK    2  A    between atoms: C_2  and  N_3
REMARK    3  A    between atoms: N_3  and  C_4
REMARK    4  A    between atoms: N_3  and  C_6
REMARK    5  A    between atoms: C_4  and  C_5
REMARK    6  A    between atoms: C_9  and  C_10
REMARK    7  A    between atoms: C_15  and  C_17
REMARK    8  A    between atoms: C_18  and  O_19
REMARK    9  A    between atoms: O_19  and  C_20
REMARK   10  A    between atoms: C_24  and  O_25
REMARK   11  A    between atoms: O_25  and  C_26
REMARK                            x       y       z     vdW  Elec       q    Type
REMARK                         _______ _______ _______ _____ _____    ______ ____
ROOT
ATOM      1  C   UNL     1       1.089   9.328  19.336  0.00  0.00    +0.000 A 
ATOM      2  N   UNL     1       0.468  10.071  18.439  0.00  0.00    +0.000 NA
ATOM      3  N   UNL     1      -0.242  11.103  19.021  0.00  0.00    +0.000 NA
ATOM      4  C   UNL     1      -0.148  11.087  20.332  0.00  0.00    +0.000 A 
ATOM      5  N   UNL     1      -0.722  12.047  21.125  0.00  0.00    +0.000 N 
ATOM      6  C   UNL     1      -0.846  12.036  22.498  0.00  0.00    +0.000 C 
ATOM      7  O   UNL     1      -0.569  11.087  23.224  0.00  0.00    +0.000 OA
ATOM      8  S   UNL     1       0.832   9.847  20.953  0.00  0.00    +0.000 S 
ATOM      9  H   UNL     1      -1.193  12.776  20.605  0.00  0.00    +0.000 HD
ENDROOT
BRANCH   1  13
ATOM     10  C   UNL     1       3.715   5.976  18.475  0.00  0.00    +0.000 A 
ATOM     11  C   UNL     1       2.878   6.017  19.601  0.00  0.00    +0.000 A 
ATOM     12  C   UNL     1       2.044   7.111  19.876  0.00  0.00    +0.000 A 
ATOM     13  C   UNL     1       1.986   8.210  19.018  0.00  0.00    +0.000 A 
ATOM     14  C   UNL     1       2.798   8.186  17.884  0.00  0.00    +0.000 A 
ATOM     15  C   UNL     1       3.635   7.094  17.623  0.00  0.00    +0.000 A 
BRANCH  10  16
ATOM     16  N   UNL     1       4.591   4.909  18.222  0.00  0.00    +0.000 N 
BRANCH  16  18
ATOM     17  C   UNL     1       3.681   2.638  17.842  0.00  0.00    +0.000 C 
ATOM     18  C   UNL     1       4.257   3.901  17.208  0.00  0.00    +0.000 C 
ENDBRANCH  16  18
BRANCH  16  19
ATOM     19  C   UNL     1       5.920   4.949  18.858  0.00  0.00    +0.000 C 
ATOM     20  C   UNL     1       7.133   4.996  17.946  0.00  0.00    +0.000 C 
ENDBRANCH  16  19
ENDBRANCH  10  16
ENDBRANCH   1  13
BRANCH   6  21
ATOM     21  C   UNL     1      -1.404  13.306  23.098  0.00  0.00    +0.000 A 
ATOM     22  C   UNL     1      -0.630  14.493  23.147  0.00  0.00    +0.000 A 
ATOM     23  C   UNL     1      -1.163  15.642  23.735  0.00  0.00    +0.000 A 
ATOM     24  C   UNL     1      -2.429  15.635  24.304  0.00  0.00    +0.000 A 
ATOM     25  C   UNL     1      -3.196  14.479  24.260  0.00  0.00    +0.000 A 
ATOM     26  C   UNL     1      -2.713  13.316  23.647  0.00  0.00    +0.000 A 
BRANCH  22  27
ATOM     27  O   UNL     1       0.624  14.485  22.581  0.00  0.00    +0.000 OA
ATOM     28  C   UNL     1       0.828  15.359  21.470  0.00  0.00    +0.000 C 
ENDBRANCH  22  27
BRANCH  26  29
ATOM     29  O   UNL     1      -3.448  12.155  23.645  0.00  0.00    +0.000 OA
ATOM     30  C   UNL     1      -4.517  12.072  24.586  0.00  0.00    +0.000 C 
ENDBRANCH  26  29
ENDBRANCH   6  21
TORSDOF 7
ENDMDL
MODEL 5
REMARK VINA RESULT:      -7.1      3.070     10.310
REMARK  Name = 
REMARK  11 active torsions:
REMARK  status: ('A' for Active; 'I' for Inactive)
REMARK    1  A    between atoms: C_1  and  C_2
REMARK    2  A    between atoms: C_2  and  N_3
REMARK    3  A    between atoms: N_3  and  C_4
REMARK    4  A    between atoms: N_3  and  C_6
REMARK    5  A    between atoms: C_4  and  C_5
REMARK    6  A    between atoms: C_9  and  C_10
REMARK    7  A    between atoms: C_15  and  C_17
REMARK    8  A    between atoms: C_18  and  O_19
REMARK    9  A    between atoms: O_19  and  C_20
REMARK   10  A    between atoms: C_24  and  O_25
REMARK   11  A    between atoms: O_25  and  C_26
REMARK                            x       y       z     vdW  Elec       q    Type
REMARK                         _______ _______ _______ _____ _____    ______ ____
ROOT
ATOM      1  C   UNL     1       0.312  10.551  19.910  0.00  0.00    +0.000 A 
ATOM      2  N   UNL     1       0.649  10.988  18.711  0.00  0.00    +0.000 NA
ATOM      3  N   UNL     1       1.401  10.062  18.014  0.00  0.00    +0.000 NA
ATOM      4  C   UNL     1       1.621   8.975  18.719  0.00  0.00    +0.000 A 
ATOM      5  N   UNL     1       2.296   7.893  18.216  0.00  0.00    +0.000 N 
ATOM      6  C   UNL     1       2.742   6.787  18.907  0.00  0.00    +0.000 C 
ATOM      7  O   UNL     1       2.713   6.658  20.127  0.00  0.00    +0.000 OA
ATOM      8  S   UNL     1       0.907   8.978  20.260  0.00  0.00    +0.000 S 
ATOM      9  H   UNL     1       2.577   8.003  17.250  0.00  0.00    +0.000 HD
ENDROOT
BRANCH   1  13
ATOM     10  C   UNL     1      -2.222  12.631  22.761  0.00  0.00    +0.000 A 
ATOM     11  C   UNL     1      -1.448  11.512  23.106  0.00  0.00    +0.000 A 
ATOM     12  C   UNL     1      -0.643  10.840  22.174  0.00  0.00    +0.000 A 
ATOM     13  C   UNL     1      -0.553  11.274  20.851  0.00  0.00    +0.000 A 
ATOM     14  C   UNL     1      -1.301  12.394  20.486  0.00  0.00    +0.000 A 
ATOM     15  C   UNL     1      -2.110  13.052  21.423  0.00  0.00    +0.000 A 
BRANCH  10  16
ATOM     16  N   UNL     1      -3.070  13.276  23.675  0.00  0.00    +0.000 N 
BRANCH  16  18
ATOM     17  C   UNL     1      -5.500  12.891  23.950  0.00  0.00    +0.000 C 
ATOM     18  C   UNL     1      -4.092  12.513  24.401  0.00  0.00    +0.000 C 
ENDBRANCH  16  18
BRANCH  16  19
ATOM     19  C   UNL     1      -2.769  14.678  24.014  0.00  0.00    +0.000 C 
ATOM     20  C   UNL     1      -1.384  14.988  24.553  0.00  0.00    +0.000 C 
ENDBRANCH  16  19
ENDBRANCH  10  16
ENDBRANCH   1  13
BRANCH   6  21
ATOM     21  C   UNL     1       3.334   5.693  18.048  0.00  0.00    +0.000 A 
ATOM     22  C   UNL     1       4.494   5.924  17.268  0.00  0.00    +0.000 A 
ATOM     23  C   UNL     1       4.999   4.902  16.461  0.00  0.00    +0.000 A 
ATOM     24  C   UNL     1       4.365   3.670  16.384  0.00  0.00    +0.000 A 
ATOM     25  C   UNL     1       3.229   3.432  17.145  0.00  0.00    +0.000 A 
ATOM     26  C   UNL     1       2.711   4.418  17.995  0.00  0.00    +0.000 A 
BRANCH  22  27
ATOM     27  O   UNL     1       5.111   7.151  17.352  0.00  0.00    +0.000 OA
ATOM     28  C   UNL     1       6.537   7.152  17.292  0.00  0.00    +0.000 C 
ENDBRANCH  22  27
BRANCH  26  29
ATOM     29  O   UNL     1       1.559   4.205  18.713  0.00  0.00    +0.000 OA
ATOM     30  C   UNL     1       1.022   2.884  18.685  0.00  0.00    +0.000 C 
ENDBRANCH  26  29
ENDBRANCH   6  21
TORSDOF 7
ENDMDL
MODEL 6
REMARK VINA RESULT:      -7.1      2.201      3.520
REMARK  Name = 
REMARK  11 active torsions:
REMARK  status: ('A' for Active; 'I' for Inactive)
REMARK    1  A    between atoms: C_1  and  C_2
REMARK    2  A    between atoms: C_2  and  N_3
REMARK    3  A    between atoms: N_3  and  C_4
REMARK    4  A    between atoms: N_3  and  C_6
REMARK    5  A    between atoms: C_4  and  C_5
REMARK    6  A    between atoms: C_9  and  C_10
REMARK    7  A    between atoms: C_15  and  C_17
REMARK    8  A    between atoms: C_18  and  O_19
REMARK    9  A    between atoms: O_19  and  C_20
REMARK   10  A    between atoms: C_24  and  O_25
REMARK   11  A    between atoms: O_25  and  C_26
REMARK                            x       y       z     vdW  Elec       q    Type
REMARK                         _______ _______ _______ _____ _____    ______ ____
ROOT
ATOM      1  C   UNL     1       0.444   9.702  21.377  0.00  0.00    +0.000 A 
ATOM      2  N   UNL     1       0.575   9.690  22.690  0.00  0.00    +0.000 NA
ATOM      3  N   UNL     1      -0.297  10.566  23.307  0.00  0.00    +0.000 NA
ATOM      4  C   UNL     1      -1.033  11.222  22.437  0.00  0.00    +0.000 A 
ATOM      5  N   UNL     1      -2.011  12.106  22.815  0.00  0.00    +0.000 N 
ATOM      6  C   UNL     1      -2.712  12.976  22.007  0.00  0.00    +0.000 C 
ATOM      7  O   UNL     1      -2.475  13.185  20.822  0.00  0.00    +0.000 OA
ATOM      8  S   UNL     1      -0.751  10.800  20.816  0.00  0.00    +0.000 S 
ATOM      9  H   UNL     1      -2.127  12.179  23.817  0.00  0.00    +0.000 HD
ENDROOT
BRANCH   1  13
ATOM     10  C   UNL     1       2.609   7.030  18.721  0.00  0.00    +0.000 A 
ATOM     11  C   UNL     1       2.276   6.686  20.041  0.00  0.00    +0.000 A 
ATOM     12  C   UNL     1       1.588   7.563  20.894  0.00  0.00    +0.000 A 
ATOM     13  C   UNL     1       1.174   8.821  20.456  0.00  0.00    +0.000 A 
ATOM     14  C   UNL     1       1.480   9.181  19.143  0.00  0.00    +0.000 A 
ATOM     15  C   UNL     1       2.176   8.303  18.302  0.00  0.00    +0.000 A 
BRANCH  10  16
ATOM     16  N   UNL     1       3.343   6.180  17.880  0.00  0.00    +0.000 N 
BRANCH  16  18
ATOM     17  C   UNL     1       5.292   5.662  16.443  0.00  0.00    +0.000 C 
ATOM     18  C   UNL     1       4.330   6.735  16.945  0.00  0.00    +0.000 C 
ENDBRANCH  16  18
BRANCH  16  19
ATOM     19  C   UNL     1       3.228   4.728  18.106  0.00  0.00    +0.000 C 
ATOM     20  C   UNL     1       2.014   4.023  17.528  0.00  0.00    +0.000 C 
ENDBRANCH  16  19
ENDBRANCH  10  16
ENDBRANCH   1  13
BRANCH   6  21
ATOM     21  C   UNL     1      -3.827  13.728  22.697  0.00  0.00    +0.000 A 
ATOM     22  C   UNL     1      -5.183  13.364  22.505  0.00  0.00    +0.000 A 
ATOM     23  C   UNL     1      -6.192  14.098  23.132  0.00  0.00    +0.000 A 
ATOM     24  C   UNL     1      -5.892  15.201  23.919  0.00  0.00    +0.000 A 
ATOM     25  C   UNL     1      -4.567  15.566  24.116  0.00  0.00    +0.000 A 
ATOM     26  C   UNL     1      -3.524  14.834  23.534  0.00  0.00    +0.000 A 
BRANCH  22  27
ATOM     27  O   UNL     1      -5.466  12.270  21.720  0.00  0.00    +0.000 OA
ATOM     28  C   UNL     1      -6.795  12.181  21.206  0.00  0.00    +0.000 C 
ENDBRANCH  22  27
BRANCH  26  29
ATOM     29  O   UNL     1      -2.214  15.220  23.685  0.00  0.00    +0.000 OA
ATOM     30  C   UNL     1      -1.716  15.286  25.020  0.00  0.00    +0.000 C 
ENDBRANCH  26  29
ENDBRANCH   6  21
TORSDOF 7
ENDMDL
MODEL 7
REMARK VINA RESULT:      -7.1      3.075     10.548
REMARK  Name = 
REMARK  11 active torsions:
REMARK  status: ('A' for Active; 'I' for Inactive)
REMARK    1  A    between atoms: C_1  and  C_2
REMARK    2  A    between atoms: C_2  and  N_3
REMARK    3  A    between atoms: N_3  and  C_4
REMARK    4  A    between atoms: N_3  and  C_6
REMARK    5  A    between atoms: C_4  and  C_5
REMARK    6  A    between atoms: C_9  and  C_10
REMARK    7  A    between atoms: C_15  and  C_17
REMARK    8  A    between atoms: C_18  and  O_19
REMARK    9  A    between atoms: O_19  and  C_20
REMARK   10  A    between atoms: C_24  and  O_25
REMARK   11  A    between atoms: O_25  and  C_26
REMARK                            x       y       z     vdW  Elec       q    Type
REMARK                         _______ _______ _______ _____ _____    ______ ____
ROOT
ATOM      1  C   UNL     1       0.399  10.686  19.828  0.00  0.00    +0.000 A 
ATOM      2  N   UNL     1       0.833  11.126  18.662  0.00  0.00    +0.000 NA
ATOM      3  N   UNL     1       1.564  10.169  17.985  0.00  0.00    +0.000 NA
ATOM      4  C   UNL     1       1.673   9.055  18.674  0.00  0.00    +0.000 A 
ATOM      5  N   UNL     1       2.306   7.942  18.183  0.00  0.00    +0.000 N 
ATOM      6  C   UNL     1       2.639   6.794  18.871  0.00  0.00    +0.000 C 
ATOM      7  O   UNL     1       2.530   6.642  20.084  0.00  0.00    +0.000 OA
ATOM      8  S   UNL     1       0.871   9.071  20.171  0.00  0.00    +0.000 S 
ATOM      9  H   UNL     1       2.650   8.054  17.238  0.00  0.00    +0.000 HD
ENDROOT
BRANCH   1  13
ATOM     10  C   UNL     1      -2.214  12.973  22.439  0.00  0.00    +0.000 A 
ATOM     11  C   UNL     1      -2.226  13.109  21.042  0.00  0.00    +0.000 A 
ATOM     12  C   UNL     1      -1.368  12.374  20.210  0.00  0.00    +0.000 A 
ATOM     13  C   UNL     1      -0.472  11.444  20.736  0.00  0.00    +0.000 A 
ATOM     14  C   UNL     1      -0.451  11.280  22.121  0.00  0.00    +0.000 A 
ATOM     15  C   UNL     1      -1.304  12.025  22.945  0.00  0.00    +0.000 A 
BRANCH  10  16
ATOM     16  N   UNL     1      -3.031  13.742  23.282  0.00  0.00    +0.000 N 
BRANCH  16  18
ATOM     17  C   UNL     1      -2.141  15.100  25.151  0.00  0.00    +0.000 C 
ATOM     18  C   UNL     1      -2.609  15.085  23.699  0.00  0.00    +0.000 C 
ENDBRANCH  16  18
BRANCH  16  19
ATOM     19  C   UNL     1      -4.388  13.239  23.564  0.00  0.00    +0.000 C 
ATOM     20  C   UNL     1      -4.568  12.361  24.790  0.00  0.00    +0.000 C 
ENDBRANCH  16  19
ENDBRANCH  10  16
ENDBRANCH   1  13
BRANCH   6  21
ATOM     21  C   UNL     1       3.209   5.683  18.020  0.00  0.00    +0.000 A 
ATOM     22  C   UNL     1       2.579   4.416  17.954  0.00  0.00    +0.000 A 
ATOM     23  C   UNL     1       3.147   3.400  17.182  0.00  0.00    +0.000 A 
ATOM     24  C   UNL     1       4.340   3.599  16.501  0.00  0.00    +0.000 A 
ATOM     25  C   UNL     1       4.966   4.837  16.558  0.00  0.00    +0.000 A 
ATOM     26  C   UNL     1       4.409   5.893  17.291  0.00  0.00    +0.000 A 
BRANCH  22  27
ATOM     27  O   UNL     1       1.398   4.231  18.635  0.00  0.00    +0.000 OA
ATOM     28  C   UNL     1       1.041   2.883  18.939  0.00  0.00    +0.000 C 
ENDBRANCH  22  27
BRANCH  26  29
ATOM     29  O   UNL     1       5.050   7.105  17.391  0.00  0.00    +0.000 OA
ATOM     30  C   UNL     1       6.472   7.089  17.279  0.00  0.00    +0.000 C 
ENDBRANCH  26  29
ENDBRANCH   6  21
TORSDOF 7
ENDMDL
MODEL 8
REMARK VINA RESULT:      -7.1      0.450      2.657
REMARK  Name = 
REMARK  11 active torsions:
REMARK  status: ('A' for Active; 'I' for Inactive)
REMARK    1  A    between atoms: C_1  and  C_2
REMARK    2  A    between atoms: C_2  and  N_3
REMARK    3  A    between atoms: N_3  and  C_4
REMARK    4  A    between atoms: N_3  and  C_6
REMARK    5  A    between atoms: C_4  and  C_5
REMARK    6  A    between atoms: C_9  and  C_10
REMARK    7  A    between atoms: C_15  and  C_17
REMARK    8  A    between atoms: C_18  and  O_19
REMARK    9  A    between atoms: O_19  and  C_20
REMARK   10  A    between atoms: C_24  and  O_25
REMARK   11  A    between atoms: O_25  and  C_26
REMARK                            x       y       z     vdW  Elec       q    Type
REMARK                         _______ _______ _______ _____ _____    ______ ____
ROOT
ATOM      1  C   UNL     1       1.031   9.448  19.405  0.00  0.00    +0.000 A 
ATOM      2  N   UNL     1       0.490  10.259  18.514  0.00  0.00    +0.000 NA
ATOM      3  N   UNL     1      -0.215  11.287  19.109  0.00  0.00    +0.000 NA
ATOM      4  C   UNL     1      -0.197  11.202  20.421  0.00  0.00    +0.000 A 
ATOM      5  N   UNL     1      -0.780  12.143  21.229  0.00  0.00    +0.000 N 
ATOM      6  C   UNL     1      -0.983  12.069  22.591  0.00  0.00    +0.000 C 
ATOM      7  O   UNL     1      -0.783  11.075  23.282  0.00  0.00    +0.000 OA
ATOM      8  S   UNL     1       0.700   9.895  21.030  0.00  0.00    +0.000 S 
ATOM      9  H   UNL     1      -1.194  12.915  20.722  0.00  0.00    +0.000 HD
ENDROOT
BRANCH   1  13
ATOM     10  C   UNL     1       3.587   6.047  18.524  0.00  0.00    +0.000 A 
ATOM     11  C   UNL     1       2.778   6.115  19.669  0.00  0.00    +0.000 A 
ATOM     12  C   UNL     1       1.966   7.224  19.950  0.00  0.00    +0.000 A 
ATOM     13  C   UNL     1       1.904   8.313  19.080  0.00  0.00    +0.000 A 
ATOM     14  C   UNL     1       2.688   8.263  17.927  0.00  0.00    +0.000 A 
ATOM     15  C   UNL     1       3.503   7.155  17.660  0.00  0.00    +0.000 A 
BRANCH  10  16
ATOM     16  N   UNL     1       4.441   4.965  18.263  0.00  0.00    +0.000 N 
BRANCH  16  18
ATOM     17  C   UNL     1       6.769   5.698  18.681  0.00  0.00    +0.000 C 
ATOM     18  C   UNL     1       5.640   4.753  19.083  0.00  0.00    +0.000 C 
ENDBRANCH  16  18
BRANCH  16  19
ATOM     19  C   UNL     1       3.992   3.959  17.283  0.00  0.00    +0.000 C 
ATOM     20  C   UNL     1       3.677   2.568  17.801  0.00  0.00    +0.000 C 
ENDBRANCH  16  19
ENDBRANCH  10  16
ENDBRANCH   1  13
BRANCH   6  21
ATOM     21  C   UNL     1      -1.529  13.328  23.224  0.00  0.00    +0.000 A 
ATOM     22  C   UNL     1      -2.839  13.368  23.762  0.00  0.00    +0.000 A 
ATOM     23  C   UNL     1      -3.325  14.556  24.313  0.00  0.00    +0.000 A 
ATOM     24  C   UNL     1      -2.557  15.712  24.315  0.00  0.00    +0.000 A 
ATOM     25  C   UNL     1      -1.271  15.684  23.794  0.00  0.00    +0.000 A 
ATOM     26  C   UNL     1      -0.733  14.504  23.264  0.00  0.00    +0.000 A 
BRANCH  22  27
ATOM     27  O   UNL     1      -3.591  12.216  23.750  0.00  0.00    +0.000 OA
ATOM     28  C   UNL     1      -4.693  12.164  24.657  0.00  0.00    +0.000 C 
ENDBRANCH  22  27
BRANCH  26  29
ATOM     29  O   UNL     1       0.520  14.483  22.702  0.00  0.00    +0.000 OA
ATOM     30  C   UNL     1       0.788  15.461  21.698  0.00  0.00    +0.000 C 
ENDBRANCH  26  29
ENDBRANCH   6  21
TORSDOF 7
ENDMDL
MODEL 9
REMARK VINA RESULT:      -7.0      0.721      1.344
REMARK  Name = 
REMARK  11 active torsions:
REMARK  status: ('A' for Active; 'I' for Inactive)
REMARK    1  A    between atoms: C_1  and  C_2
REMARK    2  A    between atoms: C_2  and  N_3
REMARK    3  A    between atoms: N_3  and  C_4
REMARK    4  A    between atoms: N_3  and  C_6
REMARK    5  A    between atoms: C_4  and  C_5
REMARK    6  A    between atoms: C_9  and  C_10
REMARK    7  A    between atoms: C_15  and  C_17
REMARK    8  A    between atoms: C_18  and  O_19
REMARK    9  A    between atoms: O_19  and  C_20
REMARK   10  A    between atoms: C_24  and  O_25
REMARK   11  A    between atoms: O_25  and  C_26
REMARK                            x       y       z     vdW  Elec       q    Type
REMARK                         _______ _______ _______ _____ _____    ______ ____
ROOT
ATOM      1  C   UNL     1       1.150   9.242  19.388  0.00  0.00    +0.000 A 
ATOM      2  N   UNL     1       0.603  10.020  18.472  0.00  0.00    +0.000 NA
ATOM      3  N   UNL     1      -0.070  11.088  19.032  0.00  0.00    +0.000 NA
ATOM      4  C   UNL     1      -0.025  11.065  20.345  0.00  0.00    +0.000 A 
ATOM      5  N   UNL     1      -0.574  12.054  21.120  0.00  0.00    +0.000 N 
ATOM      6  C   UNL     1      -0.748  12.048  22.488  0.00  0.00    +0.000 C 
ATOM      7  O   UNL     1      -0.550  11.083  23.221  0.00  0.00    +0.000 OA
ATOM      8  S   UNL     1       0.862   9.772  20.997  0.00  0.00    +0.000 S 
ATOM      9  H   UNL     1      -0.985  12.808  20.586  0.00  0.00    +0.000 HD
ENDROOT
BRANCH   1  13
ATOM     10  C   UNL     1       3.625   5.756  18.616  0.00  0.00    +0.000 A 
ATOM     11  C   UNL     1       2.839   5.890  19.771  0.00  0.00    +0.000 A 
ATOM     12  C   UNL     1       2.053   7.027  20.016  0.00  0.00    +0.000 A 
ATOM     13  C   UNL     1       1.995   8.077  19.100  0.00  0.00    +0.000 A 
ATOM     14  C   UNL     1       2.757   7.961  17.936  0.00  0.00    +0.000 A 
ATOM     15  C   UNL     1       3.546   6.827  17.705  0.00  0.00    +0.000 A 
BRANCH  10  16
ATOM     16  N   UNL     1       4.454   4.647  18.389  0.00  0.00    +0.000 N 
BRANCH  16  18
ATOM     17  C   UNL     1       6.595   5.451  19.341  0.00  0.00    +0.000 C 
ATOM     18  C   UNL     1       5.888   4.834  18.137  0.00  0.00    +0.000 C 
ENDBRANCH  16  18
BRANCH  16  19
ATOM     19  C   UNL     1       3.879   3.308  18.606  0.00  0.00    +0.000 C 
ATOM     20  C   UNL     1       4.346   2.532  19.824  0.00  0.00    +0.000 C 
ENDBRANCH  16  19
ENDBRANCH  10  16
ENDBRANCH   1  13
BRANCH   6  21
ATOM     21  C   UNL     1      -1.257  13.345  23.072  0.00  0.00    +0.000 A 
ATOM     22  C   UNL     1      -0.460  14.517  23.055  0.00  0.00    +0.000 A 
ATOM     23  C   UNL     1      -0.947  15.693  23.630  0.00  0.00    +0.000 A 
ATOM     24  C   UNL     1      -2.189  15.728  24.248  0.00  0.00    +0.000 A 
ATOM     25  C   UNL     1      -2.979  14.587  24.268  0.00  0.00    +0.000 A 
ATOM     26  C   UNL     1      -2.543  13.397  23.672  0.00  0.00    +0.000 A 
BRANCH  22  27
ATOM     27  O   UNL     1       0.771  14.468  22.441  0.00  0.00    +0.000 OA
ATOM     28  C   UNL     1       1.005  15.422  21.405  0.00  0.00    +0.000 C 
ENDBRANCH  22  27
BRANCH  26  29
ATOM     29  O   UNL     1      -3.299  12.252  23.733  0.00  0.00    +0.000 OA
ATOM     30  C   UNL     1      -4.451  12.289  24.574  0.00  0.00    +0.000 C 
ENDBRANCH  26  29
ENDBRANCH   6  21
TORSDOF 7
ENDMDL
