MODEL 1
REMARK VINA RESULT:      -8.4      0.000      0.000
REMARK  Name = 
REMARK  5 active torsions:
REMARK  status: ('A' for Active; 'I' for Inactive)
REMARK    1  A    between atoms: C_1  and  N_2
REMARK    2  A    between atoms: N_7  and  S_8
REMARK    3  A    between atoms: S_8  and  C_11
REMARK    4  A    between atoms: C_21  and  C_22
REMARK    5  A    between atoms: C_25  and  N_26
REMARK                            x       y       z     vdW  Elec       q    Type
REMARK                         _______ _______ _______ _____ _____    ______ ____
ROOT
ATOM      1  C   UNL     1      -1.176   9.671  17.533  0.00  0.00    +0.000 C 
ATOM      2  N   UNL     1      -1.986  10.017  18.699  0.00  0.00    +0.000 NA
ATOM      3  O   UNL     1      -3.037  10.831  18.062  0.00  0.00    +0.000 OA
ATOM      4  C   UNL     1      -2.579  12.202  18.074  0.00  0.00    +0.000 C 
ATOM      5  C   UNL     1      -1.422  12.281  19.063  0.00  0.00    +0.000 C 
ATOM      6  C   UNL     1      -0.010  12.477  18.472  0.00  0.00    +0.000 C 
ATOM      7  N   UNL     1       1.107  12.218  19.470  0.00  0.00    +0.000 NA
ATOM      8  C   UNL     1       0.994  10.896  20.238  0.00  0.00    +0.000 C 
ATOM      9  C   UNL     1      -0.432  10.800  20.793  0.00  0.00    +0.000 C 
ATOM     10  C   UNL     1      -1.551  10.952  19.753  0.00  0.00    +0.000 C 
ENDROOT
BRANCH   8  11
ATOM     11  C   UNL     1       1.405   9.606  19.509  0.00  0.00    +0.000 A 
ATOM     12  C   UNL     1       1.410   8.351  20.117  0.00  0.00    +0.000 A 
ATOM     13  C   UNL     1       2.129   7.283  19.529  0.00  0.00    +0.000 A 
ATOM     14  C   UNL     1       2.846   7.421  18.323  0.00  0.00    +0.000 A 
ATOM     15  C   UNL     1       2.629   8.609  17.629  0.00  0.00    +0.000 A 
ATOM     16  C   UNL     1       1.895   9.661  18.187  0.00  0.00    +0.000 A 
BRANCH  14  17
ATOM     17  N   UNL     1       3.729   6.452  17.866  0.00  0.00    +0.000 N 
ATOM     18  C   UNL     1       4.678   6.724  16.777  0.00  0.00    +0.000 C 
ATOM     19  C   UNL     1       6.105   6.833  17.311  0.00  0.00    +0.000 C 
ATOM     20  C   UNL     1       6.486   5.547  18.036  0.00  0.00    +0.000 C 
ATOM     21  C   UNL     1       5.502   5.278  19.170  0.00  0.00    +0.000 C 
ATOM     22  C   UNL     1       4.037   5.282  18.705  0.00  0.00    +0.000 C 
ENDBRANCH  14  17
ENDBRANCH   8  11
BRANCH   7  23
ATOM     23  S   UNL     1       1.493  13.595  20.459  0.00  0.00    +0.000 S 
ATOM     24  O   UNL     1       0.243  14.111  20.991  0.00  0.00    +0.000 OA
ATOM     25  O   UNL     1       2.564  13.251  21.365  0.00  0.00    +0.000 OA
BRANCH  23  26
ATOM     26  C   UNL     1       2.136  14.823  19.315  0.00  0.00    +0.000 A 
ATOM     27  C   UNL     1       3.431  14.604  18.792  0.00  0.00    +0.000 A 
ATOM     28  C   UNL     1       3.956  15.449  17.820  0.00  0.00    +0.000 A 
ATOM     29  C   UNL     1       3.195  16.512  17.345  0.00  0.00    +0.000 A 
ATOM     30  C   UNL     1       1.891  16.731  17.811  0.00  0.00    +0.000 A 
ATOM     31  C   UNL     1       1.138  17.782  17.258  0.00  0.00    +0.000 A 
ATOM     32  C   UNL     1      -0.179  18.005  17.648  0.00  0.00    +0.000 A 
ATOM     33  C   UNL     1      -0.753  17.187  18.608  0.00  0.00    +0.000 A 
ATOM     34  C   UNL     1      -0.008  16.156  19.190  0.00  0.00    +0.000 A 
ATOM     35  C   UNL     1       1.321  15.885  18.811  0.00  0.00    +0.000 A 
ENDBRANCH  23  26
ENDBRANCH   7  23
TORSDOF 4
ENDMDL
MODEL 2
REMARK VINA RESULT:      -8.4      3.526      6.140
REMARK  Name = 
REMARK  5 active torsions:
REMARK  status: ('A' for Active; 'I' for Inactive)
REMARK    1  A    between atoms: C_1  and  N_2
REMARK    2  A    between atoms: N_7  and  S_8
REMARK    3  A    between atoms: S_8  and  C_11
REMARK    4  A    between atoms: C_21  and  C_22
REMARK    5  A    between atoms: C_25  and  N_26
REMARK                            x       y       z     vdW  Elec       q    Type
REMARK                         _______ _______ _______ _____ _____    ______ ____
ROOT
ATOM      1  C   UNL     1       2.189  12.941  19.706  0.00  0.00    +0.000 C 
ATOM      2  N   UNL     1       1.582  13.652  18.582  0.00  0.00    +0.000 NA
ATOM      3  O   UNL     1       1.860  15.047  18.967  0.00  0.00    +0.000 OA
ATOM      4  C   UNL     1       0.738  15.502  19.757  0.00  0.00    +0.000 C 
ATOM      5  C   UNL     1      -0.400  14.515  19.530  0.00  0.00    +0.000 C 
ATOM      6  C   UNL     1      -0.760  13.582  20.707  0.00  0.00    +0.000 C 
ATOM      7  N   UNL     1      -1.660  12.423  20.308  0.00  0.00    +0.000 NA
ATOM      8  C   UNL     1      -1.190  11.631  19.082  0.00  0.00    +0.000 C 
ATOM      9  C   UNL     1      -0.870  12.639  17.971  0.00  0.00    +0.000 C 
ATOM     10  C   UNL     1       0.128  13.740  18.355  0.00  0.00    +0.000 C 
ENDROOT
BRANCH   8  11
ATOM     11  C   UNL     1      -0.048  10.621  19.277  0.00  0.00    +0.000 A 
ATOM     12  C   UNL     1       0.716  10.118  18.223  0.00  0.00    +0.000 A 
ATOM     13  C   UNL     1       1.488   8.946  18.407  0.00  0.00    +0.000 A 
ATOM     14  C   UNL     1       1.538   8.252  19.634  0.00  0.00    +0.000 A 
ATOM     15  C   UNL     1       0.957   8.906  20.717  0.00  0.00    +0.000 A 
ATOM     16  C   UNL     1       0.216  10.082  20.553  0.00  0.00    +0.000 A 
BRANCH  14  17
ATOM     17  N   UNL     1       2.106   6.991  19.754  0.00  0.00    +0.000 N 
ATOM     18  C   UNL     1       1.731   6.076  20.841  0.00  0.00    +0.000 C 
ATOM     19  C   UNL     1       0.880   4.921  20.315  0.00  0.00    +0.000 C 
ATOM     20  C   UNL     1       1.642   4.169  19.229  0.00  0.00    +0.000 C 
ATOM     21  C   UNL     1       2.019   5.124  18.101  0.00  0.00    +0.000 C 
ATOM     22  C   UNL     1       2.771   6.369  18.597  0.00  0.00    +0.000 C 
ENDBRANCH  14  17
ENDBRANCH   8  11
BRANCH   7  23
ATOM     23  S   UNL     1      -3.353  12.823  20.303  0.00  0.00    +0.000 S 
ATOM     24  O   UNL     1      -3.461  14.246  20.027  0.00  0.00    +0.000 OA
ATOM     25  O   UNL     1      -4.066  11.881  19.473  0.00  0.00    +0.000 OA
BRANCH  23  26
ATOM     26  C   UNL     1      -3.897  12.562  21.995  0.00  0.00    +0.000 A 
ATOM     27  C   UNL     1      -2.897  12.342  22.970  0.00  0.00    +0.000 A 
ATOM     28  C   UNL     1      -3.228  12.238  24.317  0.00  0.00    +0.000 A 
ATOM     29  C   UNL     1      -4.555  12.368  24.713  0.00  0.00    +0.000 A 
ATOM     30  C   UNL     1      -5.565  12.630  23.777  0.00  0.00    +0.000 A 
ATOM     31  C   UNL     1      -6.884  12.813  24.232  0.00  0.00    +0.000 A 
ATOM     32  C   UNL     1      -7.911  13.129  23.348  0.00  0.00    +0.000 A 
ATOM     33  C   UNL     1      -7.633  13.251  21.995  0.00  0.00    +0.000 A 
ATOM     34  C   UNL     1      -6.334  13.042  21.523  0.00  0.00    +0.000 A 
ATOM     35  C   UNL     1      -5.262  12.739  22.385  0.00  0.00    +0.000 A 
ENDBRANCH  23  26
ENDBRANCH   7  23
TORSDOF 4
ENDMDL
MODEL 3
REMARK VINA RESULT:      -8.3      0.581      1.790
REMARK  Name = 
REMARK  5 active torsions:
REMARK  status: ('A' for Active; 'I' for Inactive)
REMARK    1  A    between atoms: C_1  and  N_2
REMARK    2  A    between atoms: N_7  and  S_8
REMARK    3  A    between atoms: S_8  and  C_11
REMARK    4  A    between atoms: C_21  and  C_22
REMARK    5  A    between atoms: C_25  and  N_26
REMARK                            x       y       z     vdW  Elec       q    Type
REMARK                         _______ _______ _______ _____ _____    ______ ____
ROOT
ATOM      1  C   UNL     1      -1.052   9.605  17.460  0.00  0.00    +0.000 C 
ATOM      2  N   UNL     1      -1.952   9.879  18.579  0.00  0.00    +0.000 NA
ATOM      3  O   UNL     1      -2.950  10.737  17.915  0.00  0.00    +0.000 OA
ATOM      4  C   UNL     1      -2.495  12.102  18.053  0.00  0.00    +0.000 C 
ATOM      5  C   UNL     1      -1.420  12.111  19.133  0.00  0.00    +0.000 C 
ATOM      6  C   UNL     1       0.034  12.339  18.670  0.00  0.00    +0.000 C 
ATOM      7  N   UNL     1       1.069  12.009  19.734  0.00  0.00    +0.000 NA
ATOM      8  C   UNL     1       0.896  10.641  20.402  0.00  0.00    +0.000 C 
ATOM      9  C   UNL     1      -0.569  10.515  20.836  0.00  0.00    +0.000 C 
ATOM     10  C   UNL     1      -1.602  10.740  19.723  0.00  0.00    +0.000 C 
ENDROOT
BRANCH   8  11
ATOM     11  C   UNL     1       1.364   9.400  19.625  0.00  0.00    +0.000 A 
ATOM     12  C   UNL     1       1.438   8.126  20.190  0.00  0.00    +0.000 A 
ATOM     13  C   UNL     1       2.204   7.116  19.559  0.00  0.00    +0.000 A 
ATOM     14  C   UNL     1       2.901   7.333  18.352  0.00  0.00    +0.000 A 
ATOM     15  C   UNL     1       2.618   8.531  17.701  0.00  0.00    +0.000 A 
ATOM     16  C   UNL     1       1.837   9.525  18.302  0.00  0.00    +0.000 A 
BRANCH  14  17
ATOM     17  N   UNL     1       3.827   6.426  17.854  0.00  0.00    +0.000 N 
ATOM     18  C   UNL     1       4.747   6.781  16.765  0.00  0.00    +0.000 C 
ATOM     19  C   UNL     1       6.173   6.948  17.286  0.00  0.00    +0.000 C 
ATOM     20  C   UNL     1       6.630   5.661  17.965  0.00  0.00    +0.000 C 
ATOM     21  C   UNL     1       5.674   5.304  19.100  0.00  0.00    +0.000 C 
ATOM     22  C   UNL     1       4.206   5.247  18.650  0.00  0.00    +0.000 C 
ENDBRANCH  14  17
ENDBRANCH   8  11
BRANCH   7  23
ATOM     23  S   UNL     1       1.374  13.317  20.839  0.00  0.00    +0.000 S 
ATOM     24  O   UNL     1       0.475  13.150  21.968  0.00  0.00    +0.000 OA
ATOM     25  O   UNL     1       2.795  13.428  21.071  0.00  0.00    +0.000 OA
BRANCH  23  26
ATOM     26  C   UNL     1       0.860  14.798  19.958  0.00  0.00    +0.000 A 
ATOM     27  C   UNL     1      -0.302  15.455  20.422  0.00  0.00    +0.000 A 
ATOM     28  C   UNL     1      -0.704  16.664  19.864  0.00  0.00    +0.000 A 
ATOM     29  C   UNL     1       0.053  17.242  18.850  0.00  0.00    +0.000 A 
ATOM     30  C   UNL     1       1.234  16.638  18.397  0.00  0.00    +0.000 A 
ATOM     31  C   UNL     1       1.997  17.289  17.411  0.00  0.00    +0.000 A 
ATOM     32  C   UNL     1       3.205  16.757  16.970  0.00  0.00    +0.000 A 
ATOM     33  C   UNL     1       3.655  15.557  17.499  0.00  0.00    +0.000 A 
ATOM     34  C   UNL     1       2.893  14.882  18.457  0.00  0.00    +0.000 A 
ATOM     35  C   UNL     1       1.675  15.394  18.945  0.00  0.00    +0.000 A 
ENDBRANCH  23  26
ENDBRANCH   7  23
TORSDOF 4
ENDMDL
MODEL 4
REMARK VINA RESULT:      -8.1      0.736      1.222
REMARK  Name = 
REMARK  5 active torsions:
REMARK  status: ('A' for Active; 'I' for Inactive)
REMARK    1  A    between atoms: C_1  and  N_2
REMARK    2  A    between atoms: N_7  and  S_8
REMARK    3  A    between atoms: S_8  and  C_11
REMARK    4  A    between atoms: C_21  and  C_22
REMARK    5  A    between atoms: C_25  and  N_26
REMARK                            x       y       z     vdW  Elec       q    Type
REMARK                         _______ _______ _______ _____ _____    ______ ____
ROOT
ATOM      1  C   UNL     1      -0.930   9.523  17.533  0.00  0.00    +0.000 C 
ATOM      2  N   UNL     1      -1.854  10.015  18.553  0.00  0.00    +0.000 NA
ATOM      3  O   UNL     1      -2.743  10.852  17.727  0.00  0.00    +0.000 OA
ATOM      4  C   UNL     1      -2.180  12.183  17.712  0.00  0.00    +0.000 C 
ATOM      5  C   UNL     1      -1.160  12.253  18.842  0.00  0.00    +0.000 C 
ATOM      6  C   UNL     1       0.329  12.301  18.437  0.00  0.00    +0.000 C 
ATOM      7  N   UNL     1       1.281  12.037  19.593  0.00  0.00    +0.000 NA
ATOM      8  C   UNL     1       0.961  10.789  20.423  0.00  0.00    +0.000 C 
ATOM      9  C   UNL     1      -0.529  10.838  20.784  0.00  0.00    +0.000 C 
ATOM     10  C   UNL     1      -1.486  10.992  19.594  0.00  0.00    +0.000 C 
ENDROOT
BRANCH   8  11
ATOM     11  C   UNL     1       1.357   9.422  19.842  0.00  0.00    +0.000 A 
ATOM     12  C   UNL     1       1.235   8.225  20.549  0.00  0.00    +0.000 A 
ATOM     13  C   UNL     1       1.938   7.075  20.119  0.00  0.00    +0.000 A 
ATOM     14  C   UNL     1       2.763   7.071  18.975  0.00  0.00    +0.000 A 
ATOM     15  C   UNL     1       2.678   8.204  18.169  0.00  0.00    +0.000 A 
ATOM     16  C   UNL     1       1.961   9.336  18.570  0.00  0.00    +0.000 A 
BRANCH  14  17
ATOM     17  N   UNL     1       3.624   6.022  18.681  0.00  0.00    +0.000 N 
ATOM     18  C   UNL     1       3.206   4.619  18.814  0.00  0.00    +0.000 C 
ATOM     19  C   UNL     1       3.010   3.975  17.443  0.00  0.00    +0.000 C 
ATOM     20  C   UNL     1       4.302   4.068  16.638  0.00  0.00    +0.000 C 
ATOM     21  C   UNL     1       4.724   5.528  16.497  0.00  0.00    +0.000 C 
ATOM     22  C   UNL     1       4.814   6.257  17.847  0.00  0.00    +0.000 C 
ENDBRANCH  14  17
ENDBRANCH   8  11
BRANCH   7  23
ATOM     23  S   UNL     1       1.645  13.454  20.534  0.00  0.00    +0.000 S 
ATOM     24  O   UNL     1       0.386  13.978  21.034  0.00  0.00    +0.000 OA
ATOM     25  O   UNL     1       2.710  13.153  21.462  0.00  0.00    +0.000 OA
BRANCH  23  26
ATOM     26  C   UNL     1       2.289  14.644  19.351  0.00  0.00    +0.000 A 
ATOM     27  C   UNL     1       3.559  14.376  18.789  0.00  0.00    +0.000 A 
ATOM     28  C   UNL     1       4.078  15.190  17.788  0.00  0.00    +0.000 A 
ATOM     29  C   UNL     1       3.336  16.270  17.322  0.00  0.00    +0.000 A 
ATOM     30  C   UNL     1       2.056  16.537  17.827  0.00  0.00    +0.000 A 
ATOM     31  C   UNL     1       1.319  17.605  17.283  0.00  0.00    +0.000 A 
ATOM     32  C   UNL     1       0.023  17.875  17.711  0.00  0.00    +0.000 A 
ATOM     33  C   UNL     1      -0.545  17.090  18.702  0.00  0.00    +0.000 A 
ATOM     34  C   UNL     1       0.186  16.044  19.275  0.00  0.00    +0.000 A 
ATOM     35  C   UNL     1       1.492  15.725  18.858  0.00  0.00    +0.000 A 
ENDBRANCH  23  26
ENDBRANCH   7  23
TORSDOF 4
ENDMDL
MODEL 5
REMARK VINA RESULT:      -7.9      0.875      2.151
REMARK  Name = 
REMARK  5 active torsions:
REMARK  status: ('A' for Active; 'I' for Inactive)
REMARK    1  A    between atoms: C_1  and  N_2
REMARK    2  A    between atoms: N_7  and  S_8
REMARK    3  A    between atoms: S_8  and  C_11
REMARK    4  A    between atoms: C_21  and  C_22
REMARK    5  A    between atoms: C_25  and  N_26
REMARK                            x       y       z     vdW  Elec       q    Type
REMARK                         _______ _______ _______ _____ _____    ______ ____
ROOT
ATOM      1  C   UNL     1      -0.779   9.398  17.285  0.00  0.00    +0.000 C 
ATOM      2  N   UNL     1      -1.785   9.669  18.310  0.00  0.00    +0.000 NA
ATOM      3  O   UNL     1      -2.725  10.507  17.546  0.00  0.00    +0.000 OA
ATOM      4  C   UNL     1      -2.303  11.880  17.712  0.00  0.00    +0.000 C 
ATOM      5  C   UNL     1      -1.336  11.914  18.889  0.00  0.00    +0.000 C 
ATOM      6  C   UNL     1       0.153  12.157  18.562  0.00  0.00    +0.000 C 
ATOM      7  N   UNL     1       1.086  11.852  19.723  0.00  0.00    +0.000 NA
ATOM      8  C   UNL     1       0.868  10.488  20.387  0.00  0.00    +0.000 C 
ATOM      9  C   UNL     1      -0.630  10.346  20.681  0.00  0.00    +0.000 C 
ATOM     10  C   UNL     1      -1.555  10.546  19.473  0.00  0.00    +0.000 C 
ENDROOT
BRANCH   8  11
ATOM     11  C   UNL     1       1.424   9.246  19.671  0.00  0.00    +0.000 A 
ATOM     12  C   UNL     1       1.422   7.971  20.237  0.00  0.00    +0.000 A 
ATOM     13  C   UNL     1       2.255   6.959  19.704  0.00  0.00    +0.000 A 
ATOM     14  C   UNL     1       3.098   7.174  18.594  0.00  0.00    +0.000 A 
ATOM     15  C   UNL     1       2.903   8.375  17.916  0.00  0.00    +0.000 A 
ATOM     16  C   UNL     1       2.058   9.371  18.417  0.00  0.00    +0.000 A 
BRANCH  14  17
ATOM     17  N   UNL     1       4.075   6.264  18.213  0.00  0.00    +0.000 N 
ATOM     18  C   UNL     1       3.891   4.816  18.386  0.00  0.00    +0.000 C 
ATOM     19  C   UNL     1       3.658   4.129  17.042  0.00  0.00    +0.000 C 
ATOM     20  C   UNL     1       4.833   4.405  16.109  0.00  0.00    +0.000 C 
ATOM     21  C   UNL     1       5.010   5.910  15.927  0.00  0.00    +0.000 C 
ATOM     22  C   UNL     1       5.124   6.664  17.261  0.00  0.00    +0.000 C 
ENDBRANCH  14  17
ENDBRANCH   8  11
BRANCH   7  23
ATOM     23  S   UNL     1       1.269  13.175  20.837  0.00  0.00    +0.000 S 
ATOM     24  O   UNL     1       0.298  12.983  21.902  0.00  0.00    +0.000 OA
ATOM     25  O   UNL     1       2.665  13.334  21.169  0.00  0.00    +0.000 OA
BRANCH  23  26
ATOM     26  C   UNL     1       0.770  14.633  19.913  0.00  0.00    +0.000 A 
ATOM     27  C   UNL     1      -0.448  15.247  20.281  0.00  0.00    +0.000 A 
ATOM     28  C   UNL     1      -0.850  16.439  19.688  0.00  0.00    +0.000 A 
ATOM     29  C   UNL     1      -0.040  17.043  18.732  0.00  0.00    +0.000 A 
ATOM     30  C   UNL     1       1.195  16.483  18.376  0.00  0.00    +0.000 A 
ATOM     31  C   UNL     1       2.007  17.160  17.449  0.00  0.00    +0.000 A 
ATOM     32  C   UNL     1       3.265  16.673  17.105  0.00  0.00    +0.000 A 
ATOM     33  C   UNL     1       3.717  15.492  17.674  0.00  0.00    +0.000 A 
ATOM     34  C   UNL     1       2.908  14.790  18.573  0.00  0.00    +0.000 A 
ATOM     35  C   UNL     1       1.638  15.258  18.962  0.00  0.00    +0.000 A 
ENDBRANCH  23  26
ENDBRANCH   7  23
TORSDOF 4
ENDMDL
MODEL 6
REMARK VINA RESULT:      -7.9      2.889      9.043
REMARK  Name = 
REMARK  5 active torsions:
REMARK  status: ('A' for Active; 'I' for Inactive)
REMARK    1  A    between atoms: C_1  and  N_2
REMARK    2  A    between atoms: N_7  and  S_8
REMARK    3  A    between atoms: S_8  and  C_11
REMARK    4  A    between atoms: C_21  and  C_22
REMARK    5  A    between atoms: C_25  and  N_26
REMARK                            x       y       z     vdW  Elec       q    Type
REMARK                         _______ _______ _______ _____ _____    ______ ____
ROOT
ATOM      1  C   UNL     1      -0.349  14.249  19.286  0.00  0.00    +0.000 C 
ATOM      2  N   UNL     1       0.197  14.324  20.640  0.00  0.00    +0.000 NA
ATOM      3  O   UNL     1       1.564  14.791  20.351  0.00  0.00    +0.000 OA
ATOM      4  C   UNL     1       2.386  13.615  20.173  0.00  0.00    +0.000 C 
ATOM      5  C   UNL     1       1.607  12.433  20.733  0.00  0.00    +0.000 C 
ATOM      6  C   UNL     1       1.043  11.421  19.712  0.00  0.00    +0.000 C 
ATOM      7  N   UNL     1       0.015  10.470  20.303  0.00  0.00    +0.000 NA
ATOM      8  C   UNL     1      -1.103  11.144  21.107  0.00  0.00    +0.000 C 
ATOM      9  C   UNL     1      -0.446  12.115  22.095  0.00  0.00    +0.000 C 
ATOM     10  C   UNL     1       0.505  13.144  21.468  0.00  0.00    +0.000 C 
ENDROOT
BRANCH   8  11
ATOM     11  C   UNL     1      -2.241  11.818  20.324  0.00  0.00    +0.000 A 
ATOM     12  C   UNL     1      -3.093  12.772  20.881  0.00  0.00    +0.000 A 
ATOM     13  C   UNL     1      -4.320  13.080  20.247  0.00  0.00    +0.000 A 
ATOM     14  C   UNL     1      -4.729  12.469  19.043  0.00  0.00    +0.000 A 
ATOM     15  C   UNL     1      -3.760  11.704  18.399  0.00  0.00    +0.000 A 
ATOM     16  C   UNL     1      -2.531  11.417  19.003  0.00  0.00    +0.000 A 
BRANCH  14  17
ATOM     17  N   UNL     1      -6.018  12.598  18.543  0.00  0.00    +0.000 N 
ATOM     18  C   UNL     1      -7.120  13.112  19.369  0.00  0.00    +0.000 C 
ATOM     19  C   UNL     1      -7.516  14.521  18.935  0.00  0.00    +0.000 C 
ATOM     20  C   UNL     1      -7.917  14.517  17.464  0.00  0.00    +0.000 C 
ATOM     21  C   UNL     1      -6.765  13.991  16.613  0.00  0.00    +0.000 C 
ATOM     22  C   UNL     1      -6.244  12.626  17.089  0.00  0.00    +0.000 C 
ENDBRANCH  14  17
ENDBRANCH   8  11
BRANCH   7  23
ATOM     23  S   UNL     1       0.716   9.076  21.073  0.00  0.00    +0.000 S 
ATOM     24  O   UNL     1       1.725   9.555  22.003  0.00  0.00    +0.000 OA
ATOM     25  O   UNL     1      -0.337   8.210  21.548  0.00  0.00    +0.000 OA
BRANCH  23  26
ATOM     26  C   UNL     1       1.573   8.202  19.757  0.00  0.00    +0.000 A 
ATOM     27  C   UNL     1       1.978   8.958  18.634  0.00  0.00    +0.000 A 
ATOM     28  C   UNL     1       2.739   8.379  17.624  0.00  0.00    +0.000 A 
ATOM     29  C   UNL     1       3.120   7.045  17.726  0.00  0.00    +0.000 A 
ATOM     30  C   UNL     1       2.772   6.279  18.847  0.00  0.00    +0.000 A 
ATOM     31  C   UNL     1       3.230   4.952  18.934  0.00  0.00    +0.000 A 
ATOM     32  C   UNL     1       2.958   4.169  20.051  0.00  0.00    +0.000 A 
ATOM     33  C   UNL     1       2.210   4.701  21.090  0.00  0.00    +0.000 A 
ATOM     34  C   UNL     1       1.720   6.008  21.005  0.00  0.00    +0.000 A 
ATOM     35  C   UNL     1       1.988   6.840  19.901  0.00  0.00    +0.000 A 
ENDBRANCH  23  26
ENDBRANCH   7  23
TORSDOF 4
ENDMDL
MODEL 7
REMARK VINA RESULT:      -7.7      4.775      7.684
REMARK  Name = 
REMARK  5 active torsions:
REMARK  status: ('A' for Active; 'I' for Inactive)
REMARK    1  A    between atoms: C_1  and  N_2
REMARK    2  A    between atoms: N_7  and  S_8
REMARK    3  A    between atoms: S_8  and  C_11
REMARK    4  A    between atoms: C_21  and  C_22
REMARK    5  A    between atoms: C_25  and  N_26
REMARK                            x       y       z     vdW  Elec       q    Type
REMARK                         _______ _______ _______ _____ _____    ______ ____
ROOT
ATOM      1  C   UNL     1       7.638  14.458  21.069  0.00  0.00    +0.000 C 
ATOM      2  N   UNL     1       7.580  15.851  21.507  0.00  0.00    +0.000 NA
ATOM      3  O   UNL     1       7.130  15.676  22.899  0.00  0.00    +0.000 OA
ATOM      4  C   UNL     1       5.684  15.705  22.885  0.00  0.00    +0.000 C 
ATOM      5  C   UNL     1       5.259  16.284  21.541  0.00  0.00    +0.000 C 
ATOM      6  C   UNL     1       4.621  15.307  20.531  0.00  0.00    +0.000 C 
ATOM      7  N   UNL     1       4.530  15.867  19.120  0.00  0.00    +0.000 NA
ATOM      8  C   UNL     1       5.831  16.471  18.578  0.00  0.00    +0.000 C 
ATOM      9  C   UNL     1       6.378  17.430  19.642  0.00  0.00    +0.000 C 
ATOM     10  C   UNL     1       6.571  16.818  21.037  0.00  0.00    +0.000 C 
ENDROOT
BRANCH   8  11
ATOM     11  C   UNL     1       6.915  15.503  18.077  0.00  0.00    +0.000 A 
ATOM     12  C   UNL     1       6.661  14.170  17.754  0.00  0.00    +0.000 A 
ATOM     13  C   UNL     1       7.732  13.250  17.654  0.00  0.00    +0.000 A 
ATOM     14  C   UNL     1       9.077  13.624  17.855  0.00  0.00    +0.000 A 
ATOM     15  C   UNL     1       9.313  14.994  17.943  0.00  0.00    +0.000 A 
ATOM     16  C   UNL     1       8.262  15.915  18.012  0.00  0.00    +0.000 A 
BRANCH  14  17
ATOM     17  N   UNL     1      10.098  12.691  17.981  0.00  0.00    +0.000 N 
ATOM     18  C   UNL     1      11.493  13.025  17.661  0.00  0.00    +0.000 C 
ATOM     19  C   UNL     1      12.333  13.142  18.931  0.00  0.00    +0.000 C 
ATOM     20  C   UNL     1      12.269  11.836  19.716  0.00  0.00    +0.000 C 
ATOM     21  C   UNL     1      10.819  11.502  20.052  0.00  0.00    +0.000 C 
ATOM     22  C   UNL     1       9.905  11.496  18.818  0.00  0.00    +0.000 C 
ENDBRANCH  14  17
ENDBRANCH   8  11
BRANCH   7  23
ATOM     23  S   UNL     1       3.115  16.840  18.846  0.00  0.00    +0.000 S 
ATOM     24  O   UNL     1       3.158  17.945  19.790  0.00  0.00    +0.000 OA
ATOM     25  O   UNL     1       2.988  17.116  17.434  0.00  0.00    +0.000 OA
BRANCH  23  26
ATOM     26  C   UNL     1       1.732  15.791  19.311  0.00  0.00    +0.000 A 
ATOM     27  C   UNL     1       0.601  16.424  19.874  0.00  0.00    +0.000 A 
ATOM     28  C   UNL     1      -0.550  15.696  20.161  0.00  0.00    +0.000 A 
ATOM     29  C   UNL     1      -0.595  14.335  19.877  0.00  0.00    +0.000 A 
ATOM     30  C   UNL     1       0.494  13.687  19.279  0.00  0.00    +0.000 A 
ATOM     31  C   UNL     1       0.380  12.322  18.957  0.00  0.00    +0.000 A 
ATOM     32  C   UNL     1       1.412  11.648  18.312  0.00  0.00    +0.000 A 
ATOM     33  C   UNL     1       2.579  12.328  17.996  0.00  0.00    +0.000 A 
ATOM     34  C   UNL     1       2.720  13.676  18.339  0.00  0.00    +0.000 A 
ATOM     35  C   UNL     1       1.693  14.401  18.974  0.00  0.00    +0.000 A 
ENDBRANCH  23  26
ENDBRANCH   7  23
TORSDOF 4
ENDMDL
MODEL 8
REMARK VINA RESULT:      -7.6      2.850      7.432
REMARK  Name = 
REMARK  5 active torsions:
REMARK  status: ('A' for Active; 'I' for Inactive)
REMARK    1  A    between atoms: C_1  and  N_2
REMARK    2  A    between atoms: N_7  and  S_8
REMARK    3  A    between atoms: S_8  and  C_11
REMARK    4  A    between atoms: C_21  and  C_22
REMARK    5  A    between atoms: C_25  and  N_26
REMARK                            x       y       z     vdW  Elec       q    Type
REMARK                         _______ _______ _______ _____ _____    ______ ____
ROOT
ATOM      1  C   UNL     1       1.859  17.211  21.453  0.00  0.00    +0.000 C 
ATOM      2  N   UNL     1       0.568  17.526  20.845  0.00  0.00    +0.000 NA
ATOM      3  O   UNL     1      -0.204  17.907  22.040  0.00  0.00    +0.000 OA
ATOM      4  C   UNL     1      -0.827  16.705  22.546  0.00  0.00    +0.000 C 
ATOM      5  C   UNL     1      -0.750  15.660  21.440  0.00  0.00    +0.000 C 
ATOM      6  C   UNL     1       0.231  14.487  21.654  0.00  0.00    +0.000 C 
ATOM      7  N   UNL     1       0.497  13.680  20.394  0.00  0.00    +0.000 NA
ATOM      8  C   UNL     1       0.871  14.511  19.160  0.00  0.00    +0.000 C 
ATOM      9  C   UNL     1      -0.162  15.637  19.026  0.00  0.00    +0.000 C 
ATOM     10  C   UNL     1      -0.339  16.514  20.273  0.00  0.00    +0.000 C 
ENDROOT
BRANCH   8  11
ATOM     11  C   UNL     1       2.308  15.048  19.068  0.00  0.00    +0.000 A 
ATOM     12  C   UNL     1       2.718  15.976  18.109  0.00  0.00    +0.000 A 
ATOM     13  C   UNL     1       4.097  16.153  17.842  0.00  0.00    +0.000 A 
ATOM     14  C   UNL     1       5.102  15.435  18.521  0.00  0.00    +0.000 A 
ATOM     15  C   UNL     1       4.673  14.698  19.622  0.00  0.00    +0.000 A 
ATOM     16  C   UNL     1       3.314  14.540  19.915  0.00  0.00    +0.000 A 
BRANCH  14  17
ATOM     17  N   UNL     1       6.428  15.438  18.109  0.00  0.00    +0.000 N 
ATOM     18  C   UNL     1       7.342  16.534  18.458  0.00  0.00    +0.000 C 
ATOM     19  C   UNL     1       8.357  16.086  19.508  0.00  0.00    +0.000 C 
ATOM     20  C   UNL     1       9.143  14.887  18.991  0.00  0.00    +0.000 C 
ATOM     21  C   UNL     1       8.187  13.751  18.639  0.00  0.00    +0.000 C 
ATOM     22  C   UNL     1       7.069  14.185  17.679  0.00  0.00    +0.000 C 
ENDBRANCH  14  17
ENDBRANCH   8  11
BRANCH   7  23
ATOM     23  S   UNL     1      -0.686  12.441  20.095  0.00  0.00    +0.000 S 
ATOM     24  O   UNL     1      -1.852  12.749  20.906  0.00  0.00    +0.000 OA
ATOM     25  O   UNL     1      -0.839  12.255  18.672  0.00  0.00    +0.000 OA
BRANCH  23  26
ATOM     26  C   UNL     1       0.043  10.936  20.755  0.00  0.00    +0.000 A 
ATOM     27  C   UNL     1      -0.297  10.580  22.080  0.00  0.00    +0.000 A 
ATOM     28  C   UNL     1       0.138   9.376  22.625  0.00  0.00    +0.000 A 
ATOM     29  C   UNL     1       0.903   8.506  21.855  0.00  0.00    +0.000 A 
ATOM     30  C   UNL     1       1.220   8.809  20.524  0.00  0.00    +0.000 A 
ATOM     31  C   UNL     1       1.945   7.872  19.767  0.00  0.00    +0.000 A 
ATOM     32  C   UNL     1       2.237   8.103  18.426  0.00  0.00    +0.000 A 
ATOM     33  C   UNL     1       1.819   9.283  17.831  0.00  0.00    +0.000 A 
ATOM     34  C   UNL     1       1.125  10.239  18.579  0.00  0.00    +0.000 A 
ATOM     35  C   UNL     1       0.793  10.037  19.932  0.00  0.00    +0.000 A 
ENDBRANCH  23  26
ENDBRANCH   7  23
TORSDOF 4
ENDMDL
MODEL 9
REMARK VINA RESULT:      -7.6      4.697      7.736
REMARK  Name = 
REMARK  5 active torsions:
REMARK  status: ('A' for Active; 'I' for Inactive)
REMARK    1  A    between atoms: C_1  and  N_2
REMARK    2  A    between atoms: N_7  and  S_8
REMARK    3  A    between atoms: S_8  and  C_11
REMARK    4  A    between atoms: C_21  and  C_22
REMARK    5  A    between atoms: C_25  and  N_26
REMARK                            x       y       z     vdW  Elec       q    Type
REMARK                         _______ _______ _______ _____ _____    ______ ____
ROOT
ATOM      1  C   UNL     1      -1.897  15.119  24.107  0.00  0.00    +0.000 C 
ATOM      2  N   UNL     1      -2.589  16.187  23.388  0.00  0.00    +0.000 NA
ATOM      3  O   UNL     1      -3.078  16.996  24.518  0.00  0.00    +0.000 OA
ATOM      4  C   UNL     1      -4.388  16.492  24.867  0.00  0.00    +0.000 C 
ATOM      5  C   UNL     1      -4.862  15.630  23.704  0.00  0.00    +0.000 C 
ATOM      6  C   UNL     1      -4.906  14.105  23.938  0.00  0.00    +0.000 C 
ATOM      7  N   UNL     1      -5.065  13.299  22.659  0.00  0.00    +0.000 NA
ATOM      8  C   UNL     1      -4.091  13.670  21.535  0.00  0.00    +0.000 C 
ATOM      9  C   UNL     1      -4.127  15.195  21.372  0.00  0.00    +0.000 C 
ATOM     10  C   UNL     1      -3.853  15.996  22.652  0.00  0.00    +0.000 C 
ENDROOT
BRANCH   8  11
ATOM     11  C   UNL     1      -2.649  13.146  21.635  0.00  0.00    +0.000 A 
ATOM     12  C   UNL     1      -1.618  13.579  20.801  0.00  0.00    +0.000 A 
ATOM     13  C   UNL     1      -0.429  12.818  20.693  0.00  0.00    +0.000 A 
ATOM     14  C   UNL     1      -0.223  11.623  21.413  0.00  0.00    +0.000 A 
ATOM     15  C   UNL     1      -1.164  11.348  22.402  0.00  0.00    +0.000 A 
ATOM     16  C   UNL     1      -2.329  12.111  22.538  0.00  0.00    +0.000 A 
BRANCH  14  17
ATOM     17  N   UNL     1       0.833  10.763  21.142  0.00  0.00    +0.000 N 
ATOM     18  C   UNL     1       1.131   9.610  22.003  0.00  0.00    +0.000 C 
ATOM     19  C   UNL     1       0.749   8.301  21.315  0.00  0.00    +0.000 C 
ATOM     20  C   UNL     1       1.493   8.177  19.990  0.00  0.00    +0.000 C 
ATOM     21  C   UNL     1       1.172   9.372  19.098  0.00  0.00    +0.000 C 
ATOM     22  C   UNL     1       1.421  10.720  19.793  0.00  0.00    +0.000 C 
ENDBRANCH  14  17
ENDBRANCH   8  11
BRANCH   7  23
ATOM     23  S   UNL     1      -6.718  13.118  22.148  0.00  0.00    +0.000 S 
ATOM     24  O   UNL     1      -7.300  12.044  22.936  0.00  0.00    +0.000 OA
ATOM     25  O   UNL     1      -7.358  14.412  22.127  0.00  0.00    +0.000 OA
BRANCH  23  26
ATOM     26  C   UNL     1      -6.618  12.544  20.448  0.00  0.00    +0.000 A 
ATOM     27  C   UNL     1      -6.608  11.146  20.237  0.00  0.00    +0.000 A 
ATOM     28  C   UNL     1      -6.641  10.623  18.949  0.00  0.00    +0.000 A 
ATOM     29  C   UNL     1      -6.701  11.481  17.856  0.00  0.00    +0.000 A 
ATOM     30  C   UNL     1      -6.757  12.870  18.032  0.00  0.00    +0.000 A 
ATOM     31  C   UNL     1      -6.877  13.696  16.900  0.00  0.00    +0.000 A 
ATOM     32  C   UNL     1      -6.991  15.077  17.026  0.00  0.00    +0.000 A 
ATOM     33  C   UNL     1      -6.972  15.650  18.288  0.00  0.00    +0.000 A 
ATOM     34  C   UNL     1      -6.821  14.846  19.423  0.00  0.00    +0.000 A 
ATOM     35  C   UNL     1      -6.721  13.443  19.340  0.00  0.00    +0.000 A 
ENDBRANCH  23  26
ENDBRANCH   7  23
TORSDOF 4
ENDMDL
