MODEL 1
REMARK VINA RESULT:      -7.4      0.000      0.000
REMARK  Name = 
REMARK  11 active torsions:
REMARK  status: ('A' for Active; 'I' for Inactive)
REMARK    1  A    between atoms: C_1  and  C_2
REMARK    2  A    between atoms: C_2  and  C_3
REMARK    3  A    between atoms: C_3  and  O_4
REMARK    4  A    between atoms: O_4  and  C_5
REMARK    5  A    between atoms: C_10  and  O_11
REMARK    6  A    between atoms: O_11  and  C_12
REMARK    7  A    between atoms: C_15  and  O_16
REMARK    8  A    between atoms: C_17  and  C_18
REMARK    9  A    between atoms: C_18  and  C_19
REMARK   10  A    between atoms: C_19  and  C_20
REMARK   11  A    between atoms: C_19  and  C_21
REMARK                            x       y       z     vdW  Elec       q    Type
REMARK                         _______ _______ _______ _____ _____    ______ ____
ROOT
ATOM      1  C   UNL     1       1.776   6.716  20.124  0.00  0.00    +0.000 A 
ATOM      2  C   UNL     1       2.296   5.410  20.124  0.00  0.00    +0.000 A 
ATOM      3  C   UNL     1       3.317   5.010  19.236  0.00  0.00    +0.000 A 
ATOM      4  C   UNL     1       3.869   5.910  18.333  0.00  0.00    +0.000 A 
ATOM      5  C   UNL     1       3.393   7.237  18.382  0.00  0.00    +0.000 A 
ATOM      6  C   UNL     1       2.350   7.649  19.250  0.00  0.00    +0.000 A 
ATOM      7  C   UNL     1       4.989   5.467  17.362  0.00  0.00    +0.000 C 
ATOM      8  C   UNL     1       4.870   6.237  16.037  0.00  0.00    +0.000 C 
ATOM      9  C   UNL     1       5.843   5.744  14.985  0.00  0.00    +0.000 C 
ATOM     10  C   UNL     1       5.524   4.273  14.656  0.00  0.00    +0.000 C 
ATOM     11  C   UNL     1       5.749   3.457  15.945  0.00  0.00    +0.000 C 
ATOM     12  N   UNL     1       5.065   4.014  17.122  0.00  0.00    +0.000 NA
ATOM     13  C   UNL     1       4.273   3.097  17.922  0.00  0.00    +0.000 C 
ATOM     14  C   UNL     1       3.871   3.615  19.304  0.00  0.00    +0.000 C 
ENDROOT
BRANCH   6  15
ATOM     15  O   UNL     1       2.043   8.976  19.089  0.00  0.00    +0.000 OA
ATOM     16  C   UNL     1       1.510   9.419  17.851  0.00  0.00    +0.000 C 
ENDBRANCH   6  15
BRANCH   9  17
ATOM     17  O   UNL     1       7.177   5.947  15.459  0.00  0.00    +0.000 OA
ATOM     18  H   UNL     1       7.724   5.181  15.222  0.00  0.00    +0.000 HD
ENDBRANCH   9  17
BRANCH   1  19
ATOM     19  O   UNL     1       0.751   7.111  20.947  0.00  0.00    +0.000 OA
BRANCH  19  20
ATOM     20  C   UNL     1       0.988   8.224  21.810  0.00  0.00    +0.000 C 
BRANCH  20  22
ATOM     21  C   UNL     1      -0.346   9.866  23.159  0.00  0.00    +0.000 C 
ATOM     22  C   UNL     1      -0.249   9.119  21.839  0.00  0.00    +0.000 C 
ENDBRANCH  20  22
ENDBRANCH  19  20
ENDBRANCH   1  19
BRANCH  10  23
ATOM     23  C   UNL     1       6.328   3.894  13.379  0.00  0.00    +0.000 C 
BRANCH  23  24
ATOM     24  C   UNL     1       5.816   2.875  12.343  0.00  0.00    +0.000 C 
ATOM     25  C   UNL     1       4.561   3.332  11.608  0.00  0.00    +0.000 C 
ATOM     26  C   UNL     1       6.882   2.372  11.375  0.00  0.00    +0.000 C 
ENDBRANCH  23  24
ENDBRANCH  10  23
TORSDOF 7
ENDMDL
MODEL 2
REMARK VINA RESULT:      -7.2      3.774      8.833
REMARK  Name = 
REMARK  11 active torsions:
REMARK  status: ('A' for Active; 'I' for Inactive)
REMARK    1  A    between atoms: C_1  and  C_2
REMARK    2  A    between atoms: C_2  and  C_3
REMARK    3  A    between atoms: C_3  and  O_4
REMARK    4  A    between atoms: O_4  and  C_5
REMARK    5  A    between atoms: C_10  and  O_11
REMARK    6  A    between atoms: O_11  and  C_12
REMARK    7  A    between atoms: C_15  and  O_16
REMARK    8  A    between atoms: C_17  and  C_18
REMARK    9  A    between atoms: C_18  and  C_19
REMARK   10  A    between atoms: C_19  and  C_20
REMARK   11  A    between atoms: C_19  and  C_21
REMARK                            x       y       z     vdW  Elec       q    Type
REMARK                         _______ _______ _______ _____ _____    ______ ____
ROOT
ATOM      1  C   UNL     1       1.925   4.179  18.632  0.00  0.00    +0.000 A 
ATOM      2  C   UNL     1       2.335   5.387  18.042  0.00  0.00    +0.000 A 
ATOM      3  C   UNL     1       2.189   6.628  18.696  0.00  0.00    +0.000 A 
ATOM      4  C   UNL     1       1.649   6.701  19.974  0.00  0.00    +0.000 A 
ATOM      5  C   UNL     1       1.301   5.481  20.591  0.00  0.00    +0.000 A 
ATOM      6  C   UNL     1       1.417   4.228  19.937  0.00  0.00    +0.000 A 
ATOM      7  C   UNL     1       1.493   8.064  20.689  0.00  0.00    +0.000 C 
ATOM      8  C   UNL     1       0.249   8.044  21.592  0.00  0.00    +0.000 C 
ATOM      9  C   UNL     1      -0.050   9.398  22.204  0.00  0.00    +0.000 C 
ATOM     10  C   UNL     1      -0.355  10.403  21.078  0.00  0.00    +0.000 C 
ATOM     11  C   UNL     1       0.921  10.530  20.222  0.00  0.00    +0.000 C 
ATOM     12  N   UNL     1       1.476   9.237  19.794  0.00  0.00    +0.000 NA
ATOM     13  C   UNL     1       1.801   9.089  18.388  0.00  0.00    +0.000 C 
ATOM     14  C   UNL     1       2.684   7.888  18.043  0.00  0.00    +0.000 C 
ENDROOT
BRANCH   6  15
ATOM     15  O   UNL     1       0.986   3.194  20.729  0.00  0.00    +0.000 OA
ATOM     16  C   UNL     1       1.780   2.787  21.831  0.00  0.00    +0.000 C 
ENDBRANCH   6  15
BRANCH   9  17
ATOM     17  O   UNL     1       1.050   9.783  23.032  0.00  0.00    +0.000 OA
ATOM     18  H   UNL     1       0.900   9.466  23.937  0.00  0.00    +0.000 HD
ENDBRANCH   9  17
BRANCH   1  19
ATOM     19  O   UNL     1       2.014   2.968  17.992  0.00  0.00    +0.000 OA
BRANCH  19  20
ATOM     20  C   UNL     1       3.318   2.494  17.655  0.00  0.00    +0.000 C 
BRANCH  20  22
ATOM     21  C   UNL     1       4.511   2.030  19.813  0.00  0.00    +0.000 C 
ATOM     22  C   UNL     1       3.743   1.419  18.653  0.00  0.00    +0.000 C 
ENDBRANCH  20  22
ENDBRANCH  19  20
ENDBRANCH   1  19
BRANCH  10  23
ATOM     23  C   UNL     1      -0.944  11.682  21.739  0.00  0.00    +0.000 C 
BRANCH  23  24
ATOM     24  C   UNL     1      -1.904  12.636  21.001  0.00  0.00    +0.000 C 
ATOM     25  C   UNL     1      -2.349  12.117  19.638  0.00  0.00    +0.000 C 
ATOM     26  C   UNL     1      -3.090  13.107  21.838  0.00  0.00    +0.000 C 
ENDBRANCH  23  24
ENDBRANCH  10  23
TORSDOF 7
ENDMDL
MODEL 3
REMARK VINA RESULT:      -7.1      3.176      8.965
REMARK  Name = 
REMARK  11 active torsions:
REMARK  status: ('A' for Active; 'I' for Inactive)
REMARK    1  A    between atoms: C_1  and  C_2
REMARK    2  A    between atoms: C_2  and  C_3
REMARK    3  A    between atoms: C_3  and  O_4
REMARK    4  A    between atoms: O_4  and  C_5
REMARK    5  A    between atoms: C_10  and  O_11
REMARK    6  A    between atoms: O_11  and  C_12
REMARK    7  A    between atoms: C_15  and  O_16
REMARK    8  A    between atoms: C_17  and  C_18
REMARK    9  A    between atoms: C_18  and  C_19
REMARK   10  A    between atoms: C_19  and  C_20
REMARK   11  A    between atoms: C_19  and  C_21
REMARK                            x       y       z     vdW  Elec       q    Type
REMARK                         _______ _______ _______ _____ _____    ______ ____
ROOT
ATOM      1  C   UNL     1       2.278   4.672  18.673  0.00  0.00    +0.000 A 
ATOM      2  C   UNL     1       2.565   5.916  18.086  0.00  0.00    +0.000 A 
ATOM      3  C   UNL     1       2.274   7.135  18.735  0.00  0.00    +0.000 A 
ATOM      4  C   UNL     1       1.708   7.150  20.003  0.00  0.00    +0.000 A 
ATOM      5  C   UNL     1       1.484   5.900  20.617  0.00  0.00    +0.000 A 
ATOM      6  C   UNL     1       1.746   4.666  19.969  0.00  0.00    +0.000 A 
ATOM      7  C   UNL     1       1.392   8.488  20.711  0.00  0.00    +0.000 C 
ATOM      8  C   UNL     1       0.143   8.335  21.593  0.00  0.00    +0.000 C 
ATOM      9  C   UNL     1      -0.312   9.649  22.196  0.00  0.00    +0.000 C 
ATOM     10  C   UNL     1      -0.704  10.614  21.062  0.00  0.00    +0.000 C 
ATOM     11  C   UNL     1       0.565  10.878  20.227  0.00  0.00    +0.000 C 
ATOM     12  N   UNL     1       1.264   9.652  19.813  0.00  0.00    +0.000 NA
ATOM     13  C   UNL     1       1.627   9.539  18.413  0.00  0.00    +0.000 C 
ATOM     14  C   UNL     1       2.641   8.440  18.086  0.00  0.00    +0.000 C 
ENDROOT
BRANCH   6  15
ATOM     15  O   UNL     1       1.416   3.593  20.757  0.00  0.00    +0.000 OA
ATOM     16  C   UNL     1       2.409   3.009  21.585  0.00  0.00    +0.000 C 
ENDBRANCH   6  15
BRANCH   9  17
ATOM     17  O   UNL     1       0.726  10.151  23.042  0.00  0.00    +0.000 OA
ATOM     18  H   UNL     1       1.392  10.605  22.501  0.00  0.00    +0.000 HD
ENDBRANCH   9  17
BRANCH   1  19
ATOM     19  O   UNL     1       2.509   3.477  18.038  0.00  0.00    +0.000 OA
BRANCH  19  20
ATOM     20  C   UNL     1       3.854   3.000  17.998  0.00  0.00    +0.000 C 
BRANCH  20  22
ATOM     21  C   UNL     1       5.773   4.412  17.209  0.00  0.00    +0.000 C 
ATOM     22  C   UNL     1       4.568   3.589  16.783  0.00  0.00    +0.000 C 
ENDBRANCH  20  22
ENDBRANCH  19  20
ENDBRANCH   1  19
BRANCH  10  23
ATOM     23  C   UNL     1      -1.440  11.822  21.710  0.00  0.00    +0.000 C 
BRANCH  23  24
ATOM     24  C   UNL     1      -2.536  12.621  20.977  0.00  0.00    +0.000 C 
ATOM     25  C   UNL     1      -2.764  12.165  19.541  0.00  0.00    +0.000 C 
ATOM     26  C   UNL     1      -3.849  12.739  21.746  0.00  0.00    +0.000 C 
ENDBRANCH  23  24
ENDBRANCH  10  23
TORSDOF 7
ENDMDL
MODEL 4
REMARK VINA RESULT:      -7.0      1.120      1.494
REMARK  Name = 
REMARK  11 active torsions:
REMARK  status: ('A' for Active; 'I' for Inactive)
REMARK    1  A    between atoms: C_1  and  C_2
REMARK    2  A    between atoms: C_2  and  C_3
REMARK    3  A    between atoms: C_3  and  O_4
REMARK    4  A    between atoms: O_4  and  C_5
REMARK    5  A    between atoms: C_10  and  O_11
REMARK    6  A    between atoms: O_11  and  C_12
REMARK    7  A    between atoms: C_15  and  O_16
REMARK    8  A    between atoms: C_17  and  C_18
REMARK    9  A    between atoms: C_18  and  C_19
REMARK   10  A    between atoms: C_19  and  C_20
REMARK   11  A    between atoms: C_19  and  C_21
REMARK                            x       y       z     vdW  Elec       q    Type
REMARK                         _______ _______ _______ _____ _____    ______ ____
ROOT
ATOM      1  C   UNL     1       1.485   8.619  19.142  0.00  0.00    +0.000 A 
ATOM      2  C   UNL     1       1.884   7.364  19.631  0.00  0.00    +0.000 A 
ATOM      3  C   UNL     1       2.942   6.634  19.048  0.00  0.00    +0.000 A 
ATOM      4  C   UNL     1       3.653   7.148  17.971  0.00  0.00    +0.000 A 
ATOM      5  C   UNL     1       3.294   8.438  17.526  0.00  0.00    +0.000 A 
ATOM      6  C   UNL     1       2.217   9.172  18.083  0.00  0.00    +0.000 A 
ATOM      7  C   UNL     1       4.813   6.346  17.336  0.00  0.00    +0.000 C 
ATOM      8  C   UNL     1       4.885   6.631  15.827  0.00  0.00    +0.000 C 
ATOM      9  C   UNL     1       5.903   5.762  15.116  0.00  0.00    +0.000 C 
ATOM     10  C   UNL     1       5.485   4.286  15.252  0.00  0.00    +0.000 C 
ATOM     11  C   UNL     1       5.518   3.939  16.754  0.00  0.00    +0.000 C 
ATOM     12  N   UNL     1       4.781   4.894  17.596  0.00  0.00    +0.000 NA
ATOM     13  C   UNL     1       3.841   4.343  18.555  0.00  0.00    +0.000 C 
ATOM     14  C   UNL     1       3.362   5.316  19.634  0.00  0.00    +0.000 C 
ENDROOT
BRANCH   6  15
ATOM     15  O   UNL     1       2.045  10.383  17.461  0.00  0.00    +0.000 OA
ATOM     16  C   UNL     1       2.409  11.571  18.144  0.00  0.00    +0.000 C 
ENDBRANCH   6  15
BRANCH   9  17
ATOM     17  O   UNL     1       7.200   6.041  15.648  0.00  0.00    +0.000 OA
ATOM     18  H   UNL     1       7.493   6.916  15.344  0.00  0.00    +0.000 HD
ENDBRANCH   9  17
BRANCH   1  19
ATOM     19  O   UNL     1       0.427   9.321  19.665  0.00  0.00    +0.000 OA
BRANCH  19  20
ATOM     20  C   UNL     1       0.575   9.853  20.982  0.00  0.00    +0.000 C 
BRANCH  20  22
ATOM     21  C   UNL     1      -0.208   9.599  23.353  0.00  0.00    +0.000 C 
ATOM     22  C   UNL     1      -0.151   8.951  21.979  0.00  0.00    +0.000 C 
ENDBRANCH  20  22
ENDBRANCH  19  20
ENDBRANCH   1  19
BRANCH  10  23
ATOM     23  C   UNL     1       6.366   3.458  14.273  0.00  0.00    +0.000 C 
BRANCH  23  24
ATOM     24  C   UNL     1       6.175   3.496  12.744  0.00  0.00    +0.000 C 
ATOM     25  C   UNL     1       4.726   3.693  12.317  0.00  0.00    +0.000 C 
ATOM     26  C   UNL     1       7.112   4.457  12.017  0.00  0.00    +0.000 C 
ENDBRANCH  23  24
ENDBRANCH  10  23
TORSDOF 7
ENDMDL
MODEL 5
REMARK VINA RESULT:      -7.0      3.129      9.176
REMARK  Name = 
REMARK  11 active torsions:
REMARK  status: ('A' for Active; 'I' for Inactive)
REMARK    1  A    between atoms: C_1  and  C_2
REMARK    2  A    between atoms: C_2  and  C_3
REMARK    3  A    between atoms: C_3  and  O_4
REMARK    4  A    between atoms: O_4  and  C_5
REMARK    5  A    between atoms: C_10  and  O_11
REMARK    6  A    between atoms: O_11  and  C_12
REMARK    7  A    between atoms: C_15  and  O_16
REMARK    8  A    between atoms: C_17  and  C_18
REMARK    9  A    between atoms: C_18  and  C_19
REMARK   10  A    between atoms: C_19  and  C_20
REMARK   11  A    between atoms: C_19  and  C_21
REMARK                            x       y       z     vdW  Elec       q    Type
REMARK                         _______ _______ _______ _____ _____    ______ ____
ROOT
ATOM      1  C   UNL     1       2.367   4.706  18.837  0.00  0.00    +0.000 A 
ATOM      2  C   UNL     1       2.647   5.916  18.177  0.00  0.00    +0.000 A 
ATOM      3  C   UNL     1       2.319   7.168  18.739  0.00  0.00    +0.000 A 
ATOM      4  C   UNL     1       1.722   7.254  19.990  0.00  0.00    +0.000 A 
ATOM      5  C   UNL     1       1.505   6.042  20.679  0.00  0.00    +0.000 A 
ATOM      6  C   UNL     1       1.804   4.774  20.118  0.00  0.00    +0.000 A 
ATOM      7  C   UNL     1       1.366   8.629  20.603  0.00  0.00    +0.000 C 
ATOM      8  C   UNL     1       0.098   8.509  21.463  0.00  0.00    +0.000 C 
ATOM      9  C   UNL     1      -0.394   9.849  21.970  0.00  0.00    +0.000 C 
ATOM     10  C   UNL     1      -0.775  10.732  20.767  0.00  0.00    +0.000 C 
ATOM     11  C   UNL     1       0.509  10.966  19.947  0.00  0.00    +0.000 C 
ATOM     12  N   UNL     1       1.239   9.730  19.628  0.00  0.00    +0.000 NA
ATOM     13  C   UNL     1       1.638   9.534  18.247  0.00  0.00    +0.000 C 
ATOM     14  C   UNL     1       2.678   8.436  18.016  0.00  0.00    +0.000 C 
ENDROOT
BRANCH   6  15
ATOM     15  O   UNL     1       1.474   3.747  20.966  0.00  0.00    +0.000 OA
ATOM     16  C   UNL     1       2.507   3.023  21.613  0.00  0.00    +0.000 C 
ENDBRANCH   6  15
BRANCH   9  17
ATOM     17  O   UNL     1       0.614  10.425  22.805  0.00  0.00    +0.000 OA
ATOM     18  H   UNL     1       0.194  10.869  23.559  0.00  0.00    +0.000 HD
ENDBRANCH   9  17
BRANCH   1  19
ATOM     19  O   UNL     1       2.634   3.478  18.286  0.00  0.00    +0.000 OA
BRANCH  19  20
ATOM     20  C   UNL     1       4.005   3.120  18.103  0.00  0.00    +0.000 C 
BRANCH  20  22
ATOM     21  C   UNL     1       5.813   4.371  16.893  0.00  0.00    +0.000 C 
ATOM     22  C   UNL     1       4.490   3.637  16.750  0.00  0.00    +0.000 C 
ENDBRANCH  20  22
ENDBRANCH  19  20
ENDBRANCH   1  19
BRANCH  10  23
ATOM     23  C   UNL     1      -1.548  11.966  21.318  0.00  0.00    +0.000 C 
BRANCH  23  24
ATOM     24  C   UNL     1      -1.667  12.270  22.824  0.00  0.00    +0.000 C 
ATOM     25  C   UNL     1      -1.042  13.600  23.228  0.00  0.00    +0.000 C 
ATOM     26  C   UNL     1      -3.077  12.117  23.387  0.00  0.00    +0.000 C 
ENDBRANCH  23  24
ENDBRANCH  10  23
TORSDOF 7
ENDMDL
MODEL 6
REMARK VINA RESULT:      -7.0      1.135      1.538
REMARK  Name = 
REMARK  11 active torsions:
REMARK  status: ('A' for Active; 'I' for Inactive)
REMARK    1  A    between atoms: C_1  and  C_2
REMARK    2  A    between atoms: C_2  and  C_3
REMARK    3  A    between atoms: C_3  and  O_4
REMARK    4  A    between atoms: O_4  and  C_5
REMARK    5  A    between atoms: C_10  and  O_11
REMARK    6  A    between atoms: O_11  and  C_12
REMARK    7  A    between atoms: C_15  and  O_16
REMARK    8  A    between atoms: C_17  and  C_18
REMARK    9  A    between atoms: C_18  and  C_19
REMARK   10  A    between atoms: C_19  and  C_20
REMARK   11  A    between atoms: C_19  and  C_21
REMARK                            x       y       z     vdW  Elec       q    Type
REMARK                         _______ _______ _______ _____ _____    ______ ____
ROOT
ATOM      1  C   UNL     1       1.210   8.398  19.743  0.00  0.00    +0.000 A 
ATOM      2  C   UNL     1       1.721   7.162  20.172  0.00  0.00    +0.000 A 
ATOM      3  C   UNL     1       2.774   6.510  19.494  0.00  0.00    +0.000 A 
ATOM      4  C   UNL     1       3.367   7.086  18.378  0.00  0.00    +0.000 A 
ATOM      5  C   UNL     1       2.897   8.359  17.991  0.00  0.00    +0.000 A 
ATOM      6  C   UNL     1       1.824   9.015  18.644  0.00  0.00    +0.000 A 
ATOM      7  C   UNL     1       4.521   6.370  17.639  0.00  0.00    +0.000 C 
ATOM      8  C   UNL     1       4.460   6.686  16.136  0.00  0.00    +0.000 C 
ATOM      9  C   UNL     1       5.471   5.895  15.330  0.00  0.00    +0.000 C 
ATOM     10  C   UNL     1       5.155   4.393  15.465  0.00  0.00    +0.000 C 
ATOM     11  C   UNL     1       5.325   4.022  16.952  0.00  0.00    +0.000 C 
ATOM     12  N   UNL     1       4.598   4.914  17.868  0.00  0.00    +0.000 NA
ATOM     13  C   UNL     1       3.770   4.289  18.883  0.00  0.00    +0.000 C 
ATOM     14  C   UNL     1       3.317   5.210  20.017  0.00  0.00    +0.000 C 
ENDROOT
BRANCH   6  15
ATOM     15  O   UNL     1       1.531  10.223  18.064  0.00  0.00    +0.000 OA
ATOM     16  C   UNL     1       1.868  11.420  18.747  0.00  0.00    +0.000 C 
ENDBRANCH   6  15
BRANCH   9  17
ATOM     17  O   UNL     1       6.786   6.244  15.768  0.00  0.00    +0.000 OA
ATOM     18  H   UNL     1       6.898   7.207  15.720  0.00  0.00    +0.000 HD
ENDBRANCH   9  17
BRANCH   1  19
ATOM     19  O   UNL     1       0.156   9.024  20.360  0.00  0.00    +0.000 OA
BRANCH  19  20
ATOM     20  C   UNL     1      -0.290   8.491  21.608  0.00  0.00    +0.000 C 
BRANCH  20  22
ATOM     21  C   UNL     1      -0.492  10.876  22.363  0.00  0.00    +0.000 C 
ATOM     22  C   UNL     1       0.012   9.488  22.724  0.00  0.00    +0.000 C 
ENDBRANCH  20  22
ENDBRANCH  19  20
ENDBRANCH   1  19
BRANCH  10  23
ATOM     23  C   UNL     1       6.008   3.639  14.403  0.00  0.00    +0.000 C 
BRANCH  23  24
ATOM     24  C   UNL     1       5.965   3.984  12.902  0.00  0.00    +0.000 C 
ATOM     25  C   UNL     1       7.333   4.308  12.313  0.00  0.00    +0.000 C 
ATOM     26  C   UNL     1       5.208   2.974  12.045  0.00  0.00    +0.000 C 
ENDBRANCH  23  24
ENDBRANCH  10  23
TORSDOF 7
ENDMDL
MODEL 7
REMARK VINA RESULT:      -6.8      3.829      9.298
REMARK  Name = 
REMARK  11 active torsions:
REMARK  status: ('A' for Active; 'I' for Inactive)
REMARK    1  A    between atoms: C_1  and  C_2
REMARK    2  A    between atoms: C_2  and  C_3
REMARK    3  A    between atoms: C_3  and  O_4
REMARK    4  A    between atoms: O_4  and  C_5
REMARK    5  A    between atoms: C_10  and  O_11
REMARK    6  A    between atoms: O_11  and  C_12
REMARK    7  A    between atoms: C_15  and  O_16
REMARK    8  A    between atoms: C_17  and  C_18
REMARK    9  A    between atoms: C_18  and  C_19
REMARK   10  A    between atoms: C_19  and  C_20
REMARK   11  A    between atoms: C_19  and  C_21
REMARK                            x       y       z     vdW  Elec       q    Type
REMARK                         _______ _______ _______ _____ _____    ______ ____
ROOT
ATOM      1  C   UNL     1       2.787   5.236  18.898  0.00  0.00    +0.000 A 
ATOM      2  C   UNL     1       2.833   6.444  18.182  0.00  0.00    +0.000 A 
ATOM      3  C   UNL     1       2.356   7.656  18.724  0.00  0.00    +0.000 A 
ATOM      4  C   UNL     1       1.839   7.706  20.012  0.00  0.00    +0.000 A 
ATOM      5  C   UNL     1       1.856   6.505  20.754  0.00  0.00    +0.000 A 
ATOM      6  C   UNL     1       2.307   5.274  20.215  0.00  0.00    +0.000 A 
ATOM      7  C   UNL     1       1.319   9.037  20.603  0.00  0.00    +0.000 C 
ATOM      8  C   UNL     1       0.144   8.765  21.557  0.00  0.00    +0.000 C 
ATOM      9  C   UNL     1      -0.512  10.038  22.054  0.00  0.00    +0.000 C 
ATOM     10  C   UNL     1      -1.103  10.800  20.854  0.00  0.00    +0.000 C 
ATOM     11  C   UNL     1       0.072  11.188  19.935  0.00  0.00    +0.000 C 
ATOM     12  N   UNL     1       0.960  10.063  19.605  0.00  0.00    +0.000 NA
ATOM     13  C   UNL     1       1.291   9.869  18.206  0.00  0.00    +0.000 C 
ATOM     14  C   UNL     1       2.469   8.930  17.936  0.00  0.00    +0.000 C 
ENDROOT
BRANCH   6  15
ATOM     15  O   UNL     1       2.195   4.247  21.117  0.00  0.00    +0.000 OA
ATOM     16  C   UNL     1       1.179   3.274  20.937  0.00  0.00    +0.000 C 
ENDBRANCH   6  15
BRANCH   9  17
ATOM     17  O   UNL     1       0.450  10.794  22.794  0.00  0.00    +0.000 OA
ATOM     18  H   UNL     1       1.304  10.332  22.781  0.00  0.00    +0.000 HD
ENDBRANCH   9  17
BRANCH   1  19
ATOM     19  O   UNL     1       3.201   4.038  18.371  0.00  0.00    +0.000 OA
BRANCH  19  20
ATOM     20  C   UNL     1       2.341   3.402  17.424  0.00  0.00    +0.000 C 
BRANCH  20  22
ATOM     21  C   UNL     1       3.503   1.515  18.602  0.00  0.00    +0.000 C 
ATOM     22  C   UNL     1       2.422   1.887  17.601  0.00  0.00    +0.000 C 
ENDBRANCH  20  22
ENDBRANCH  19  20
ENDBRANCH   1  19
BRANCH  10  23
ATOM     23  C   UNL     1      -2.016  11.926  21.419  0.00  0.00    +0.000 C 
BRANCH  23  24
ATOM     24  C   UNL     1      -2.017  12.331  22.906  0.00  0.00    +0.000 C 
ATOM     25  C   UNL     1      -1.324  13.662  23.175  0.00  0.00    +0.000 C 
ATOM     26  C   UNL     1      -3.386  12.265  23.575  0.00  0.00    +0.000 C 
ENDBRANCH  23  24
ENDBRANCH  10  23
TORSDOF 7
ENDMDL
MODEL 8
REMARK VINA RESULT:      -6.8      3.298      9.153
REMARK  Name = 
REMARK  11 active torsions:
REMARK  status: ('A' for Active; 'I' for Inactive)
REMARK    1  A    between atoms: C_1  and  C_2
REMARK    2  A    between atoms: C_2  and  C_3
REMARK    3  A    between atoms: C_3  and  O_4
REMARK    4  A    between atoms: O_4  and  C_5
REMARK    5  A    between atoms: C_10  and  O_11
REMARK    6  A    between atoms: O_11  and  C_12
REMARK    7  A    between atoms: C_15  and  O_16
REMARK    8  A    between atoms: C_17  and  C_18
REMARK    9  A    between atoms: C_18  and  C_19
REMARK   10  A    between atoms: C_19  and  C_20
REMARK   11  A    between atoms: C_19  and  C_21
REMARK                            x       y       z     vdW  Elec       q    Type
REMARK                         _______ _______ _______ _____ _____    ______ ____
ROOT
ATOM      1  C   UNL     1       2.627   5.105  18.308  0.00  0.00    +0.000 A 
ATOM      2  C   UNL     1       2.697   6.421  17.820  0.00  0.00    +0.000 A 
ATOM      3  C   UNL     1       2.324   7.533  18.605  0.00  0.00    +0.000 A 
ATOM      4  C   UNL     1       1.892   7.368  19.915  0.00  0.00    +0.000 A 
ATOM      5  C   UNL     1       1.887   6.052  20.424  0.00  0.00    +0.000 A 
ATOM      6  C   UNL     1       2.233   4.922  19.641  0.00  0.00    +0.000 A 
ATOM      7  C   UNL     1       1.486   8.589  20.772  0.00  0.00    +0.000 C 
ATOM      8  C   UNL     1       0.360   8.198  21.743  0.00  0.00    +0.000 C 
ATOM      9  C   UNL     1      -0.190   9.386  22.508  0.00  0.00    +0.000 C 
ATOM     10  C   UNL     1      -0.812  10.381  21.510  0.00  0.00    +0.000 C 
ATOM     11  C   UNL     1       0.324  10.879  20.594  0.00  0.00    +0.000 C 
ATOM     12  N   UNL     1       1.124   9.795  20.004  0.00  0.00    +0.000 NA
ATOM     13  C   UNL     1       1.355   9.848  18.572  0.00  0.00    +0.000 C 
ATOM     14  C   UNL     1       2.459   8.924  18.053  0.00  0.00    +0.000 C 
ENDROOT
BRANCH   6  15
ATOM     15  O   UNL     1       2.120   3.752  20.349  0.00  0.00    +0.000 OA
ATOM     16  C   UNL     1       0.948   2.966  20.207  0.00  0.00    +0.000 C 
ENDBRANCH   6  15
BRANCH   9  17
ATOM     17  O   UNL     1       0.857   9.950  23.301  0.00  0.00    +0.000 OA
ATOM     18  H   UNL     1       1.707   9.561  23.038  0.00  0.00    +0.000 HD
ENDBRANCH   9  17
BRANCH   1  19
ATOM     19  O   UNL     1       2.939   4.008  17.545  0.00  0.00    +0.000 OA
BRANCH  19  20
ATOM     20  C   UNL     1       4.251   3.946  16.983  0.00  0.00    +0.000 C 
BRANCH  20  22
ATOM     21  C   UNL     1       6.298   5.035  17.941  0.00  0.00    +0.000 C 
ATOM     22  C   UNL     1       5.284   3.915  18.107  0.00  0.00    +0.000 C 
ENDBRANCH  20  22
ENDBRANCH  19  20
ENDBRANCH   1  19
BRANCH  10  23
ATOM     23  C   UNL     1      -1.623  11.424  22.333  0.00  0.00    +0.000 C 
BRANCH  23  24
ATOM     24  C   UNL     1      -1.370  12.941  22.236  0.00  0.00    +0.000 C 
ATOM     25  C   UNL     1      -2.236  13.636  21.192  0.00  0.00    +0.000 C 
ATOM     26  C   UNL     1      -1.407  13.672  23.574  0.00  0.00    +0.000 C 
ENDBRANCH  23  24
ENDBRANCH  10  23
TORSDOF 7
ENDMDL
MODEL 9
REMARK VINA RESULT:      -6.7      2.508      8.091
REMARK  Name = 
REMARK  11 active torsions:
REMARK  status: ('A' for Active; 'I' for Inactive)
REMARK    1  A    between atoms: C_1  and  C_2
REMARK    2  A    between atoms: C_2  and  C_3
REMARK    3  A    between atoms: C_3  and  O_4
REMARK    4  A    between atoms: O_4  and  C_5
REMARK    5  A    between atoms: C_10  and  O_11
REMARK    6  A    between atoms: O_11  and  C_12
REMARK    7  A    between atoms: C_15  and  O_16
REMARK    8  A    between atoms: C_17  and  C_18
REMARK    9  A    between atoms: C_18  and  C_19
REMARK   10  A    between atoms: C_19  and  C_20
REMARK   11  A    between atoms: C_19  and  C_21
REMARK                            x       y       z     vdW  Elec       q    Type
REMARK                         _______ _______ _______ _____ _____    ______ ____
ROOT
ATOM      1  C   UNL     1       5.200   5.145  17.922  0.00  0.00    +0.000 A 
ATOM      2  C   UNL     1       4.347   5.075  19.036  0.00  0.00    +0.000 A 
ATOM      3  C   UNL     1       3.285   5.985  19.225  0.00  0.00    +0.000 A 
ATOM      4  C   UNL     1       3.025   6.981  18.291  0.00  0.00    +0.000 A 
ATOM      5  C   UNL     1       3.842   7.006  17.141  0.00  0.00    +0.000 A 
ATOM      6  C   UNL     1       4.929   6.116  16.949  0.00  0.00    +0.000 A 
ATOM      7  C   UNL     1       1.860   7.975  18.501  0.00  0.00    +0.000 C 
ATOM      8  C   UNL     1       2.224   9.346  17.908  0.00  0.00    +0.000 C 
ATOM      9  C   UNL     1       1.188  10.409  18.213  0.00  0.00    +0.000 C 
ATOM     10  C   UNL     1       1.108  10.610  19.738  0.00  0.00    +0.000 C 
ATOM     11  C   UNL     1       0.630   9.278  20.350  0.00  0.00    +0.000 C 
ATOM     12  N   UNL     1       1.401   8.110  19.897  0.00  0.00    +0.000 NA
ATOM     13  C   UNL     1       1.889   7.203  20.918  0.00  0.00    +0.000 C 
ATOM     14  C   UNL     1       2.372   5.843  20.409  0.00  0.00    +0.000 C 
ENDROOT
BRANCH   6  15
ATOM     15  O   UNL     1       5.589   6.359  15.771  0.00  0.00    +0.000 OA
ATOM     16  C   UNL     1       5.652   5.338  14.788  0.00  0.00    +0.000 C 
ENDBRANCH   6  15
BRANCH   9  17
ATOM     17  O   UNL     1      -0.055  10.025  17.621  0.00  0.00    +0.000 OA
ATOM     18  H   UNL     1      -0.402   9.241  18.077  0.00  0.00    +0.000 HD
ENDBRANCH   9  17
BRANCH   1  19
ATOM     19  O   UNL     1       6.268   4.300  17.745  0.00  0.00    +0.000 OA
BRANCH  19  20
ATOM     20  C   UNL     1       7.577   4.851  17.891  0.00  0.00    +0.000 C 
BRANCH  20  22
ATOM     21  C   UNL     1       8.119   7.212  18.545  0.00  0.00    +0.000 C 
ATOM     22  C   UNL     1       7.576   5.876  19.023  0.00  0.00    +0.000 C 
ENDBRANCH  20  22
ENDBRANCH  19  20
ENDBRANCH   1  19
BRANCH  10  23
ATOM     23  C   UNL     1       0.272  11.896  19.998  0.00  0.00    +0.000 C 
BRANCH  23  24
ATOM     24  C   UNL     1      -1.177  11.857  20.522  0.00  0.00    +0.000 C 
ATOM     25  C   UNL     1      -1.367  12.594  21.842  0.00  0.00    +0.000 C 
ATOM     26  C   UNL     1      -2.229  12.265  19.494  0.00  0.00    +0.000 C 
ENDBRANCH  23  24
ENDBRANCH  10  23
TORSDOF 7
ENDMDL
