MODEL 1
REMARK VINA RESULT:      -7.5      0.000      0.000
REMARK  Name = 
REMARK  7 active torsions:
REMARK  status: ('A' for Active; 'I' for Inactive)
REMARK    1  A    between atoms: C_1  and  O_2
REMARK    2  A    between atoms: O_2  and  C_3
REMARK    3  A    between atoms: C_3  and  C_5
REMARK    4  A    between atoms: C_9  and  C_10
REMARK    5  A    between atoms: C_13  and  O_14
REMARK    6  A    between atoms: O_14  and  C_15
REMARK    7  A    between atoms: C_21  and  N_22
REMARK                            x       y       z     vdW  Elec       q    Type
REMARK                         _______ _______ _______ _____ _____    ______ ____
ROOT
ATOM      1  C   UNL     1       5.679   5.029  16.952  0.00  0.00    +0.000 A 
ATOM      2  S   UNL     1       5.050   6.497  16.313  0.00  0.00    +0.000 S 
ATOM      3  C   UNL     1       3.985   6.725  17.631  0.00  0.00    +0.000 A 
ATOM      4  C   UNL     1       3.079   7.774  17.840  0.00  0.00    +0.000 A 
ATOM      5  C   UNL     1       2.282   7.760  18.992  0.00  0.00    +0.000 A 
ATOM      6  C   UNL     1       2.474   6.678  19.854  0.00  0.00    +0.000 A 
ATOM      7  N   UNL     1       3.345   5.652  19.694  0.00  0.00    +0.000 NA
ATOM      8  C   UNL     1       4.098   5.698  18.558  0.00  0.00    +0.000 A 
ATOM      9  C   UNL     1       5.083   4.728  18.162  0.00  0.00    +0.000 A 
ENDROOT
BRANCH   5  10
ATOM     10  C   UNL     1       1.303   8.835  19.262  0.00  0.00    +0.000 A 
ATOM     11  C   UNL     1       0.857   9.693  18.240  0.00  0.00    +0.000 A 
ATOM     12  C   UNL     1      -0.042  10.733  18.497  0.00  0.00    +0.000 A 
ATOM     13  C   UNL     1      -0.547  10.928  19.778  0.00  0.00    +0.000 A 
ATOM     14  C   UNL     1      -0.125  10.094  20.809  0.00  0.00    +0.000 A 
ATOM     15  C   UNL     1       0.793   9.064  20.553  0.00  0.00    +0.000 A 
BRANCH  13  16
ATOM     16  O   UNL     1      -1.395  11.990  19.917  0.00  0.00    +0.000 OA
ATOM     17  C   UNL     1      -2.604  11.912  19.169  0.00  0.00    +0.000 C 
ENDBRANCH  13  16
ENDBRANCH   5  10
BRANCH   9  18
ATOM     18  N   UNL     1       5.367   3.646  18.928  0.00  0.00    +0.000 N 
ATOM     19  H   UNL     1       5.331   2.713  18.522  0.00  0.00    +0.000 HD
ATOM     20  H   UNL     1       5.850   3.716  19.820  0.00  0.00    +0.000 HD
ENDBRANCH   9  18
BRANCH   1  21
ATOM     21  C   UNL     1       6.693   4.349  16.171  0.00  0.00    +0.000 C 
ATOM     22  O   UNL     1       7.907   4.482  16.291  0.00  0.00    +0.000 OA
BRANCH  21  24
ATOM     23  C   UNL     1       6.340   3.940  13.894  0.00  0.00    +0.000 C 
ATOM     24  O   UNL     1       6.123   3.520  15.242  0.00  0.00    +0.000 OA
ENDBRANCH  21  24
ENDBRANCH   1  21
TORSDOF 5
ENDMDL
MODEL 2
REMARK VINA RESULT:      -7.5      0.508      1.167
REMARK  Name = 
REMARK  7 active torsions:
REMARK  status: ('A' for Active; 'I' for Inactive)
REMARK    1  A    between atoms: C_1  and  O_2
REMARK    2  A    between atoms: O_2  and  C_3
REMARK    3  A    between atoms: C_3  and  C_5
REMARK    4  A    between atoms: C_9  and  C_10
REMARK    5  A    between atoms: C_13  and  O_14
REMARK    6  A    between atoms: O_14  and  C_15
REMARK    7  A    between atoms: C_21  and  N_22
REMARK                            x       y       z     vdW  Elec       q    Type
REMARK                         _______ _______ _______ _____ _____    ______ ____
ROOT
ATOM      1  C   UNL     1       5.690   5.023  16.951  0.00  0.00    +0.000 A 
ATOM      2  S   UNL     1       5.091   6.512  16.332  0.00  0.00    +0.000 S 
ATOM      3  C   UNL     1       3.997   6.721  17.629  0.00  0.00    +0.000 A 
ATOM      4  C   UNL     1       3.097   7.775  17.841  0.00  0.00    +0.000 A 
ATOM      5  C   UNL     1       2.274   7.743  18.973  0.00  0.00    +0.000 A 
ATOM      6  C   UNL     1       2.434   6.640  19.815  0.00  0.00    +0.000 A 
ATOM      7  N   UNL     1       3.298   5.608  19.652  0.00  0.00    +0.000 NA
ATOM      8  C   UNL     1       4.079   5.672  18.536  0.00  0.00    +0.000 A 
ATOM      9  C   UNL     1       5.062   4.701  18.141  0.00  0.00    +0.000 A 
ENDROOT
BRANCH   5  10
ATOM     10  C   UNL     1       1.299   8.823  19.245  0.00  0.00    +0.000 A 
ATOM     11  C   UNL     1       0.855   9.095  20.551  0.00  0.00    +0.000 A 
ATOM     12  C   UNL     1      -0.093  10.090  20.810  0.00  0.00    +0.000 A 
ATOM     13  C   UNL     1      -0.603  10.864  19.773  0.00  0.00    +0.000 A 
ATOM     14  C   UNL     1      -0.181  10.618  18.470  0.00  0.00    +0.000 A 
ATOM     15  C   UNL     1       0.755   9.606  18.211  0.00  0.00    +0.000 A 
BRANCH  13  16
ATOM     16  O   UNL     1      -1.542  11.787  20.139  0.00  0.00    +0.000 OA
ATOM     17  C   UNL     1      -1.366  12.364  21.429  0.00  0.00    +0.000 C 
ENDBRANCH  13  16
ENDBRANCH   5  10
BRANCH   9  18
ATOM     18  N   UNL     1       5.317   3.599  18.888  0.00  0.00    +0.000 N 
ATOM     19  H   UNL     1       5.651   2.748  18.440  0.00  0.00    +0.000 HD
ATOM     20  H   UNL     1       5.431   3.635  19.898  0.00  0.00    +0.000 HD
ENDBRANCH   9  18
BRANCH   1  21
ATOM     21  C   UNL     1       6.715   4.350  16.179  0.00  0.00    +0.000 C 
ATOM     22  O   UNL     1       7.927   4.496  16.307  0.00  0.00    +0.000 OA
BRANCH  21  24
ATOM     23  C   UNL     1       6.338   3.957  13.903  0.00  0.00    +0.000 C 
ATOM     24  O   UNL     1       6.159   3.513  15.249  0.00  0.00    +0.000 OA
ENDBRANCH  21  24
ENDBRANCH   1  21
TORSDOF 5
ENDMDL
MODEL 3
REMARK VINA RESULT:      -7.4      1.410      1.904
REMARK  Name = 
REMARK  7 active torsions:
REMARK  status: ('A' for Active; 'I' for Inactive)
REMARK    1  A    between atoms: C_1  and  O_2
REMARK    2  A    between atoms: O_2  and  C_3
REMARK    3  A    between atoms: C_3  and  C_5
REMARK    4  A    between atoms: C_9  and  C_10
REMARK    5  A    between atoms: C_13  and  O_14
REMARK    6  A    between atoms: O_14  and  C_15
REMARK    7  A    between atoms: C_21  and  N_22
REMARK                            x       y       z     vdW  Elec       q    Type
REMARK                         _______ _______ _______ _____ _____    ______ ____
ROOT
ATOM      1  C   UNL     1       5.599   5.126  15.807  0.00  0.00    +0.000 A 
ATOM      2  S   UNL     1       5.195   6.797  15.865  0.00  0.00    +0.000 S 
ATOM      3  C   UNL     1       4.134   6.592  17.190  0.00  0.00    +0.000 A 
ATOM      4  C   UNL     1       3.375   7.568  17.850  0.00  0.00    +0.000 A 
ATOM      5  C   UNL     1       2.551   7.180  18.915  0.00  0.00    +0.000 A 
ATOM      6  C   UNL     1       2.569   5.821  19.235  0.00  0.00    +0.000 A 
ATOM      7  N   UNL     1       3.295   4.848  18.631  0.00  0.00    +0.000 NA
ATOM      8  C   UNL     1       4.079   5.265  17.596  0.00  0.00    +0.000 A 
ATOM      9  C   UNL     1       4.932   4.428  16.797  0.00  0.00    +0.000 A 
ENDROOT
BRANCH   5  10
ATOM     10  C   UNL     1       1.721   8.164  19.643  0.00  0.00    +0.000 A 
ATOM     11  C   UNL     1       1.367   7.967  20.990  0.00  0.00    +0.000 A 
ATOM     12  C   UNL     1       0.553   8.876  21.673  0.00  0.00    +0.000 A 
ATOM     13  C   UNL     1       0.093  10.026  21.040  0.00  0.00    +0.000 A 
ATOM     14  C   UNL     1       0.429  10.248  19.708  0.00  0.00    +0.000 A 
ATOM     15  C   UNL     1       1.229   9.324  19.019  0.00  0.00    +0.000 A 
BRANCH  13  16
ATOM     16  O   UNL     1      -0.716  10.827  21.795  0.00  0.00    +0.000 OA
ATOM     17  C   UNL     1      -0.936  10.390  23.132  0.00  0.00    +0.000 C 
ENDBRANCH  13  16
ENDBRANCH   5  10
BRANCH   9  18
ATOM     18  N   UNL     1       5.044   3.097  17.028  0.00  0.00    +0.000 N 
ATOM     19  H   UNL     1       4.524   2.669  17.793  0.00  0.00    +0.000 HD
ATOM     20  H   UNL     1       5.422   2.450  16.342  0.00  0.00    +0.000 HD
ENDBRANCH   9  18
BRANCH   1  21
ATOM     21  C   UNL     1       6.532   4.707  14.780  0.00  0.00    +0.000 C 
ATOM     22  O   UNL     1       7.603   5.243  14.517  0.00  0.00    +0.000 OA
BRANCH  21  24
ATOM     23  C   UNL     1       6.334   3.646  12.704  0.00  0.00    +0.000 C 
ATOM     24  O   UNL     1       6.060   3.613  14.105  0.00  0.00    +0.000 OA
ENDBRANCH  21  24
ENDBRANCH   1  21
TORSDOF 5
ENDMDL
MODEL 4
REMARK VINA RESULT:      -7.1      1.342      1.446
REMARK  Name = 
REMARK  7 active torsions:
REMARK  status: ('A' for Active; 'I' for Inactive)
REMARK    1  A    between atoms: C_1  and  O_2
REMARK    2  A    between atoms: O_2  and  C_3
REMARK    3  A    between atoms: C_3  and  C_5
REMARK    4  A    between atoms: C_9  and  C_10
REMARK    5  A    between atoms: C_13  and  O_14
REMARK    6  A    between atoms: O_14  and  C_15
REMARK    7  A    between atoms: C_21  and  N_22
REMARK                            x       y       z     vdW  Elec       q    Type
REMARK                         _______ _______ _______ _____ _____    ______ ____
ROOT
ATOM      1  C   UNL     1       5.592   5.147  15.803  0.00  0.00    +0.000 A 
ATOM      2  S   UNL     1       5.167   6.813  15.868  0.00  0.00    +0.000 S 
ATOM      3  C   UNL     1       4.124   6.592  17.205  0.00  0.00    +0.000 A 
ATOM      4  C   UNL     1       3.360   7.557  17.875  0.00  0.00    +0.000 A 
ATOM      5  C   UNL     1       2.554   7.156  18.948  0.00  0.00    +0.000 A 
ATOM      6  C   UNL     1       2.592   5.797  19.266  0.00  0.00    +0.000 A 
ATOM      7  N   UNL     1       3.324   4.835  18.652  0.00  0.00    +0.000 NA
ATOM      8  C   UNL     1       4.091   5.263  17.609  0.00  0.00    +0.000 A 
ATOM      9  C   UNL     1       4.946   4.438  16.799  0.00  0.00    +0.000 A 
ENDROOT
BRANCH   5  10
ATOM     10  C   UNL     1       1.719   8.128  19.688  0.00  0.00    +0.000 A 
ATOM     11  C   UNL     1       1.258   9.309  19.079  0.00  0.00    +0.000 A 
ATOM     12  C   UNL     1       0.498  10.248  19.784  0.00  0.00    +0.000 A 
ATOM     13  C   UNL     1       0.150  10.020  21.111  0.00  0.00    +0.000 A 
ATOM     14  C   UNL     1       0.592   8.859  21.740  0.00  0.00    +0.000 A 
ATOM     15  C   UNL     1       1.370   7.929  21.036  0.00  0.00    +0.000 A 
BRANCH  13  16
ATOM     16  O   UNL     1      -0.570  11.017  21.707  0.00  0.00    +0.000 OA
ATOM     17  C   UNL     1      -0.543  12.275  21.041  0.00  0.00    +0.000 C 
ENDBRANCH  13  16
ENDBRANCH   5  10
BRANCH   9  18
ATOM     18  N   UNL     1       5.077   3.108  17.026  0.00  0.00    +0.000 N 
ATOM     19  H   UNL     1       6.005   2.694  17.093  0.00  0.00    +0.000 HD
ATOM     20  H   UNL     1       4.316   2.533  17.376  0.00  0.00    +0.000 HD
ENDBRANCH   9  18
BRANCH   1  21
ATOM     21  C   UNL     1       6.519   4.741  14.765  0.00  0.00    +0.000 C 
ATOM     22  O   UNL     1       7.573   5.300  14.481  0.00  0.00    +0.000 OA
BRANCH  21  24
ATOM     23  C   UNL     1       6.394   3.617  12.716  0.00  0.00    +0.000 C 
ATOM     24  O   UNL     1       6.062   3.631  14.106  0.00  0.00    +0.000 OA
ENDBRANCH  21  24
ENDBRANCH   1  21
TORSDOF 5
ENDMDL
MODEL 5
REMARK VINA RESULT:      -7.1      2.756      8.533
REMARK  Name = 
REMARK  7 active torsions:
REMARK  status: ('A' for Active; 'I' for Inactive)
REMARK    1  A    between atoms: C_1  and  O_2
REMARK    2  A    between atoms: O_2  and  C_3
REMARK    3  A    between atoms: C_3  and  C_5
REMARK    4  A    between atoms: C_9  and  C_10
REMARK    5  A    between atoms: C_13  and  O_14
REMARK    6  A    between atoms: O_14  and  C_15
REMARK    7  A    between atoms: C_21  and  N_22
REMARK                            x       y       z     vdW  Elec       q    Type
REMARK                         _______ _______ _______ _____ _____    ______ ____
ROOT
ATOM      1  C   UNL     1       0.348   9.872  21.439  0.00  0.00    +0.000 A 
ATOM      2  S   UNL     1       1.078   8.333  21.683  0.00  0.00    +0.000 S 
ATOM      3  C   UNL     1       1.702   8.271  20.092  0.00  0.00    +0.000 A 
ATOM      4  C   UNL     1       2.462   7.253  19.500  0.00  0.00    +0.000 A 
ATOM      5  C   UNL     1       2.864   7.397  18.166  0.00  0.00    +0.000 A 
ATOM      6  C   UNL     1       2.466   8.577  17.533  0.00  0.00    +0.000 A 
ATOM      7  N   UNL     1       1.741   9.588  18.072  0.00  0.00    +0.000 NA
ATOM      8  C   UNL     1       1.365   9.408  19.370  0.00  0.00    +0.000 A 
ATOM      9  C   UNL     1       0.591  10.329  20.156  0.00  0.00    +0.000 A 
ENDROOT
BRANCH   5  10
ATOM     10  C   UNL     1       3.661   6.353  17.485  0.00  0.00    +0.000 A 
ATOM     11  C   UNL     1       4.714   6.687  16.616  0.00  0.00    +0.000 A 
ATOM     12  C   UNL     1       5.448   5.705  15.943  0.00  0.00    +0.000 A 
ATOM     13  C   UNL     1       5.170   4.357  16.142  0.00  0.00    +0.000 A 
ATOM     14  C   UNL     1       4.133   3.996  16.998  0.00  0.00    +0.000 A 
ATOM     15  C   UNL     1       3.386   4.983  17.657  0.00  0.00    +0.000 A 
BRANCH  13  16
ATOM     16  O   UNL     1       5.931   3.488  15.412  0.00  0.00    +0.000 OA
ATOM     17  C   UNL     1       6.448   4.003  14.190  0.00  0.00    +0.000 C 
ENDBRANCH  13  16
ENDBRANCH   5  10
BRANCH   9  18
ATOM     18  N   UNL     1       0.165  11.514  19.653  0.00  0.00    +0.000 N 
ATOM     19  H   UNL     1       0.665  11.946  18.878  0.00  0.00    +0.000 HD
ATOM     20  H   UNL     1      -0.763  11.887  19.835  0.00  0.00    +0.000 HD
ENDBRANCH   9  18
BRANCH   1  21
ATOM     21  C   UNL     1      -0.380  10.442  22.554  0.00  0.00    +0.000 C 
ATOM     22  O   UNL     1      -0.223  10.161  23.738  0.00  0.00    +0.000 OA
BRANCH  21  24
ATOM     23  C   UNL     1      -1.237  12.605  22.809  0.00  0.00    +0.000 C 
ATOM     24  O   UNL     1      -1.305  11.355  22.121  0.00  0.00    +0.000 OA
ENDBRANCH  21  24
ENDBRANCH   1  21
TORSDOF 5
ENDMDL
MODEL 6
REMARK VINA RESULT:      -7.0      2.937      8.698
REMARK  Name = 
REMARK  7 active torsions:
REMARK  status: ('A' for Active; 'I' for Inactive)
REMARK    1  A    between atoms: C_1  and  O_2
REMARK    2  A    between atoms: O_2  and  C_3
REMARK    3  A    between atoms: C_3  and  C_5
REMARK    4  A    between atoms: C_9  and  C_10
REMARK    5  A    between atoms: C_13  and  O_14
REMARK    6  A    between atoms: O_14  and  C_15
REMARK    7  A    between atoms: C_21  and  N_22
REMARK                            x       y       z     vdW  Elec       q    Type
REMARK                         _______ _______ _______ _____ _____    ______ ____
ROOT
ATOM      1  C   UNL     1       0.071  10.330  21.562  0.00  0.00    +0.000 A 
ATOM      2  S   UNL     1       0.847   8.823  21.862  0.00  0.00    +0.000 S 
ATOM      3  C   UNL     1       1.422   8.692  20.257  0.00  0.00    +0.000 A 
ATOM      4  C   UNL     1       2.189   7.663  19.694  0.00  0.00    +0.000 A 
ATOM      5  C   UNL     1       2.545   7.746  18.342  0.00  0.00    +0.000 A 
ATOM      6  C   UNL     1       2.099   8.881  17.662  0.00  0.00    +0.000 A 
ATOM      7  N   UNL     1       1.366   9.902  18.171  0.00  0.00    +0.000 NA
ATOM      8  C   UNL     1       1.035   9.782  19.488  0.00  0.00    +0.000 A 
ATOM      9  C   UNL     1       0.262  10.725  20.251  0.00  0.00    +0.000 A 
ENDROOT
BRANCH   5  10
ATOM     10  C   UNL     1       3.346   6.686  17.691  0.00  0.00    +0.000 A 
ATOM     11  C   UNL     1       3.049   5.325  17.881  0.00  0.00    +0.000 A 
ATOM     12  C   UNL     1       3.825   4.318  17.296  0.00  0.00    +0.000 A 
ATOM     13  C   UNL     1       4.902   4.643  16.479  0.00  0.00    +0.000 A 
ATOM     14  C   UNL     1       5.219   5.982  16.272  0.00  0.00    +0.000 A 
ATOM     15  C   UNL     1       4.452   6.989  16.876  0.00  0.00    +0.000 A 
BRANCH  13  16
ATOM     16  O   UNL     1       5.604   3.579  15.985  0.00  0.00    +0.000 OA
ATOM     17  C   UNL     1       6.282   3.810  14.755  0.00  0.00    +0.000 C 
ENDBRANCH  13  16
ENDBRANCH   5  10
BRANCH   9  18
ATOM     18  N   UNL     1      -0.208  11.871  19.701  0.00  0.00    +0.000 N 
ATOM     19  H   UNL     1       0.158  12.193  18.807  0.00  0.00    +0.000 HD
ATOM     20  H   UNL     1      -1.076  12.308  20.000  0.00  0.00    +0.000 HD
ENDBRANCH   9  18
BRANCH   1  21
ATOM     21  C   UNL     1      -0.636  10.941  22.669  0.00  0.00    +0.000 C 
ATOM     22  O   UNL     1      -1.412  10.373  23.432  0.00  0.00    +0.000 OA
BRANCH  21  24
ATOM     23  C   UNL     1      -1.487  13.100  22.968  0.00  0.00    +0.000 C 
ATOM     24  O   UNL     1      -0.339  12.274  22.765  0.00  0.00    +0.000 OA
ENDBRANCH  21  24
ENDBRANCH   1  21
TORSDOF 5
ENDMDL
MODEL 7
REMARK VINA RESULT:      -6.9      2.816      3.507
REMARK  Name = 
REMARK  7 active torsions:
REMARK  status: ('A' for Active; 'I' for Inactive)
REMARK    1  A    between atoms: C_1  and  O_2
REMARK    2  A    between atoms: O_2  and  C_3
REMARK    3  A    between atoms: C_3  and  C_5
REMARK    4  A    between atoms: C_9  and  C_10
REMARK    5  A    between atoms: C_13  and  O_14
REMARK    6  A    between atoms: O_14  and  C_15
REMARK    7  A    between atoms: C_21  and  N_22
REMARK                            x       y       z     vdW  Elec       q    Type
REMARK                         _______ _______ _______ _____ _____    ______ ____
ROOT
ATOM      1  C   UNL     1       3.455   4.505  19.196  0.00  0.00    +0.000 A 
ATOM      2  S   UNL     1       2.563   4.759  20.645  0.00  0.00    +0.000 S 
ATOM      3  C   UNL     1       2.152   6.364  20.223  0.00  0.00    +0.000 A 
ATOM      4  C   UNL     1       1.387   7.283  20.956  0.00  0.00    +0.000 A 
ATOM      5  C   UNL     1       1.181   8.564  20.428  0.00  0.00    +0.000 A 
ATOM      6  C   UNL     1       1.764   8.813  19.184  0.00  0.00    +0.000 A 
ATOM      7  N   UNL     1       2.500   7.951  18.440  0.00  0.00    +0.000 NA
ATOM      8  C   UNL     1       2.683   6.717  18.989  0.00  0.00    +0.000 A 
ATOM      9  C   UNL     1       3.427   5.636  18.401  0.00  0.00    +0.000 A 
ENDROOT
BRANCH   5  10
ATOM     10  C   UNL     1       0.389   9.578  21.159  0.00  0.00    +0.000 A 
ATOM     11  C   UNL     1      -0.087   9.336  22.460  0.00  0.00    +0.000 A 
ATOM     12  C   UNL     1      -0.865  10.278  23.141  0.00  0.00    +0.000 A 
ATOM     13  C   UNL     1      -1.164  11.502  22.555  0.00  0.00    +0.000 A 
ATOM     14  C   UNL     1      -0.706  11.770  21.268  0.00  0.00    +0.000 A 
ATOM     15  C   UNL     1       0.058  10.816  20.579  0.00  0.00    +0.000 A 
BRANCH  13  16
ATOM     16  O   UNL     1      -1.953  12.332  23.301  0.00  0.00    +0.000 OA
ATOM     17  C   UNL     1      -3.319  12.401  22.904  0.00  0.00    +0.000 C 
ENDBRANCH  13  16
ENDBRANCH   5  10
BRANCH   9  18
ATOM     18  N   UNL     1       4.021   5.756  17.189  0.00  0.00    +0.000 N 
ATOM     19  H   UNL     1       3.894   6.607  16.643  0.00  0.00    +0.000 HD
ATOM     20  H   UNL     1       4.784   5.155  16.888  0.00  0.00    +0.000 HD
ENDBRANCH   9  18
BRANCH   1  21
ATOM     21  C   UNL     1       4.078   3.208  19.023  0.00  0.00    +0.000 C 
ATOM     22  O   UNL     1       4.803   2.642  19.834  0.00  0.00    +0.000 OA
BRANCH  21  24
ATOM     23  C   UNL     1       2.439   2.144  17.736  0.00  0.00    +0.000 C 
ATOM     24  O   UNL     1       3.764   2.673  17.802  0.00  0.00    +0.000 OA
ENDBRANCH  21  24
ENDBRANCH   1  21
TORSDOF 5
ENDMDL
MODEL 8
REMARK VINA RESULT:      -6.9      2.040      8.210
REMARK  Name = 
REMARK  7 active torsions:
REMARK  status: ('A' for Active; 'I' for Inactive)
REMARK    1  A    between atoms: C_1  and  O_2
REMARK    2  A    between atoms: O_2  and  C_3
REMARK    3  A    between atoms: C_3  and  C_5
REMARK    4  A    between atoms: C_9  and  C_10
REMARK    5  A    between atoms: C_13  and  O_14
REMARK    6  A    between atoms: O_14  and  C_15
REMARK    7  A    between atoms: C_21  and  N_22
REMARK                            x       y       z     vdW  Elec       q    Type
REMARK                         _______ _______ _______ _____ _____    ______ ____
ROOT
ATOM      1  C   UNL     1       0.343  10.566  19.945  0.00  0.00    +0.000 A 
ATOM      2  S   UNL     1       1.104  10.456  18.405  0.00  0.00    +0.000 S 
ATOM      3  C   UNL     1       1.751   8.906  18.731  0.00  0.00    +0.000 A 
ATOM      4  C   UNL     1       2.545   8.107  17.897  0.00  0.00    +0.000 A 
ATOM      5  C   UNL     1       2.984   6.864  18.369  0.00  0.00    +0.000 A 
ATOM      6  C   UNL     1       2.574   6.522  19.660  0.00  0.00    +0.000 A 
ATOM      7  N   UNL     1       1.800   7.259  20.493  0.00  0.00    +0.000 NA
ATOM      8  C   UNL     1       1.396   8.465  19.999  0.00  0.00    +0.000 A 
ATOM      9  C   UNL     1       0.579   9.425  20.689  0.00  0.00    +0.000 A 
ENDROOT
BRANCH   5  10
ATOM     10  C   UNL     1       3.831   5.981  17.538  0.00  0.00    +0.000 A 
ATOM     11  C   UNL     1       4.786   6.508  16.650  0.00  0.00    +0.000 A 
ATOM     12  C   UNL     1       5.565   5.678  15.836  0.00  0.00    +0.000 A 
ATOM     13  C   UNL     1       5.434   4.296  15.907  0.00  0.00    +0.000 A 
ATOM     14  C   UNL     1       4.498   3.746  16.778  0.00  0.00    +0.000 A 
ATOM     15  C   UNL     1       3.704   4.580  17.579  0.00  0.00    +0.000 A 
BRANCH  13  16
ATOM     16  O   UNL     1       6.225   3.588  15.047  0.00  0.00    +0.000 OA
ATOM     17  C   UNL     1       6.094   3.929  13.671  0.00  0.00    +0.000 C 
ENDBRANCH  13  16
ENDBRANCH   5  10
BRANCH   9  18
ATOM     18  N   UNL     1       0.107   9.193  21.939  0.00  0.00    +0.000 N 
ATOM     19  H   UNL     1      -0.395   9.927  22.436  0.00  0.00    +0.000 HD
ATOM     20  H   UNL     1       0.007   8.258  22.324  0.00  0.00    +0.000 HD
ENDBRANCH   9  18
BRANCH   1  21
ATOM     21  C   UNL     1      -0.399  11.778  20.229  0.00  0.00    +0.000 C 
ATOM     22  O   UNL     1      -0.497  12.324  21.323  0.00  0.00    +0.000 OA
BRANCH  21  24
ATOM     23  C   UNL     1      -2.370  11.842  18.970  0.00  0.00    +0.000 C 
ATOM     24  O   UNL     1      -1.009  12.256  19.100  0.00  0.00    +0.000 OA
ENDBRANCH  21  24
ENDBRANCH   1  21
TORSDOF 5
ENDMDL
MODEL 9
REMARK VINA RESULT:      -6.8      1.447      1.996
REMARK  Name = 
REMARK  7 active torsions:
REMARK  status: ('A' for Active; 'I' for Inactive)
REMARK    1  A    between atoms: C_1  and  O_2
REMARK    2  A    between atoms: O_2  and  C_3
REMARK    3  A    between atoms: C_3  and  C_5
REMARK    4  A    between atoms: C_9  and  C_10
REMARK    5  A    between atoms: C_13  and  O_14
REMARK    6  A    between atoms: O_14  and  C_15
REMARK    7  A    between atoms: C_21  and  N_22
REMARK                            x       y       z     vdW  Elec       q    Type
REMARK                         _______ _______ _______ _____ _____    ______ ____
ROOT
ATOM      1  C   UNL     1       5.520   4.965  15.727  0.00  0.00    +0.000 A 
ATOM      2  S   UNL     1       5.163   6.647  15.794  0.00  0.00    +0.000 S 
ATOM      3  C   UNL     1       4.122   6.469  17.139  0.00  0.00    +0.000 A 
ATOM      4  C   UNL     1       3.402   7.465  17.814  0.00  0.00    +0.000 A 
ATOM      5  C   UNL     1       2.588   7.097  18.892  0.00  0.00    +0.000 A 
ATOM      6  C   UNL     1       2.574   5.738  19.211  0.00  0.00    +0.000 A 
ATOM      7  N   UNL     1       3.262   4.747  18.593  0.00  0.00    +0.000 NA
ATOM      8  C   UNL     1       4.038   5.143  17.544  0.00  0.00    +0.000 A 
ATOM      9  C   UNL     1       4.853   4.284  16.729  0.00  0.00    +0.000 A 
ENDROOT
BRANCH   5  10
ATOM     10  C   UNL     1       1.799   8.103  19.638  0.00  0.00    +0.000 A 
ATOM     11  C   UNL     1       1.427   7.894  20.978  0.00  0.00    +0.000 A 
ATOM     12  C   UNL     1       0.651   8.825  21.676  0.00  0.00    +0.000 A 
ATOM     13  C   UNL     1       0.249  10.007  21.064  0.00  0.00    +0.000 A 
ATOM     14  C   UNL     1       0.603  10.242  19.739  0.00  0.00    +0.000 A 
ATOM     15  C   UNL     1       1.364   9.297  19.035  0.00  0.00    +0.000 A 
BRANCH  13  16
ATOM     16  O   UNL     1      -0.528  10.829  21.832  0.00  0.00    +0.000 OA
ATOM     17  C   UNL     1      -0.316  12.224  21.646  0.00  0.00    +0.000 C 
ENDBRANCH  13  16
ENDBRANCH   5  10
BRANCH   9  18
ATOM     18  N   UNL     1       4.932   2.950  16.956  0.00  0.00    +0.000 N 
ATOM     19  H   UNL     1       5.838   2.485  16.937  0.00  0.00    +0.000 HD
ATOM     20  H   UNL     1       4.178   2.420  17.385  0.00  0.00    +0.000 HD
ENDBRANCH   9  18
BRANCH   1  21
ATOM     21  C   UNL     1       6.422   4.522  14.683  0.00  0.00    +0.000 C 
ATOM     22  O   UNL     1       6.304   3.501  14.013  0.00  0.00    +0.000 OA
BRANCH  21  24
ATOM     23  C   UNL     1       8.002   5.417  13.208  0.00  0.00    +0.000 C 
ATOM     24  O   UNL     1       7.463   5.398  14.530  0.00  0.00    +0.000 OA
ENDBRANCH  21  24
ENDBRANCH   1  21
TORSDOF 5
ENDMDL
