MODEL 1
REMARK VINA RESULT:      -8.4      0.000      0.000
REMARK  Name = 
REMARK  15 active torsions:
REMARK  status: ('A' for Active; 'I' for Inactive)
REMARK    1  A    between atoms: C_1  and  O_2
REMARK    2  A    between atoms: O_2  and  C_3
REMARK    3  A    between atoms: C_3  and  C_5
REMARK    4  A    between atoms: C_5  and  C_6
REMARK    5  A    between atoms: C_5  and  N_15
REMARK    6  A    between atoms: C_6  and  C_7
REMARK    7  A    between atoms: C_10  and  O_11
REMARK    8  A    between atoms: C_12  and  O_13
REMARK    9  A    between atoms: C_16  and  C_18
REMARK   10  A    between atoms: C_19  and  C_20
REMARK   11  A    between atoms: C_22  and  O_23
REMARK   12  A    between atoms: O_23  and  C_24
REMARK   13  A    between atoms: C_25  and  O_26
REMARK   14  A    between atoms: C_27  and  O_28
REMARK   15  A    between atoms: O_28  and  C_29
REMARK                            x       y       z     vdW  Elec       q    Type
REMARK                         _______ _______ _______ _____ _____    ______ ____
ROOT
ATOM      1  N   UNL     1       6.715   7.003  16.731  0.00  0.00    +0.000 N 
ATOM      2  C   UNL     1       7.551   7.245  17.787  0.00  0.00    +0.000 C 
ATOM      3  O   UNL     1       7.859   6.390  18.611  0.00  0.00    +0.000 OA
ATOM      4  H   UNL     1       6.588   7.700  16.000  0.00  0.00    +0.000 HD
ENDROOT
BRANCH   2   5
ATOM      5  C   UNL     1       8.054   8.636  17.846  0.00  0.00    +0.000 C 
ATOM      6  C   UNL     1       8.883   8.986  18.842  0.00  0.00    +0.000 C 
BRANCH   6   7
ATOM      7  C   UNL     1       9.297  10.373  19.045  0.00  0.00    +0.000 A 
ATOM      8  C   UNL     1       9.366  10.860  20.355  0.00  0.00    +0.000 A 
ATOM      9  C   UNL     1       9.703  12.190  20.592  0.00  0.00    +0.000 A 
ATOM     10  C   UNL     1       9.982  13.022  19.498  0.00  0.00    +0.000 A 
ATOM     11  C   UNL     1       9.939  12.546  18.179  0.00  0.00    +0.000 A 
ATOM     12  C   UNL     1       9.593  11.209  17.962  0.00  0.00    +0.000 A 
BRANCH   9  13
ATOM     13  O   UNL     1       9.780  12.786  21.827  0.00  0.00    +0.000 OA
ATOM     14  C   UNL     1       8.564  12.868  22.564  0.00  0.00    +0.000 C 
ENDBRANCH   9  13
BRANCH  10  15
ATOM     15  O   UNL     1      10.298  14.339  19.736  0.00  0.00    +0.000 OA
ATOM     16  H   UNL     1      11.242  14.423  19.506  0.00  0.00    +0.000 HD
ENDBRANCH  10  15
BRANCH  11  17
ATOM     17  O   UNL     1      10.235  13.453  17.195  0.00  0.00    +0.000 OA
ATOM     18  C   UNL     1      11.518  13.366  16.590  0.00  0.00    +0.000 C 
ENDBRANCH  11  17
ENDBRANCH   6   7
ENDBRANCH   2   5
BRANCH   1  19
ATOM     19  C   UNL     1       6.200   5.661  16.462  0.00  0.00    +0.000 C 
BRANCH  19  20
ATOM     20  C   UNL     1       6.902   5.111  15.218  0.00  0.00    +0.000 C 
ATOM     21  O   UNL     1       7.860   5.655  14.677  0.00  0.00    +0.000 OA
BRANCH  20  23
ATOM     22  C   UNL     1       6.148   3.776  13.423  0.00  0.00    +0.000 C 
ATOM     23  O   UNL     1       6.348   3.930  14.830  0.00  0.00    +0.000 OA
ENDBRANCH  20  23
ENDBRANCH  19  20
BRANCH  19  24
ATOM     24  C   UNL     1       4.658   5.593  16.375  0.00  0.00    +0.000 C 
BRANCH  24  25
ATOM     25  C   UNL     1       3.986   4.721  17.415  0.00  0.00    +0.000 A 
ATOM     26  C   UNL     1       4.099   3.320  17.347  0.00  0.00    +0.000 A 
ATOM     27  C   UNL     1       3.385   2.497  18.222  0.00  0.00    +0.000 A 
ATOM     28  C   UNL     1       2.604   3.080  19.211  0.00  0.00    +0.000 A 
ATOM     29  C   UNL     1       2.563   4.464  19.347  0.00  0.00    +0.000 A 
ATOM     30  C   UNL     1       3.230   5.290  18.449  0.00  0.00    +0.000 A 
BRANCH  28  31
ATOM     31  O   UNL     1       1.859   2.329  20.077  0.00  0.00    +0.000 OA
ATOM     32  H   UNL     1       2.201   1.419  20.055  0.00  0.00    +0.000 HD
ENDBRANCH  28  31
BRANCH  29  33
ATOM     33  O   UNL     1       1.858   5.023  20.375  0.00  0.00    +0.000 OA
ATOM     34  H   UNL     1       2.542   5.293  21.020  0.00  0.00    +0.000 HD
ENDBRANCH  29  33
ENDBRANCH  24  25
ENDBRANCH  19  24
ENDBRANCH   1  19
TORSDOF 12
ENDMDL
MODEL 2
REMARK VINA RESULT:      -8.2      1.190      1.486
REMARK  Name = 
REMARK  15 active torsions:
REMARK  status: ('A' for Active; 'I' for Inactive)
REMARK    1  A    between atoms: C_1  and  O_2
REMARK    2  A    between atoms: O_2  and  C_3
REMARK    3  A    between atoms: C_3  and  C_5
REMARK    4  A    between atoms: C_5  and  C_6
REMARK    5  A    between atoms: C_5  and  N_15
REMARK    6  A    between atoms: C_6  and  C_7
REMARK    7  A    between atoms: C_10  and  O_11
REMARK    8  A    between atoms: C_12  and  O_13
REMARK    9  A    between atoms: C_16  and  C_18
REMARK   10  A    between atoms: C_19  and  C_20
REMARK   11  A    between atoms: C_22  and  O_23
REMARK   12  A    between atoms: O_23  and  C_24
REMARK   13  A    between atoms: C_25  and  O_26
REMARK   14  A    between atoms: C_27  and  O_28
REMARK   15  A    between atoms: O_28  and  C_29
REMARK                            x       y       z     vdW  Elec       q    Type
REMARK                         _______ _______ _______ _____ _____    ______ ____
ROOT
ATOM      1  N   UNL     1       6.438   7.563  17.344  0.00  0.00    +0.000 N 
ATOM      2  C   UNL     1       7.654   7.644  17.966  0.00  0.00    +0.000 C 
ATOM      3  O   UNL     1       8.188   6.693  18.530  0.00  0.00    +0.000 OA
ATOM      4  H   UNL     1       6.092   8.335  16.779  0.00  0.00    +0.000 HD
ENDROOT
BRANCH   2   5
ATOM      5  C   UNL     1       8.273   8.987  17.897  0.00  0.00    +0.000 C 
ATOM      6  C   UNL     1       8.923   9.461  18.973  0.00  0.00    +0.000 C 
BRANCH   6   7
ATOM      7  C   UNL     1       9.426  10.832  19.025  0.00  0.00    +0.000 A 
ATOM      8  C   UNL     1       9.337  11.526  20.237  0.00  0.00    +0.000 A 
ATOM      9  C   UNL     1       9.753  12.852  20.317  0.00  0.00    +0.000 A 
ATOM     10  C   UNL     1      10.273  13.469  19.170  0.00  0.00    +0.000 A 
ATOM     11  C   UNL     1      10.390  12.782  17.952  0.00  0.00    +0.000 A 
ATOM     12  C   UNL     1       9.960  11.452  17.890  0.00  0.00    +0.000 A 
BRANCH   9  13
ATOM     13  O   UNL     1       9.695  13.639  21.440  0.00  0.00    +0.000 OA
ATOM     14  C   UNL     1       9.037  13.076  22.571  0.00  0.00    +0.000 C 
ENDBRANCH   9  13
BRANCH  10  15
ATOM     15  O   UNL     1      10.668  14.783  19.250  0.00  0.00    +0.000 OA
ATOM     16  H   UNL     1      10.685  14.990  20.202  0.00  0.00    +0.000 HD
ENDBRANCH  10  15
BRANCH  11  17
ATOM     17  O   UNL     1      10.915  13.490  16.902  0.00  0.00    +0.000 OA
ATOM     18  C   UNL     1      12.330  13.507  16.769  0.00  0.00    +0.000 C 
ENDBRANCH  11  17
ENDBRANCH   6   7
ENDBRANCH   2   5
BRANCH   1  19
ATOM     19  C   UNL     1       5.727   6.289  17.231  0.00  0.00    +0.000 C 
BRANCH  19  20
ATOM     20  C   UNL     1       5.813   5.813  15.779  0.00  0.00    +0.000 C 
ATOM     21  O   UNL     1       5.238   6.360  14.843  0.00  0.00    +0.000 OA
BRANCH  20  23
ATOM     22  C   UNL     1       6.146   3.656  14.878  0.00  0.00    +0.000 C 
ATOM     23  O   UNL     1       6.642   4.738  15.670  0.00  0.00    +0.000 OA
ENDBRANCH  20  23
ENDBRANCH  19  20
BRANCH  19  24
ATOM     24  C   UNL     1       4.282   6.335  17.775  0.00  0.00    +0.000 C 
BRANCH  24  25
ATOM     25  C   UNL     1       3.620   4.987  17.976  0.00  0.00    +0.000 A 
ATOM     26  C   UNL     1       2.242   4.830  17.742  0.00  0.00    +0.000 A 
ATOM     27  C   UNL     1       1.593   3.629  18.040  0.00  0.00    +0.000 A 
ATOM     28  C   UNL     1       2.338   2.559  18.515  0.00  0.00    +0.000 A 
ATOM     29  C   UNL     1       3.718   2.674  18.658  0.00  0.00    +0.000 A 
ATOM     30  C   UNL     1       4.363   3.881  18.412  0.00  0.00    +0.000 A 
BRANCH  28  31
ATOM     31  O   UNL     1       1.756   1.369  18.854  0.00  0.00    +0.000 OA
ATOM     32  H   UNL     1       2.439   0.805  19.255  0.00  0.00    +0.000 HD
ENDBRANCH  28  31
BRANCH  29  33
ATOM     33  O   UNL     1       4.451   1.589  19.047  0.00  0.00    +0.000 OA
ATOM     34  H   UNL     1       3.875   1.123  19.685  0.00  0.00    +0.000 HD
ENDBRANCH  29  33
ENDBRANCH  24  25
ENDBRANCH  19  24
ENDBRANCH   1  19
TORSDOF 12
ENDMDL
MODEL 3
REMARK VINA RESULT:      -8.1      0.858      1.571
REMARK  Name = 
REMARK  15 active torsions:
REMARK  status: ('A' for Active; 'I' for Inactive)
REMARK    1  A    between atoms: C_1  and  O_2
REMARK    2  A    between atoms: O_2  and  C_3
REMARK    3  A    between atoms: C_3  and  C_5
REMARK    4  A    between atoms: C_5  and  C_6
REMARK    5  A    between atoms: C_5  and  N_15
REMARK    6  A    between atoms: C_6  and  C_7
REMARK    7  A    between atoms: C_10  and  O_11
REMARK    8  A    between atoms: C_12  and  O_13
REMARK    9  A    between atoms: C_16  and  C_18
REMARK   10  A    between atoms: C_19  and  C_20
REMARK   11  A    between atoms: C_22  and  O_23
REMARK   12  A    between atoms: O_23  and  C_24
REMARK   13  A    between atoms: C_25  and  O_26
REMARK   14  A    between atoms: C_27  and  O_28
REMARK   15  A    between atoms: O_28  and  C_29
REMARK                            x       y       z     vdW  Elec       q    Type
REMARK                         _______ _______ _______ _____ _____    ______ ____
ROOT
ATOM      1  N   UNL     1       6.854   6.725  16.394  0.00  0.00    +0.000 N 
ATOM      2  C   UNL     1       7.381   7.054  17.613  0.00  0.00    +0.000 C 
ATOM      3  O   UNL     1       7.382   6.291  18.574  0.00  0.00    +0.000 OA
ATOM      4  H   UNL     1       6.988   7.334  15.590  0.00  0.00    +0.000 HD
ENDROOT
BRANCH   2   5
ATOM      5  C   UNL     1       7.952   8.418  17.670  0.00  0.00    +0.000 C 
ATOM      6  C   UNL     1       8.718   8.761  18.719  0.00  0.00    +0.000 C 
BRANCH   6   7
ATOM      7  C   UNL     1       9.189  10.131  18.911  0.00  0.00    +0.000 A 
ATOM      8  C   UNL     1       9.146  10.672  20.201  0.00  0.00    +0.000 A 
ATOM      9  C   UNL     1       9.533  11.991  20.421  0.00  0.00    +0.000 A 
ATOM     10  C   UNL     1       9.976  12.756  19.333  0.00  0.00    +0.000 A 
ATOM     11  C   UNL     1      10.047  12.224  18.036  0.00  0.00    +0.000 A 
ATOM     12  C   UNL     1       9.648  10.899  17.835  0.00  0.00    +0.000 A 
BRANCH   9  13
ATOM     13  O   UNL     1       9.514  12.636  21.633  0.00  0.00    +0.000 OA
ATOM     14  C   UNL     1       8.650  12.089  22.624  0.00  0.00    +0.000 C 
ENDBRANCH   9  13
BRANCH  10  15
ATOM     15  O   UNL     1      10.343  14.063  19.552  0.00  0.00    +0.000 OA
ATOM     16  H   UNL     1      11.274  14.122  19.266  0.00  0.00    +0.000 HD
ENDBRANCH  10  15
BRANCH  11  17
ATOM     17  O   UNL     1      10.499  13.068  17.056  0.00  0.00    +0.000 OA
ATOM     18  C   UNL     1      11.902  13.123  16.837  0.00  0.00    +0.000 C 
ENDBRANCH  11  17
ENDBRANCH   6   7
ENDBRANCH   2   5
BRANCH   1  19
ATOM     19  C   UNL     1       6.332   5.384  16.129  0.00  0.00    +0.000 C 
BRANCH  19  20
ATOM     20  C   UNL     1       6.993   4.849  14.856  0.00  0.00    +0.000 C 
ATOM     21  O   UNL     1       6.630   3.833  14.271  0.00  0.00    +0.000 OA
BRANCH  20  23
ATOM     22  C   UNL     1       8.279   5.653  13.047  0.00  0.00    +0.000 C 
ATOM     23  O   UNL     1       7.996   5.674  14.448  0.00  0.00    +0.000 OA
ENDBRANCH  20  23
ENDBRANCH  19  20
BRANCH  19  24
ATOM     24  C   UNL     1       4.789   5.313  16.095  0.00  0.00    +0.000 C 
BRANCH  24  25
ATOM     25  C   UNL     1       4.114   5.205  17.446  0.00  0.00    +0.000 A 
ATOM     26  C   UNL     1       3.451   6.316  18.000  0.00  0.00    +0.000 A 
ATOM     27  C   UNL     1       2.932   6.272  19.297  0.00  0.00    +0.000 A 
ATOM     28  C   UNL     1       3.020   5.090  20.020  0.00  0.00    +0.000 A 
ATOM     29  C   UNL     1       3.587   3.957  19.444  0.00  0.00    +0.000 A 
ATOM     30  C   UNL     1       4.151   4.008  18.174  0.00  0.00    +0.000 A 
BRANCH  28  31
ATOM     31  O   UNL     1       2.558   4.994  21.302  0.00  0.00    +0.000 OA
ATOM     32  H   UNL     1       2.349   4.061  21.476  0.00  0.00    +0.000 HD
ENDBRANCH  28  31
BRANCH  29  33
ATOM     33  O   UNL     1       3.593   2.778  20.133  0.00  0.00    +0.000 OA
ATOM     34  H   UNL     1       2.649   2.539  20.213  0.00  0.00    +0.000 HD
ENDBRANCH  29  33
ENDBRANCH  24  25
ENDBRANCH  19  24
ENDBRANCH   1  19
TORSDOF 12
ENDMDL
MODEL 4
REMARK VINA RESULT:      -8.0      0.866      2.524
REMARK  Name = 
REMARK  15 active torsions:
REMARK  status: ('A' for Active; 'I' for Inactive)
REMARK    1  A    between atoms: C_1  and  O_2
REMARK    2  A    between atoms: O_2  and  C_3
REMARK    3  A    between atoms: C_3  and  C_5
REMARK    4  A    between atoms: C_5  and  C_6
REMARK    5  A    between atoms: C_5  and  N_15
REMARK    6  A    between atoms: C_6  and  C_7
REMARK    7  A    between atoms: C_10  and  O_11
REMARK    8  A    between atoms: C_12  and  O_13
REMARK    9  A    between atoms: C_16  and  C_18
REMARK   10  A    between atoms: C_19  and  C_20
REMARK   11  A    between atoms: C_22  and  O_23
REMARK   12  A    between atoms: O_23  and  C_24
REMARK   13  A    between atoms: C_25  and  O_26
REMARK   14  A    between atoms: C_27  and  O_28
REMARK   15  A    between atoms: O_28  and  C_29
REMARK                            x       y       z     vdW  Elec       q    Type
REMARK                         _______ _______ _______ _____ _____    ______ ____
ROOT
ATOM      1  N   UNL     1       6.712   7.277  16.907  0.00  0.00    +0.000 N 
ATOM      2  C   UNL     1       7.622   7.430  17.918  0.00  0.00    +0.000 C 
ATOM      3  O   UNL     1       7.891   6.543  18.722  0.00  0.00    +0.000 OA
ATOM      4  H   UNL     1       6.613   7.989  16.187  0.00  0.00    +0.000 HD
ENDROOT
BRANCH   2   5
ATOM      5  C   UNL     1       8.257   8.767  17.955  0.00  0.00    +0.000 C 
ATOM      6  C   UNL     1       8.982   9.114  19.030  0.00  0.00    +0.000 C 
BRANCH   6   7
ATOM      7  C   UNL     1       9.510  10.466  19.197  0.00  0.00    +0.000 A 
ATOM      8  C   UNL     1      10.404  10.953  18.237  0.00  0.00    +0.000 A 
ATOM      9  C   UNL     1      10.973  12.214  18.384  0.00  0.00    +0.000 A 
ATOM     10  C   UNL     1      10.624  12.988  19.501  0.00  0.00    +0.000 A 
ATOM     11  C   UNL     1       9.713  12.526  20.463  0.00  0.00    +0.000 A 
ATOM     12  C   UNL     1       9.156  11.253  20.299  0.00  0.00    +0.000 A 
BRANCH   9  13
ATOM     13  O   UNL     1      11.876  12.788  17.523  0.00  0.00    +0.000 OA
ATOM     14  C   UNL     1      11.329  13.566  16.463  0.00  0.00    +0.000 C 
ENDBRANCH   9  13
BRANCH  10  15
ATOM     15  O   UNL     1      11.201  14.227  19.651  0.00  0.00    +0.000 OA
ATOM     16  H   UNL     1      11.902  14.106  20.318  0.00  0.00    +0.000 HD
ENDBRANCH  10  15
BRANCH  11  17
ATOM     17  O   UNL     1       9.448  13.373  21.507  0.00  0.00    +0.000 OA
ATOM     18  C   UNL     1       8.170  13.992  21.539  0.00  0.00    +0.000 C 
ENDBRANCH  11  17
ENDBRANCH   6   7
ENDBRANCH   2   5
BRANCH   1  19
ATOM     19  C   UNL     1       6.059   5.991  16.662  0.00  0.00    +0.000 C 
BRANCH  19  20
ATOM     20  C   UNL     1       6.612   5.407  15.359  0.00  0.00    +0.000 C 
ATOM     21  O   UNL     1       7.772   5.548  14.983  0.00  0.00    +0.000 OA
BRANCH  20  23
ATOM     22  C   UNL     1       6.130   3.871  13.632  0.00  0.00    +0.000 C 
ATOM     23  O   UNL     1       5.658   4.684  14.710  0.00  0.00    +0.000 OA
ENDBRANCH  20  23
ENDBRANCH  19  20
BRANCH  19  24
ATOM     24  C   UNL     1       4.516   6.062  16.694  0.00  0.00    +0.000 C 
BRANCH  24  25
ATOM     25  C   UNL     1       3.844   5.132  17.683  0.00  0.00    +0.000 A 
ATOM     26  C   UNL     1       3.629   5.542  19.012  0.00  0.00    +0.000 A 
ATOM     27  C   UNL     1       3.125   4.654  19.966  0.00  0.00    +0.000 A 
ATOM     28  C   UNL     1       2.775   3.369  19.576  0.00  0.00    +0.000 A 
ATOM     29  C   UNL     1       2.893   2.985  18.243  0.00  0.00    +0.000 A 
ATOM     30  C   UNL     1       3.441   3.846  17.298  0.00  0.00    +0.000 A 
BRANCH  28  31
ATOM     31  O   UNL     1       2.306   2.447  20.469  0.00  0.00    +0.000 OA
ATOM     32  H   UNL     1       1.436   2.748  20.782  0.00  0.00    +0.000 HD
ENDBRANCH  28  31
BRANCH  29  33
ATOM     33  O   UNL     1       2.468   1.746  17.855  0.00  0.00    +0.000 OA
ATOM     34  H   UNL     1       3.242   1.167  18.001  0.00  0.00    +0.000 HD
ENDBRANCH  29  33
ENDBRANCH  24  25
ENDBRANCH  19  24
ENDBRANCH   1  19
TORSDOF 12
ENDMDL
MODEL 5
REMARK VINA RESULT:      -8.0      1.160      2.470
REMARK  Name = 
REMARK  15 active torsions:
REMARK  status: ('A' for Active; 'I' for Inactive)
REMARK    1  A    between atoms: C_1  and  O_2
REMARK    2  A    between atoms: O_2  and  C_3
REMARK    3  A    between atoms: C_3  and  C_5
REMARK    4  A    between atoms: C_5  and  C_6
REMARK    5  A    between atoms: C_5  and  N_15
REMARK    6  A    between atoms: C_6  and  C_7
REMARK    7  A    between atoms: C_10  and  O_11
REMARK    8  A    between atoms: C_12  and  O_13
REMARK    9  A    between atoms: C_16  and  C_18
REMARK   10  A    between atoms: C_19  and  C_20
REMARK   11  A    between atoms: C_22  and  O_23
REMARK   12  A    between atoms: O_23  and  C_24
REMARK   13  A    between atoms: C_25  and  O_26
REMARK   14  A    between atoms: C_27  and  O_28
REMARK   15  A    between atoms: O_28  and  C_29
REMARK                            x       y       z     vdW  Elec       q    Type
REMARK                         _______ _______ _______ _____ _____    ______ ____
ROOT
ATOM      1  N   UNL     1       6.792   7.550  17.291  0.00  0.00    +0.000 N 
ATOM      2  C   UNL     1       7.859   7.619  18.144  0.00  0.00    +0.000 C 
ATOM      3  O   UNL     1       8.205   6.690  18.867  0.00  0.00    +0.000 OA
ATOM      4  H   UNL     1       6.618   8.293  16.617  0.00  0.00    +0.000 HD
ENDROOT
BRANCH   2   5
ATOM      5  C   UNL     1       8.564   8.921  18.118  0.00  0.00    +0.000 C 
ATOM      6  C   UNL     1       9.051   9.421  19.264  0.00  0.00    +0.000 C 
BRANCH   6   7
ATOM      7  C   UNL     1       9.623  10.764  19.335  0.00  0.00    +0.000 A 
ATOM      8  C   UNL     1      10.477  11.176  18.305  0.00  0.00    +0.000 A 
ATOM      9  C   UNL     1      11.087  12.426  18.358  0.00  0.00    +0.000 A 
ATOM     10  C   UNL     1      10.820  13.263  19.452  0.00  0.00    +0.000 A 
ATOM     11  C   UNL     1       9.950  12.876  20.482  0.00  0.00    +0.000 A 
ATOM     12  C   UNL     1       9.351  11.614  20.413  0.00  0.00    +0.000 A 
BRANCH   9  13
ATOM     13  O   UNL     1      11.957  12.930  17.423  0.00  0.00    +0.000 OA
ATOM     14  C   UNL     1      11.368  13.535  16.276  0.00  0.00    +0.000 C 
ENDBRANCH   9  13
BRANCH  10  15
ATOM     15  O   UNL     1      11.437  14.491  19.508  0.00  0.00    +0.000 OA
ATOM     16  H   UNL     1      10.890  15.081  18.958  0.00  0.00    +0.000 HD
ENDBRANCH  10  15
BRANCH  11  17
ATOM     17  O   UNL     1       9.766  13.781  21.495  0.00  0.00    +0.000 OA
ATOM     18  C   UNL     1       8.488  14.392  21.601  0.00  0.00    +0.000 C 
ENDBRANCH  11  17
ENDBRANCH   6   7
ENDBRANCH   2   5
BRANCH   1  19
ATOM     19  C   UNL     1       6.039   6.307  17.116  0.00  0.00    +0.000 C 
BRANCH  19  20
ATOM     20  C   UNL     1       6.732   5.467  16.041  0.00  0.00    +0.000 C 
ATOM     21  O   UNL     1       7.708   4.754  16.252  0.00  0.00    +0.000 OA
BRANCH  20  23
ATOM     22  C   UNL     1       5.825   4.363  14.162  0.00  0.00    +0.000 C 
ATOM     23  O   UNL     1       6.093   5.590  14.844  0.00  0.00    +0.000 OA
ENDBRANCH  20  23
ENDBRANCH  19  20
BRANCH  19  24
ATOM     24  C   UNL     1       4.533   6.527  16.846  0.00  0.00    +0.000 C 
BRANCH  24  25
ATOM     25  C   UNL     1       3.593   5.775  17.764  0.00  0.00    +0.000 A 
ATOM     26  C   UNL     1       3.115   4.501  17.403  0.00  0.00    +0.000 A 
ATOM     27  C   UNL     1       2.152   3.848  18.176  0.00  0.00    +0.000 A 
ATOM     28  C   UNL     1       1.710   4.442  19.350  0.00  0.00    +0.000 A 
ATOM     29  C   UNL     1       2.248   5.657  19.765  0.00  0.00    +0.000 A 
ATOM     30  C   UNL     1       3.169   6.337  18.976  0.00  0.00    +0.000 A 
BRANCH  28  31
ATOM     31  O   UNL     1       0.748   3.867  20.131  0.00  0.00    +0.000 OA
ATOM     32  H   UNL     1       0.260   4.579  20.580  0.00  0.00    +0.000 HD
ENDBRANCH  28  31
BRANCH  29  33
ATOM     33  O   UNL     1       1.867   6.192  20.963  0.00  0.00    +0.000 OA
ATOM     34  H   UNL     1       2.651   6.691  21.266  0.00  0.00    +0.000 HD
ENDBRANCH  29  33
ENDBRANCH  24  25
ENDBRANCH  19  24
ENDBRANCH   1  19
TORSDOF 12
ENDMDL
MODEL 6
REMARK VINA RESULT:      -7.9      6.180      9.875
REMARK  Name = 
REMARK  15 active torsions:
REMARK  status: ('A' for Active; 'I' for Inactive)
REMARK    1  A    between atoms: C_1  and  O_2
REMARK    2  A    between atoms: O_2  and  C_3
REMARK    3  A    between atoms: C_3  and  C_5
REMARK    4  A    between atoms: C_5  and  C_6
REMARK    5  A    between atoms: C_5  and  N_15
REMARK    6  A    between atoms: C_6  and  C_7
REMARK    7  A    between atoms: C_10  and  O_11
REMARK    8  A    between atoms: C_12  and  O_13
REMARK    9  A    between atoms: C_16  and  C_18
REMARK   10  A    between atoms: C_19  and  C_20
REMARK   11  A    between atoms: C_22  and  O_23
REMARK   12  A    between atoms: O_23  and  C_24
REMARK   13  A    between atoms: C_25  and  O_26
REMARK   14  A    between atoms: C_27  and  O_28
REMARK   15  A    between atoms: O_28  and  C_29
REMARK                            x       y       z     vdW  Elec       q    Type
REMARK                         _______ _______ _______ _____ _____    ______ ____
ROOT
ATOM      1  N   UNL     1       0.660   9.901  19.372  0.00  0.00    +0.000 N 
ATOM      2  C   UNL     1       1.583   9.477  18.456  0.00  0.00    +0.000 C 
ATOM      3  O   UNL     1       1.931  10.149  17.490  0.00  0.00    +0.000 OA
ATOM      4  H   UNL     1       0.495   9.371  20.225  0.00  0.00    +0.000 HD
ENDROOT
BRANCH   2   5
ATOM      5  C   UNL     1       2.128   8.129  18.734  0.00  0.00    +0.000 C 
ATOM      6  C   UNL     1       2.962   7.567  17.845  0.00  0.00    +0.000 C 
BRANCH   6   7
ATOM      7  C   UNL     1       3.417   6.185  17.985  0.00  0.00    +0.000 A 
ATOM      8  C   UNL     1       2.462   5.164  17.930  0.00  0.00    +0.000 A 
ATOM      9  C   UNL     1       2.842   3.837  18.113  0.00  0.00    +0.000 A 
ATOM     10  C   UNL     1       4.196   3.547  18.339  0.00  0.00    +0.000 A 
ATOM     11  C   UNL     1       5.171   4.555  18.376  0.00  0.00    +0.000 A 
ATOM     12  C   UNL     1       4.767   5.882  18.195  0.00  0.00    +0.000 A 
BRANCH   9  13
ATOM     13  O   UNL     1       1.996   2.756  18.103  0.00  0.00    +0.000 OA
ATOM     14  C   UNL     1       1.033   2.700  19.151  0.00  0.00    +0.000 C 
ENDBRANCH   9  13
BRANCH  10  15
ATOM     15  O   UNL     1       4.565   2.237  18.535  0.00  0.00    +0.000 OA
ATOM     16  H   UNL     1       4.771   1.891  17.647  0.00  0.00    +0.000 HD
ENDBRANCH  10  15
BRANCH  11  17
ATOM     17  O   UNL     1       6.460   4.147  18.601  0.00  0.00    +0.000 OA
ATOM     18  C   UNL     1       7.468   4.663  17.742  0.00  0.00    +0.000 C 
ENDBRANCH  11  17
ENDBRANCH   6   7
ENDBRANCH   2   5
BRANCH   1  19
ATOM     19  C   UNL     1       0.088  11.246  19.307  0.00  0.00    +0.000 C 
BRANCH  19  20
ATOM     20  C   UNL     1       0.834  12.139  20.301  0.00  0.00    +0.000 C 
ATOM     21  O   UNL     1       1.201  11.770  21.413  0.00  0.00    +0.000 OA
BRANCH  20  23
ATOM     22  C   UNL     1       1.290  13.395  18.355  0.00  0.00    +0.000 C 
ATOM     23  O   UNL     1       1.067  13.370  19.766  0.00  0.00    +0.000 OA
ENDBRANCH  20  23
ENDBRANCH  19  20
BRANCH  19  24
ATOM     24  C   UNL     1      -1.447  11.277  19.488  0.00  0.00    +0.000 C 
BRANCH  24  25
ATOM     25  C   UNL     1      -2.253  10.948  18.249  0.00  0.00    +0.000 A 
ATOM     26  C   UNL     1      -1.731  10.081  17.271  0.00  0.00    +0.000 A 
ATOM     27  C   UNL     1      -2.406   9.865  16.067  0.00  0.00    +0.000 A 
ATOM     28  C   UNL     1      -3.640  10.468  15.866  0.00  0.00    +0.000 A 
ATOM     29  C   UNL     1      -4.209  11.249  16.868  0.00  0.00    +0.000 A 
ATOM     30  C   UNL     1      -3.521  11.510  18.048  0.00  0.00    +0.000 A 
BRANCH  28  31
ATOM     31  O   UNL     1      -4.333  10.320  14.698  0.00  0.00    +0.000 OA
ATOM     32  H   UNL     1      -4.644   9.399  14.648  0.00  0.00    +0.000 HD
ENDBRANCH  28  31
BRANCH  29  33
ATOM     33  O   UNL     1      -5.460  11.769  16.692  0.00  0.00    +0.000 OA
ATOM     34  H   UNL     1      -5.598  11.747  15.724  0.00  0.00    +0.000 HD
ENDBRANCH  29  33
ENDBRANCH  24  25
ENDBRANCH  19  24
ENDBRANCH   1  19
TORSDOF 12
ENDMDL
MODEL 7
REMARK VINA RESULT:      -7.9      1.372      2.801
REMARK  Name = 
REMARK  15 active torsions:
REMARK  status: ('A' for Active; 'I' for Inactive)
REMARK    1  A    between atoms: C_1  and  O_2
REMARK    2  A    between atoms: O_2  and  C_3
REMARK    3  A    between atoms: C_3  and  C_5
REMARK    4  A    between atoms: C_5  and  C_6
REMARK    5  A    between atoms: C_5  and  N_15
REMARK    6  A    between atoms: C_6  and  C_7
REMARK    7  A    between atoms: C_10  and  O_11
REMARK    8  A    between atoms: C_12  and  O_13
REMARK    9  A    between atoms: C_16  and  C_18
REMARK   10  A    between atoms: C_19  and  C_20
REMARK   11  A    between atoms: C_22  and  O_23
REMARK   12  A    between atoms: O_23  and  C_24
REMARK   13  A    between atoms: C_25  and  O_26
REMARK   14  A    between atoms: C_27  and  O_28
REMARK   15  A    between atoms: O_28  and  C_29
REMARK                            x       y       z     vdW  Elec       q    Type
REMARK                         _______ _______ _______ _____ _____    ______ ____
ROOT
ATOM      1  N   UNL     1       7.272   6.069  17.574  0.00  0.00    +0.000 N 
ATOM      2  C   UNL     1       7.129   7.407  17.328  0.00  0.00    +0.000 C 
ATOM      3  O   UNL     1       6.294   7.864  16.554  0.00  0.00    +0.000 OA
ATOM      4  H   UNL     1       7.887   5.742  18.317  0.00  0.00    +0.000 HD
ENDROOT
BRANCH   2   5
ATOM      5  C   UNL     1       8.076   8.260  18.082  0.00  0.00    +0.000 C 
ATOM      6  C   UNL     1       8.043   9.589  17.900  0.00  0.00    +0.000 C 
BRANCH   6   7
ATOM      7  C   UNL     1       9.044  10.472  18.496  0.00  0.00    +0.000 A 
ATOM      8  C   UNL     1      10.019  11.028  17.661  0.00  0.00    +0.000 A 
ATOM      9  C   UNL     1      11.024  11.831  18.195  0.00  0.00    +0.000 A 
ATOM     10  C   UNL     1      11.030  12.078  19.576  0.00  0.00    +0.000 A 
ATOM     11  C   UNL     1      10.048  11.547  20.425  0.00  0.00    +0.000 A 
ATOM     12  C   UNL     1       9.050  10.738  19.870  0.00  0.00    +0.000 A 
BRANCH   9  13
ATOM     13  O   UNL     1      12.044  12.412  17.483  0.00  0.00    +0.000 OA
ATOM     14  C   UNL     1      11.659  13.354  16.487  0.00  0.00    +0.000 C 
ENDBRANCH   9  13
BRANCH  10  15
ATOM     15  O   UNL     1      12.033  12.858  20.101  0.00  0.00    +0.000 OA
ATOM     16  H   UNL     1      12.324  13.432  19.369  0.00  0.00    +0.000 HD
ENDBRANCH  10  15
BRANCH  11  17
ATOM     17  O   UNL     1      10.157  11.862  21.754  0.00  0.00    +0.000 OA
ATOM     18  C   UNL     1       9.093  12.598  22.342  0.00  0.00    +0.000 C 
ENDBRANCH  11  17
ENDBRANCH   6   7
ENDBRANCH   2   5
BRANCH   1  19
ATOM     19  C   UNL     1       6.359   5.087  16.989  0.00  0.00    +0.000 C 
BRANCH  19  20
ATOM     20  C   UNL     1       6.810   4.799  15.555  0.00  0.00    +0.000 C 
ATOM     21  O   UNL     1       7.759   5.356  15.011  0.00  0.00    +0.000 OA
BRANCH  20  23
ATOM     22  C   UNL     1       6.030   3.796  13.565  0.00  0.00    +0.000 C 
ATOM     23  O   UNL     1       6.047   3.821  14.994  0.00  0.00    +0.000 OA
ENDBRANCH  20  23
ENDBRANCH  19  20
BRANCH  19  24
ATOM     24  C   UNL     1       4.869   5.485  17.094  0.00  0.00    +0.000 C 
BRANCH  24  25
ATOM     25  C   UNL     1       3.925   4.367  17.483  0.00  0.00    +0.000 A 
ATOM     26  C   UNL     1       2.543   4.612  17.598  0.00  0.00    +0.000 A 
ATOM     27  C   UNL     1       1.675   3.627  18.076  0.00  0.00    +0.000 A 
ATOM     28  C   UNL     1       2.181   2.370  18.379  0.00  0.00    +0.000 A 
ATOM     29  C   UNL     1       3.529   2.090  18.176  0.00  0.00    +0.000 A 
ATOM     30  C   UNL     1       4.408   3.079  17.750  0.00  0.00    +0.000 A 
BRANCH  28  31
ATOM     31  O   UNL     1       1.388   1.376  18.879  0.00  0.00    +0.000 OA
ATOM     32  H   UNL     1       1.892   0.545  18.845  0.00  0.00    +0.000 HD
ENDBRANCH  28  31
BRANCH  29  33
ATOM     33  O   UNL     1       3.999   0.826  18.399  0.00  0.00    +0.000 OA
ATOM     34  H   UNL     1       4.857   0.962  18.847  0.00  0.00    +0.000 HD
ENDBRANCH  29  33
ENDBRANCH  24  25
ENDBRANCH  19  24
ENDBRANCH   1  19
TORSDOF 12
ENDMDL
MODEL 8
REMARK VINA RESULT:      -7.9      6.180     10.050
REMARK  Name = 
REMARK  15 active torsions:
REMARK  status: ('A' for Active; 'I' for Inactive)
REMARK    1  A    between atoms: C_1  and  O_2
REMARK    2  A    between atoms: O_2  and  C_3
REMARK    3  A    between atoms: C_3  and  C_5
REMARK    4  A    between atoms: C_5  and  C_6
REMARK    5  A    between atoms: C_5  and  N_15
REMARK    6  A    between atoms: C_6  and  C_7
REMARK    7  A    between atoms: C_10  and  O_11
REMARK    8  A    between atoms: C_12  and  O_13
REMARK    9  A    between atoms: C_16  and  C_18
REMARK   10  A    between atoms: C_19  and  C_20
REMARK   11  A    between atoms: C_22  and  O_23
REMARK   12  A    between atoms: O_23  and  C_24
REMARK   13  A    between atoms: C_25  and  O_26
REMARK   14  A    between atoms: C_27  and  O_28
REMARK   15  A    between atoms: O_28  and  C_29
REMARK                            x       y       z     vdW  Elec       q    Type
REMARK                         _______ _______ _______ _____ _____    ______ ____
ROOT
ATOM      1  N   UNL     1       0.735   9.848  19.515  0.00  0.00    +0.000 N 
ATOM      2  C   UNL     1       1.551   9.249  18.595  0.00  0.00    +0.000 C 
ATOM      3  O   UNL     1       1.696   9.665  17.450  0.00  0.00    +0.000 OA
ATOM      4  H   UNL     1       0.742   9.550  20.487  0.00  0.00    +0.000 HD
ENDROOT
BRANCH   2   5
ATOM      5  C   UNL     1       2.250   8.048  19.107  0.00  0.00    +0.000 C 
ATOM      6  C   UNL     1       2.763   7.170  18.231  0.00  0.00    +0.000 C 
BRANCH   6   7
ATOM      7  C   UNL     1       3.332   5.895  18.664  0.00  0.00    +0.000 A 
ATOM      8  C   UNL     1       4.698   5.674  18.457  0.00  0.00    +0.000 A 
ATOM      9  C   UNL     1       5.271   4.454  18.804  0.00  0.00    +0.000 A 
ATOM     10  C   UNL     1       4.458   3.463  19.374  0.00  0.00    +0.000 A 
ATOM     11  C   UNL     1       3.091   3.674  19.609  0.00  0.00    +0.000 A 
ATOM     12  C   UNL     1       2.533   4.905  19.248  0.00  0.00    +0.000 A 
BRANCH   9  13
ATOM     13  O   UNL     1       6.589   4.112  18.630  0.00  0.00    +0.000 OA
ATOM     14  C   UNL     1       7.469   5.169  18.255  0.00  0.00    +0.000 C 
ENDBRANCH   9  13
BRANCH  10  15
ATOM     15  O   UNL     1       5.024   2.253  19.701  0.00  0.00    +0.000 OA
ATOM     16  H   UNL     1       5.546   1.993  18.920  0.00  0.00    +0.000 HD
ENDBRANCH  10  15
BRANCH  11  17
ATOM     17  O   UNL     1       2.402   2.633  20.174  0.00  0.00    +0.000 OA
ATOM     18  C   UNL     1       1.868   2.832  21.476  0.00  0.00    +0.000 C 
ENDBRANCH  11  17
ENDBRANCH   6   7
ENDBRANCH   2   5
BRANCH   1  19
ATOM     19  C   UNL     1       0.040  11.100  19.212  0.00  0.00    +0.000 C 
BRANCH  19  20
ATOM     20  C   UNL     1       0.709  12.229  20.000  0.00  0.00    +0.000 C 
ATOM     21  O   UNL     1       1.476  13.049  19.505  0.00  0.00    +0.000 OA
BRANCH  20  23
ATOM     22  C   UNL     1      -0.069  13.487  21.840  0.00  0.00    +0.000 C 
ATOM     23  O   UNL     1       0.304  12.217  21.300  0.00  0.00    +0.000 OA
ENDBRANCH  20  23
ENDBRANCH  19  20
BRANCH  19  24
ATOM     24  C   UNL     1      -1.489  11.029  19.422  0.00  0.00    +0.000 C 
BRANCH  24  25
ATOM     25  C   UNL     1      -2.305  10.774  18.172  0.00  0.00    +0.000 A 
ATOM     26  C   UNL     1      -1.790   9.971  17.138  0.00  0.00    +0.000 A 
ATOM     27  C   UNL     1      -2.474   9.828  15.929  0.00  0.00    +0.000 A 
ATOM     28  C   UNL     1      -3.711  10.439  15.776  0.00  0.00    +0.000 A 
ATOM     29  C   UNL     1      -4.273  11.156  16.828  0.00  0.00    +0.000 A 
ATOM     30  C   UNL     1      -3.576  11.345  18.016  0.00  0.00    +0.000 A 
BRANCH  28  31
ATOM     31  O   UNL     1      -4.414  10.361  14.606  0.00  0.00    +0.000 OA
ATOM     32  H   UNL     1      -4.040  11.012  13.988  0.00  0.00    +0.000 HD
ENDBRANCH  28  31
BRANCH  29  33
ATOM     33  O   UNL     1      -5.527  11.683  16.696  0.00  0.00    +0.000 OA
ATOM     34  H   UNL     1      -6.001  11.385  17.497  0.00  0.00    +0.000 HD
ENDBRANCH  29  33
ENDBRANCH  24  25
ENDBRANCH  19  24
ENDBRANCH   1  19
TORSDOF 12
ENDMDL
MODEL 9
REMARK VINA RESULT:      -7.7      1.331      1.683
REMARK  Name = 
REMARK  15 active torsions:
REMARK  status: ('A' for Active; 'I' for Inactive)
REMARK    1  A    between atoms: C_1  and  O_2
REMARK    2  A    between atoms: O_2  and  C_3
REMARK    3  A    between atoms: C_3  and  C_5
REMARK    4  A    between atoms: C_5  and  C_6
REMARK    5  A    between atoms: C_5  and  N_15
REMARK    6  A    between atoms: C_6  and  C_7
REMARK    7  A    between atoms: C_10  and  O_11
REMARK    8  A    between atoms: C_12  and  O_13
REMARK    9  A    between atoms: C_16  and  C_18
REMARK   10  A    between atoms: C_19  and  C_20
REMARK   11  A    between atoms: C_22  and  O_23
REMARK   12  A    between atoms: O_23  and  C_24
REMARK   13  A    between atoms: C_25  and  O_26
REMARK   14  A    between atoms: C_27  and  O_28
REMARK   15  A    between atoms: O_28  and  C_29
REMARK                            x       y       z     vdW  Elec       q    Type
REMARK                         _______ _______ _______ _____ _____    ______ ____
ROOT
ATOM      1  N   UNL     1       6.577   7.817  17.187  0.00  0.00    +0.000 N 
ATOM      2  C   UNL     1       7.693   7.717  17.972  0.00  0.00    +0.000 C 
ATOM      3  O   UNL     1       8.010   6.691  18.565  0.00  0.00    +0.000 OA
ATOM      4  H   UNL     1       6.420   8.641  16.612  0.00  0.00    +0.000 HD
ENDROOT
BRANCH   2   5
ATOM      5  C   UNL     1       8.489   8.964  18.042  0.00  0.00    +0.000 C 
ATOM      6  C   UNL     1       8.990   9.351  19.226  0.00  0.00    +0.000 C 
BRANCH   6   7
ATOM      7  C   UNL     1       9.655  10.641  19.394  0.00  0.00    +0.000 A 
ATOM      8  C   UNL     1       9.403  11.370  20.562  0.00  0.00    +0.000 A 
ATOM      9  C   UNL     1       9.972  12.628  20.739  0.00  0.00    +0.000 A 
ATOM     10  C   UNL     1      10.807  13.141  19.735  0.00  0.00    +0.000 A 
ATOM     11  C   UNL     1      11.089  12.415  18.568  0.00  0.00    +0.000 A 
ATOM     12  C   UNL     1      10.503  11.155  18.406  0.00  0.00    +0.000 A 
BRANCH   9  13
ATOM     13  O   UNL     1       9.782  13.444  21.827  0.00  0.00    +0.000 OA
ATOM     14  C   UNL     1       8.447  13.882  22.059  0.00  0.00    +0.000 C 
ENDBRANCH   9  13
BRANCH  10  15
ATOM     15  O   UNL     1      11.354  14.390  19.907  0.00  0.00    +0.000 OA
ATOM     16  H   UNL     1      10.902  14.765  20.685  0.00  0.00    +0.000 HD
ENDBRANCH  10  15
BRANCH  11  17
ATOM     17  O   UNL     1      11.921  13.019  17.662  0.00  0.00    +0.000 OA
ATOM     18  C   UNL     1      11.324  13.601  16.512  0.00  0.00    +0.000 C 
ENDBRANCH  11  17
ENDBRANCH   6   7
ENDBRANCH   2   5
BRANCH   1  19
ATOM     19  C   UNL     1       5.725   6.655  16.927  0.00  0.00    +0.000 C 
BRANCH  19  20
ATOM     20  C   UNL     1       5.723   6.383  15.421  0.00  0.00    +0.000 C 
ATOM     21  O   UNL     1       4.962   6.929  14.628  0.00  0.00    +0.000 OA
BRANCH  20  23
ATOM     22  C   UNL     1       6.318   4.117  15.132  0.00  0.00    +0.000 C 
ATOM     23  O   UNL     1       6.699   5.494  15.088  0.00  0.00    +0.000 OA
ENDBRANCH  20  23
ENDBRANCH  19  20
BRANCH  19  24
ATOM     24  C   UNL     1       4.308   6.778  17.530  0.00  0.00    +0.000 C 
BRANCH  24  25
ATOM     25  C   UNL     1       3.875   5.624  18.411  0.00  0.00    +0.000 A 
ATOM     26  C   UNL     1       2.613   5.639  19.033  0.00  0.00    +0.000 A 
ATOM     27  C   UNL     1       2.248   4.646  19.946  0.00  0.00    +0.000 A 
ATOM     28  C   UNL     1       3.125   3.598  20.190  0.00  0.00    +0.000 A 
ATOM     29  C   UNL     1       4.335   3.523  19.506  0.00  0.00    +0.000 A 
ATOM     30  C   UNL     1       4.727   4.533  18.635  0.00  0.00    +0.000 A 
BRANCH  28  31
ATOM     31  O   UNL     1       2.838   2.614  21.094  0.00  0.00    +0.000 OA
ATOM     32  H   UNL     1       1.870   2.538  21.157  0.00  0.00    +0.000 HD
ENDBRANCH  28  31
BRANCH  29  33
ATOM     33  O   UNL     1       5.152   2.444  19.692  0.00  0.00    +0.000 OA
ATOM     34  H   UNL     1       4.994   1.882  18.907  0.00  0.00    +0.000 HD
ENDBRANCH  29  33
ENDBRANCH  24  25
ENDBRANCH  19  24
ENDBRANCH   1  19
TORSDOF 12
ENDMDL
