MODEL 1
REMARK VINA RESULT:      -6.2      0.000      0.000
REMARK  Name = 
REMARK  6 active torsions:
REMARK  status: ('A' for Active; 'I' for Inactive)
REMARK    1  A    between atoms: C_1  and  C_2
REMARK    2  A    between atoms: C_2  and  N_3
REMARK    3  A    between atoms: N_6  and  C_7
REMARK    4  A    between atoms: C_7  and  C_8
REMARK    5  A    between atoms: C_8  and  O_9
REMARK    6  A    between atoms: C_8  and  C_10
REMARK                            x       y       z     vdW  Elec       q    Type
REMARK                         _______ _______ _______ _____ _____    ______ ____
ROOT
ATOM      1  C   UNL     1       5.935   4.019  16.894  0.00  0.00    +0.000 C 
ENDROOT
BRANCH   1   2
ATOM      2  C   UNL     1       6.663   5.276  17.339  0.00  0.00    +0.000 A 
ATOM      3  C   UNL     1       7.520   5.320  18.446  0.00  0.00    +0.000 A 
ATOM      4  C   UNL     1       8.138   6.511  18.829  0.00  0.00    +0.000 A 
ATOM      5  C   UNL     1       7.907   7.677  18.104  0.00  0.00    +0.000 A 
ATOM      6 BR   UNL     1       8.719   9.295  18.645  0.00  0.00    +0.000 Br
ATOM      7  C   UNL     1       7.075   7.658  16.991  0.00  0.00    +0.000 A 
ATOM      8  C   UNL     1       6.460   6.462  16.610  0.00  0.00    +0.000 A 
ENDBRANCH   1   2
BRANCH   1   9
ATOM      9  O   UNL     1       6.212   3.821  15.496  0.00  0.00    +0.000 OA
ATOM     10  H   UNL     1       5.739   3.013  15.229  0.00  0.00    +0.000 HD
ENDBRANCH   1   9
BRANCH   1  11
ATOM     11  C   UNL     1       4.387   3.976  17.046  0.00  0.00    +0.000 C 
BRANCH  11  15
ATOM     12  N   UNL     1       1.687   2.683  19.308  0.00  0.00    +0.000 NA
ATOM     13  C   UNL     1       1.464   3.547  18.125  0.00  0.00    +0.000 C 
ATOM     14  C   UNL     1       2.348   4.822  18.068  0.00  0.00    +0.000 C 
ATOM     15  N   UNL     1       3.798   4.586  18.259  0.00  0.00    +0.000 NA
ATOM     16  C   UNL     1       3.983   3.754  19.466  0.00  0.00    +0.000 C 
ATOM     17  C   UNL     1       3.139   2.458  19.467  0.00  0.00    +0.000 C 
BRANCH  12  19
ATOM     18  C   UNL     1       1.460   2.602  21.809  0.00  0.00    +0.000 C 
ATOM     19  C   UNL     1       1.055   3.272  20.500  0.00  0.00    +0.000 C 
ENDBRANCH  12  19
ENDBRANCH  11  15
ENDBRANCH   1  11
TORSDOF 5
ENDMDL
MODEL 2
REMARK VINA RESULT:      -6.2      3.584      5.904
REMARK  Name = 
REMARK  6 active torsions:
REMARK  status: ('A' for Active; 'I' for Inactive)
REMARK    1  A    between atoms: C_1  and  C_2
REMARK    2  A    between atoms: C_2  and  N_3
REMARK    3  A    between atoms: N_6  and  C_7
REMARK    4  A    between atoms: C_7  and  C_8
REMARK    5  A    between atoms: C_8  and  O_9
REMARK    6  A    between atoms: C_8  and  C_10
REMARK                            x       y       z     vdW  Elec       q    Type
REMARK                         _______ _______ _______ _____ _____    ______ ____
ROOT
ATOM      1  C   UNL     1       3.361   5.465  19.215  0.00  0.00    +0.000 C 
ENDROOT
BRANCH   1   2
ATOM      2  C   UNL     1       2.623   6.789  19.127  0.00  0.00    +0.000 A 
ATOM      3  C   UNL     1       2.514   7.535  17.946  0.00  0.00    +0.000 A 
ATOM      4  C   UNL     1       1.850   8.763  17.932  0.00  0.00    +0.000 A 
ATOM      5  C   UNL     1       1.281   9.259  19.101  0.00  0.00    +0.000 A 
ATOM      6 BR   UNL     1       0.411  10.936  19.085  0.00  0.00    +0.000 Br
ATOM      7  C   UNL     1       1.359   8.530  20.283  0.00  0.00    +0.000 A 
ATOM      8  C   UNL     1       2.023   7.301  20.293  0.00  0.00    +0.000 A 
ENDBRANCH   1   2
BRANCH   1   9
ATOM      9  O   UNL     1       2.917   4.790  20.405  0.00  0.00    +0.000 OA
ATOM     10  H   UNL     1       2.509   3.954  20.117  0.00  0.00    +0.000 HD
ENDBRANCH   1   9
BRANCH   1  11
ATOM     11  C   UNL     1       4.916   5.496  19.280  0.00  0.00    +0.000 C 
BRANCH  11  15
ATOM     12  N   UNL     1       6.379   5.725  15.833  0.00  0.00    +0.000 NA
ATOM     13  C   UNL     1       5.010   5.250  16.146  0.00  0.00    +0.000 C 
ATOM     14  C   UNL     1       4.932   4.159  17.249  0.00  0.00    +0.000 C 
ATOM     15  N   UNL     1       5.658   4.481  18.499  0.00  0.00    +0.000 NA
ATOM     16  C   UNL     1       7.026   4.914  18.149  0.00  0.00    +0.000 C 
ATOM     17  C   UNL     1       7.073   6.047  17.098  0.00  0.00    +0.000 C 
BRANCH  12  19
ATOM     18  C   UNL     1       6.211   4.035  13.980  0.00  0.00    +0.000 C 
ATOM     19  C   UNL     1       7.092   4.732  15.013  0.00  0.00    +0.000 C 
ENDBRANCH  12  19
ENDBRANCH  11  15
ENDBRANCH   1  11
TORSDOF 5
ENDMDL
MODEL 3
REMARK VINA RESULT:      -6.2      0.760      1.793
REMARK  Name = 
REMARK  6 active torsions:
REMARK  status: ('A' for Active; 'I' for Inactive)
REMARK    1  A    between atoms: C_1  and  C_2
REMARK    2  A    between atoms: C_2  and  N_3
REMARK    3  A    between atoms: N_6  and  C_7
REMARK    4  A    between atoms: C_7  and  C_8
REMARK    5  A    between atoms: C_8  and  O_9
REMARK    6  A    between atoms: C_8  and  C_10
REMARK                            x       y       z     vdW  Elec       q    Type
REMARK                         _______ _______ _______ _____ _____    ______ ____
ROOT
ATOM      1  C   UNL     1       6.030   4.146  17.200  0.00  0.00    +0.000 C 
ENDROOT
BRANCH   1   2
ATOM      2  C   UNL     1       6.632   5.510  17.487  0.00  0.00    +0.000 A 
ATOM      3  C   UNL     1       6.249   6.679  16.817  0.00  0.00    +0.000 A 
ATOM      4  C   UNL     1       6.861   7.902  17.101  0.00  0.00    +0.000 A 
ATOM      5  C   UNL     1       7.864   7.970  18.063  0.00  0.00    +0.000 A 
ATOM      6 BR   UNL     1       8.712   9.620  18.419  0.00  0.00    +0.000 Br
ATOM      7  C   UNL     1       8.252   6.828  18.754  0.00  0.00    +0.000 A 
ATOM      8  C   UNL     1       7.635   5.607  18.470  0.00  0.00    +0.000 A 
ENDBRANCH   1   2
BRANCH   1   9
ATOM      9  O   UNL     1       6.619   3.650  15.985  0.00  0.00    +0.000 OA
ATOM     10  H   UNL     1       5.934   3.714  15.296  0.00  0.00    +0.000 HD
ENDBRANCH   1   9
BRANCH   1  11
ATOM     11  C   UNL     1       4.488   4.050  17.013  0.00  0.00    +0.000 C 
BRANCH  11  15
ATOM     12  N   UNL     1       1.712   4.130  19.536  0.00  0.00    +0.000 NA
ATOM     13  C   UNL     1       3.157   4.108  19.862  0.00  0.00    +0.000 C 
ATOM     14  C   UNL     1       3.974   2.999  19.146  0.00  0.00    +0.000 C 
ATOM     15  N   UNL     1       3.783   2.931  17.678  0.00  0.00    +0.000 NA
ATOM     16  C   UNL     1       2.333   2.918  17.394  0.00  0.00    +0.000 C 
ATOM     17  C   UNL     1       1.554   4.072  18.067  0.00  0.00    +0.000 C 
BRANCH  12  19
ATOM     18  C   UNL     1       1.618   2.692  21.595  0.00  0.00    +0.000 C 
ATOM     19  C   UNL     1       1.009   3.046  20.241  0.00  0.00    +0.000 C 
ENDBRANCH  12  19
ENDBRANCH  11  15
ENDBRANCH   1  11
TORSDOF 5
ENDMDL
MODEL 4
REMARK VINA RESULT:      -6.2      0.720      1.385
REMARK  Name = 
REMARK  6 active torsions:
REMARK  status: ('A' for Active; 'I' for Inactive)
REMARK    1  A    between atoms: C_1  and  C_2
REMARK    2  A    between atoms: C_2  and  N_3
REMARK    3  A    between atoms: N_6  and  C_7
REMARK    4  A    between atoms: C_7  and  C_8
REMARK    5  A    between atoms: C_8  and  O_9
REMARK    6  A    between atoms: C_8  and  C_10
REMARK                            x       y       z     vdW  Elec       q    Type
REMARK                         _______ _______ _______ _____ _____    ______ ____
ROOT
ATOM      1  C   UNL     1       5.974   4.025  17.124  0.00  0.00    +0.000 C 
ENDROOT
BRANCH   1   2
ATOM      2  C   UNL     1       6.686   5.317  17.485  0.00  0.00    +0.000 A 
ATOM      3  C   UNL     1       7.551   5.442  18.579  0.00  0.00    +0.000 A 
ATOM      4  C   UNL     1       8.153   6.665  18.882  0.00  0.00    +0.000 A 
ATOM      5  C   UNL     1       7.899   7.779  18.088  0.00  0.00    +0.000 A 
ATOM      6 BR   UNL     1       8.690   9.440  18.521  0.00  0.00    +0.000 Br
ATOM      7  C   UNL     1       7.058   7.679  16.986  0.00  0.00    +0.000 A 
ATOM      8  C   UNL     1       6.460   6.453  16.684  0.00  0.00    +0.000 A 
ENDBRANCH   1   2
BRANCH   1   9
ATOM      9  O   UNL     1       6.452   3.603  15.835  0.00  0.00    +0.000 OA
ATOM     10  H   UNL     1       7.190   4.194  15.603  0.00  0.00    +0.000 HD
ENDBRANCH   1   9
BRANCH   1  11
ATOM     11  C   UNL     1       4.420   4.045  17.033  0.00  0.00    +0.000 C 
BRANCH  11  15
ATOM     12  N   UNL     1       1.755   4.165  19.670  0.00  0.00    +0.000 NA
ATOM     13  C   UNL     1       3.208   4.049  19.935  0.00  0.00    +0.000 C 
ATOM     14  C   UNL     1       3.932   2.930  19.139  0.00  0.00    +0.000 C 
ATOM     15  N   UNL     1       3.680   2.938  17.679  0.00  0.00    +0.000 NA
ATOM     16  C   UNL     1       2.221   3.017  17.455  0.00  0.00    +0.000 C 
ATOM     17  C   UNL     1       1.536   4.181  18.208  0.00  0.00    +0.000 C 
BRANCH  12  19
ATOM     18  C   UNL     1       1.581   2.738  21.732  0.00  0.00    +0.000 C 
ATOM     19  C   UNL     1       1.019   3.090  20.358  0.00  0.00    +0.000 C 
ENDBRANCH  12  19
ENDBRANCH  11  15
ENDBRANCH   1  11
TORSDOF 5
ENDMDL
MODEL 5
REMARK VINA RESULT:      -6.1      0.591      1.280
REMARK  Name = 
REMARK  6 active torsions:
REMARK  status: ('A' for Active; 'I' for Inactive)
REMARK    1  A    between atoms: C_1  and  C_2
REMARK    2  A    between atoms: C_2  and  N_3
REMARK    3  A    between atoms: N_6  and  C_7
REMARK    4  A    between atoms: C_7  and  C_8
REMARK    5  A    between atoms: C_8  and  O_9
REMARK    6  A    between atoms: C_8  and  C_10
REMARK                            x       y       z     vdW  Elec       q    Type
REMARK                         _______ _______ _______ _____ _____    ______ ____
ROOT
ATOM      1  C   UNL     1       6.440   4.456  17.063  0.00  0.00    +0.000 C 
ENDROOT
BRANCH   1   2
ATOM      2  C   UNL     1       7.030   5.783  17.506  0.00  0.00    +0.000 A 
ATOM      3  C   UNL     1       6.838   6.985  16.812  0.00  0.00    +0.000 A 
ATOM      4  C   UNL     1       7.432   8.169  17.249  0.00  0.00    +0.000 A 
ATOM      5  C   UNL     1       8.227   8.167  18.392  0.00  0.00    +0.000 A 
ATOM      6 BR   UNL     1       9.056   9.766  18.961  0.00  0.00    +0.000 Br
ATOM      7  C   UNL     1       8.420   6.993  19.110  0.00  0.00    +0.000 A 
ATOM      8  C   UNL     1       7.821   5.809  18.670  0.00  0.00    +0.000 A 
ENDBRANCH   1   2
BRANCH   1   9
ATOM      9  O   UNL     1       6.829   4.235  15.696  0.00  0.00    +0.000 OA
ATOM     10  H   UNL     1       7.770   4.474  15.631  0.00  0.00    +0.000 HD
ENDBRANCH   1   9
BRANCH   1  11
ATOM     11  C   UNL     1       4.893   4.289  17.114  0.00  0.00    +0.000 C 
BRANCH  11  15
ATOM     12  N   UNL     1       1.884   2.990  18.938  0.00  0.00    +0.000 NA
ATOM     13  C   UNL     1       1.843   3.928  17.792  0.00  0.00    +0.000 C 
ATOM     14  C   UNL     1       2.773   5.164  17.924  0.00  0.00    +0.000 C 
ATOM     15  N   UNL     1       4.178   4.855  18.279  0.00  0.00    +0.000 NA
ATOM     16  C   UNL     1       4.178   3.948  19.446  0.00  0.00    +0.000 C 
ATOM     17  C   UNL     1       3.295   2.693  19.262  0.00  0.00    +0.000 C 
BRANCH  12  19
ATOM     18  C   UNL     1       1.324   2.765  21.378  0.00  0.00    +0.000 C 
ATOM     19  C   UNL     1       1.127   3.537  20.077  0.00  0.00    +0.000 C 
ENDBRANCH  12  19
ENDBRANCH  11  15
ENDBRANCH   1  11
TORSDOF 5
ENDMDL
MODEL 6
REMARK VINA RESULT:      -6.0      3.811      6.097
REMARK  Name = 
REMARK  6 active torsions:
REMARK  status: ('A' for Active; 'I' for Inactive)
REMARK    1  A    between atoms: C_1  and  C_2
REMARK    2  A    between atoms: C_2  and  N_3
REMARK    3  A    between atoms: N_6  and  C_7
REMARK    4  A    between atoms: C_7  and  C_8
REMARK    5  A    between atoms: C_8  and  O_9
REMARK    6  A    between atoms: C_8  and  C_10
REMARK                            x       y       z     vdW  Elec       q    Type
REMARK                         _______ _______ _______ _____ _____    ______ ____
ROOT
ATOM      1  C   UNL     1       3.023   5.820  19.410  0.00  0.00    +0.000 C 
ENDROOT
BRANCH   1   2
ATOM      2  C   UNL     1       2.326   7.165  19.298  0.00  0.00    +0.000 A 
ATOM      3  C   UNL     1       2.238   7.891  18.103  0.00  0.00    +0.000 A 
ATOM      4  C   UNL     1       1.612   9.138  18.066  0.00  0.00    +0.000 A 
ATOM      5  C   UNL     1       1.062   9.674  19.227  0.00  0.00    +0.000 A 
ATOM      6 BR   UNL     1       0.245  11.377  19.180  0.00  0.00    +0.000 Br
ATOM      7  C   UNL     1       1.120   8.966  20.422  0.00  0.00    +0.000 A 
ATOM      8  C   UNL     1       1.745   7.717  20.454  0.00  0.00    +0.000 A 
ENDBRANCH   1   2
BRANCH   1   9
ATOM      9  O   UNL     1       2.836   5.336  20.751  0.00  0.00    +0.000 OA
ATOM     10  H   UNL     1       3.250   5.988  21.344  0.00  0.00    +0.000 HD
ENDBRANCH   1   9
BRANCH   1  11
ATOM     11  C   UNL     1       4.554   5.762  19.130  0.00  0.00    +0.000 C 
BRANCH  11  15
ATOM     12  N   UNL     1       6.548   4.124  16.408  0.00  0.00    +0.000 NA
ATOM     13  C   UNL     1       7.124   4.864  17.555  0.00  0.00    +0.000 C 
ATOM     14  C   UNL     1       6.520   6.275  17.794  0.00  0.00    +0.000 C 
ATOM     15  N   UNL     1       5.040   6.321  17.849  0.00  0.00    +0.000 NA
ATOM     16  C   UNL     1       4.504   5.606  16.672  0.00  0.00    +0.000 C 
ATOM     17  C   UNL     1       5.073   4.179  16.496  0.00  0.00    +0.000 C 
BRANCH  12  19
ATOM     18  C   UNL     1       6.340   4.144  13.903  0.00  0.00    +0.000 C 
ATOM     19  C   UNL     1       7.076   4.652  15.139  0.00  0.00    +0.000 C 
ENDBRANCH  12  19
ENDBRANCH  11  15
ENDBRANCH   1  11
TORSDOF 5
ENDMDL
MODEL 7
REMARK VINA RESULT:      -5.9      3.844      6.051
REMARK  Name = 
REMARK  6 active torsions:
REMARK  status: ('A' for Active; 'I' for Inactive)
REMARK    1  A    between atoms: C_1  and  C_2
REMARK    2  A    between atoms: C_2  and  N_3
REMARK    3  A    between atoms: N_6  and  C_7
REMARK    4  A    between atoms: C_7  and  C_8
REMARK    5  A    between atoms: C_8  and  O_9
REMARK    6  A    between atoms: C_8  and  C_10
REMARK                            x       y       z     vdW  Elec       q    Type
REMARK                         _______ _______ _______ _____ _____    ______ ____
ROOT
ATOM      1  C   UNL     1       2.972   5.879  19.415  0.00  0.00    +0.000 C 
ENDROOT
BRANCH   1   2
ATOM      2  C   UNL     1       2.293   7.236  19.364  0.00  0.00    +0.000 A 
ATOM      3  C   UNL     1       1.698   7.844  20.477  0.00  0.00    +0.000 A 
ATOM      4  C   UNL     1       1.059   9.080  20.364  0.00  0.00    +0.000 A 
ATOM      5  C   UNL     1       1.010   9.726  19.132  0.00  0.00    +0.000 A 
ATOM      6 BR   UNL     1       0.115  11.383  18.976  0.00  0.00    +0.000 Br
ATOM      7  C   UNL     1       1.607   9.153  18.015  0.00  0.00    +0.000 A 
ATOM      8  C   UNL     1       2.248   7.917  18.133  0.00  0.00    +0.000 A 
ENDBRANCH   1   2
BRANCH   1   9
ATOM      9  O   UNL     1       2.848   5.374  20.756  0.00  0.00    +0.000 OA
ATOM     10  H   UNL     1       3.492   4.649  20.842  0.00  0.00    +0.000 HD
ENDBRANCH   1   9
BRANCH   1  11
ATOM     11  C   UNL     1       4.484   5.802  19.053  0.00  0.00    +0.000 C 
BRANCH  11  15
ATOM     12  N   UNL     1       6.620   4.184  16.428  0.00  0.00    +0.000 NA
ATOM     13  C   UNL     1       7.123   5.062  17.510  0.00  0.00    +0.000 C 
ATOM     14  C   UNL     1       6.376   6.416  17.655  0.00  0.00    +0.000 C 
ATOM     15  N   UNL     1       4.900   6.312  17.728  0.00  0.00    +0.000 NA
ATOM     16  C   UNL     1       4.434   5.461  16.614  0.00  0.00    +0.000 C 
ATOM     17  C   UNL     1       5.148   4.092  16.533  0.00  0.00    +0.000 C 
BRANCH  12  19
ATOM     18  C   UNL     1       6.310   4.086  13.936  0.00  0.00    +0.000 C 
ATOM     19  C   UNL     1       7.081   4.669  15.116  0.00  0.00    +0.000 C 
ENDBRANCH  12  19
ENDBRANCH  11  15
ENDBRANCH   1  11
TORSDOF 5
ENDMDL
MODEL 8
REMARK VINA RESULT:      -5.8      1.220      1.822
REMARK  Name = 
REMARK  6 active torsions:
REMARK  status: ('A' for Active; 'I' for Inactive)
REMARK    1  A    between atoms: C_1  and  C_2
REMARK    2  A    between atoms: C_2  and  N_3
REMARK    3  A    between atoms: N_6  and  C_7
REMARK    4  A    between atoms: C_7  and  C_8
REMARK    5  A    between atoms: C_8  and  O_9
REMARK    6  A    between atoms: C_8  and  C_10
REMARK                            x       y       z     vdW  Elec       q    Type
REMARK                         _______ _______ _______ _____ _____    ______ ____
ROOT
ATOM      1  C   UNL     1       6.895   4.633  17.732  0.00  0.00    +0.000 C 
ENDROOT
BRANCH   1   2
ATOM      2  C   UNL     1       7.334   6.078  17.893  0.00  0.00    +0.000 A 
ATOM      3  C   UNL     1       6.952   7.103  17.018  0.00  0.00    +0.000 A 
ATOM      4  C   UNL     1       7.413   8.408  17.198  0.00  0.00    +0.000 A 
ATOM      5  C   UNL     1       8.262   8.705  18.259  0.00  0.00    +0.000 A 
ATOM      6 BR   UNL     1       8.910  10.466  18.479  0.00  0.00    +0.000 Br
ATOM      7  C   UNL     1       8.643   7.711  19.152  0.00  0.00    +0.000 A 
ATOM      8  C   UNL     1       8.177   6.406  18.971  0.00  0.00    +0.000 A 
ENDBRANCH   1   2
BRANCH   1   9
ATOM      9  O   UNL     1       7.829   3.983  16.853  0.00  0.00    +0.000 OA
ATOM     10  H   UNL     1       7.555   3.051  16.793  0.00  0.00    +0.000 HD
ENDBRANCH   1   9
BRANCH   1  11
ATOM     11  C   UNL     1       5.477   4.358  17.150  0.00  0.00    +0.000 C 
BRANCH  11  15
ATOM     12  N   UNL     1       3.096   2.116  18.987  0.00  0.00    +0.000 NA
ATOM     13  C   UNL     1       2.907   2.602  17.600  0.00  0.00    +0.000 C 
ATOM     14  C   UNL     1       3.070   4.135  17.415  0.00  0.00    +0.000 C 
ATOM     15  N   UNL     1       4.310   4.706  17.990  0.00  0.00    +0.000 NA
ATOM     16  C   UNL     1       4.444   4.230  19.383  0.00  0.00    +0.000 C 
ATOM     17  C   UNL     1       4.343   2.694  19.530  0.00  0.00    +0.000 C 
BRANCH  12  19
ATOM     18  C   UNL     1       0.598   2.391  19.024  0.00  0.00    +0.000 C 
ATOM     19  C   UNL     1       1.909   2.421  19.804  0.00  0.00    +0.000 C 
ENDBRANCH  12  19
ENDBRANCH  11  15
ENDBRANCH   1  11
TORSDOF 5
ENDMDL
MODEL 9
REMARK VINA RESULT:      -5.8      6.320      7.307
REMARK  Name = 
REMARK  6 active torsions:
REMARK  status: ('A' for Active; 'I' for Inactive)
REMARK    1  A    between atoms: C_1  and  C_2
REMARK    2  A    between atoms: C_2  and  N_3
REMARK    3  A    between atoms: N_6  and  C_7
REMARK    4  A    between atoms: C_7  and  C_8
REMARK    5  A    between atoms: C_8  and  O_9
REMARK    6  A    between atoms: C_8  and  C_10
REMARK                            x       y       z     vdW  Elec       q    Type
REMARK                         _______ _______ _______ _____ _____    ______ ____
ROOT
ATOM      1  C   UNL     1       1.445   9.134  18.259  0.00  0.00    +0.000 C 
ENDROOT
BRANCH   1   2
ATOM      2  C   UNL     1       2.381   7.945  18.390  0.00  0.00    +0.000 A 
ATOM      3  C   UNL     1       3.385   7.647  17.459  0.00  0.00    +0.000 A 
ATOM      4  C   UNL     1       4.196   6.522  17.614  0.00  0.00    +0.000 A 
ATOM      5  C   UNL     1       4.015   5.680  18.707  0.00  0.00    +0.000 A 
ATOM      6 BR   UNL     1       5.093   4.140  18.895  0.00  0.00    +0.000 Br
ATOM      7  C   UNL     1       3.038   5.962  19.655  0.00  0.00    +0.000 A 
ATOM      8  C   UNL     1       2.229   7.091  19.498  0.00  0.00    +0.000 A 
ENDBRANCH   1   2
BRANCH   1   9
ATOM      9  O   UNL     1       2.040  10.066  17.340  0.00  0.00    +0.000 OA
ATOM     10  H   UNL     1       2.048   9.633  16.468  0.00  0.00    +0.000 HD
ENDBRANCH   1   9
BRANCH   1  11
ATOM     11  C   UNL     1       1.101   9.941  19.545  0.00  0.00    +0.000 C 
BRANCH  11  15
ATOM     12  N   UNL     1      -0.374  11.317  22.708  0.00  0.00    +0.000 NA
ATOM     13  C   UNL     1       0.180   9.951  22.552  0.00  0.00    +0.000 C 
ATOM     14  C   UNL     1      -0.358   9.162  21.328  0.00  0.00    +0.000 C 
ATOM     15  N   UNL     1      -0.293   9.888  20.038  0.00  0.00    +0.000 NA
ATOM     16  C   UNL     1      -0.886  11.228  20.224  0.00  0.00    +0.000 C 
ATOM     17  C   UNL     1      -0.286  12.018  21.410  0.00  0.00    +0.000 C 
BRANCH  12  19
ATOM     18  C   UNL     1      -2.453  12.607  23.281  0.00  0.00    +0.000 C 
ATOM     19  C   UNL     1      -1.743  11.257  23.247  0.00  0.00    +0.000 C 
ENDBRANCH  12  19
ENDBRANCH  11  15
ENDBRANCH   1  11
TORSDOF 5
ENDMDL
