MODEL 1
REMARK VINA RESULT:      -7.7      0.000      0.000
REMARK  Name = 
REMARK  8 active torsions:
REMARK  status: ('A' for Active; 'I' for Inactive)
REMARK    1  A    between atoms: C_1  and  O_2
REMARK    2  A    between atoms: O_2  and  C_3
REMARK    3  A    between atoms: C_6  and  C_7
REMARK    4  A    between atoms: N_9  and  N_10
REMARK    5  A    between atoms: C_11  and  C_13
REMARK    6  A    between atoms: C_16  and  C_17
REMARK    7  A    between atoms: C_20  and  S_21
REMARK    8  A    between atoms: S_21  and  C_22
REMARK                            x       y       z     vdW  Elec       q    Type
REMARK                         _______ _______ _______ _____ _____    ______ ____
ROOT
ATOM      1  N   UNL     1       2.446   6.548  20.489  0.00  0.00    +0.000 N 
ATOM      2  C   UNL     1       2.057   5.233  20.326  0.00  0.00    +0.000 C 
ATOM      3  O   UNL     1       0.969   4.836  20.749  0.00  0.00    +0.000 OA
ATOM      4  H   UNL     1       3.342   6.905  20.160  0.00  0.00    +0.000 HD
ENDROOT
BRANCH   2   5
ATOM      5  C   UNL     1       3.006   4.388  19.634  0.00  0.00    +0.000 A 
ATOM      6  C   UNL     1       3.364   3.075  19.864  0.00  0.00    +0.000 A 
ATOM      7  C   UNL     1       4.332   2.738  18.891  0.00  0.00    +0.000 A 
ATOM      8  C   UNL     1       4.517   3.859  18.103  0.00  0.00    +0.000 A 
ATOM      9  O   UNL     1       3.711   4.870  18.559  0.00  0.00    +0.000 OA
BRANCH   8  10
ATOM     10  C   UNL     1       5.343   4.144  16.929  0.00  0.00    +0.000 A 
ATOM     11  C   UNL     1       4.801   4.045  15.639  0.00  0.00    +0.000 A 
ATOM     12  C   UNL     1       5.564   4.361  14.507  0.00  0.00    +0.000 A 
ATOM     13  C   UNL     1       6.889   4.787  14.632  0.00  0.00    +0.000 A 
ATOM     14  C   UNL     1       7.447   4.855  15.910  0.00  0.00    +0.000 A 
ATOM     15  C   UNL     1       6.682   4.539  17.044  0.00  0.00    +0.000 A 
BRANCH  13  16
ATOM     16  S   UNL     1       7.785   5.157  13.131  0.00  0.00    +0.000 S 
ATOM     17  C   UNL     1       7.044   4.004  11.943  0.00  0.00    +0.000 C 
ENDBRANCH  13  16
ENDBRANCH   8  10
ENDBRANCH   2   5
BRANCH   1  20
ATOM     18  C   UNL     1       1.246   8.619  20.545  0.00  0.00    +0.000 C 
ATOM     19  O   UNL     1       1.640   8.895  19.412  0.00  0.00    +0.000 OA
ATOM     20  N   UNL     1       1.594   7.433  21.165  0.00  0.00    +0.000 N 
ATOM     21  H   UNL     1       1.338   7.161  22.109  0.00  0.00    +0.000 HD
BRANCH  18  25
ATOM     22  C   UNL     1      -1.291  11.451  22.595  0.00  0.00    +0.000 A 
ATOM     23  C   UNL     1      -0.820  11.693  21.305  0.00  0.00    +0.000 A 
ATOM     24  C   UNL     1      -0.006  10.759  20.658  0.00  0.00    +0.000 A 
ATOM     25  C   UNL     1       0.369   9.569  21.298  0.00  0.00    +0.000 A 
ATOM     26  C   UNL     1      -0.093   9.338  22.602  0.00  0.00    +0.000 A 
ATOM     27  C   UNL     1      -0.917  10.276  23.244  0.00  0.00    +0.000 A 
BRANCH  22  29
ATOM     28  C   UNL     1      -1.584  13.773  22.959  0.00  0.00    +0.000 C 
ATOM     29  O   UNL     1      -2.064  12.443  23.129  0.00  0.00    +0.000 OA
ENDBRANCH  22  29
ENDBRANCH  18  25
ENDBRANCH   1  20
TORSDOF 6
ENDMDL
MODEL 2
REMARK VINA RESULT:      -7.6      0.515      1.055
REMARK  Name = 
REMARK  8 active torsions:
REMARK  status: ('A' for Active; 'I' for Inactive)
REMARK    1  A    between atoms: C_1  and  O_2
REMARK    2  A    between atoms: O_2  and  C_3
REMARK    3  A    between atoms: C_6  and  C_7
REMARK    4  A    between atoms: N_9  and  N_10
REMARK    5  A    between atoms: C_11  and  C_13
REMARK    6  A    between atoms: C_16  and  C_17
REMARK    7  A    between atoms: C_20  and  S_21
REMARK    8  A    between atoms: S_21  and  C_22
REMARK                            x       y       z     vdW  Elec       q    Type
REMARK                         _______ _______ _______ _____ _____    ______ ____
ROOT
ATOM      1  N   UNL     1       2.486   6.697  20.347  0.00  0.00    +0.000 N 
ATOM      2  C   UNL     1       2.146   5.358  20.335  0.00  0.00    +0.000 C 
ATOM      3  O   UNL     1       1.129   4.956  20.904  0.00  0.00    +0.000 OA
ATOM      4  H   UNL     1       3.325   7.058  19.895  0.00  0.00    +0.000 HD
ENDROOT
BRANCH   2   5
ATOM      5  C   UNL     1       3.057   4.494  19.616  0.00  0.00    +0.000 A 
ATOM      6  C   UNL     1       3.354   3.159  19.802  0.00  0.00    +0.000 A 
ATOM      7  C   UNL     1       4.309   2.812  18.819  0.00  0.00    +0.000 A 
ATOM      8  C   UNL     1       4.547   3.948  18.070  0.00  0.00    +0.000 A 
ATOM      9  O   UNL     1       3.787   4.980  18.559  0.00  0.00    +0.000 OA
BRANCH   8  10
ATOM     10  C   UNL     1       5.389   4.235  16.907  0.00  0.00    +0.000 A 
ATOM     11  C   UNL     1       5.146   3.598  15.681  0.00  0.00    +0.000 A 
ATOM     12  C   UNL     1       5.911   3.897  14.547  0.00  0.00    +0.000 A 
ATOM     13  C   UNL     1       6.938   4.841  14.603  0.00  0.00    +0.000 A 
ATOM     14  C   UNL     1       7.210   5.455  15.828  0.00  0.00    +0.000 A 
ATOM     15  C   UNL     1       6.442   5.156  16.965  0.00  0.00    +0.000 A 
BRANCH  13  16
ATOM     16  S   UNL     1       7.866   5.148  13.107  0.00  0.00    +0.000 S 
ATOM     17  C   UNL     1       7.073   4.025  11.924  0.00  0.00    +0.000 C 
ENDBRANCH  13  16
ENDBRANCH   8  10
ENDBRANCH   2   5
BRANCH   1  20
ATOM     18  C   UNL     1       1.249   8.746  20.382  0.00  0.00    +0.000 C 
ATOM     19  O   UNL     1       1.552   8.965  19.209  0.00  0.00    +0.000 OA
ATOM     20  N   UNL     1       1.667   7.603  21.037  0.00  0.00    +0.000 N 
ATOM     21  H   UNL     1       1.488   7.378  22.010  0.00  0.00    +0.000 HD
BRANCH  18  25
ATOM     22  C   UNL     1      -1.181  11.458  22.704  0.00  0.00    +0.000 A 
ATOM     23  C   UNL     1      -0.876  10.177  23.163  0.00  0.00    +0.000 A 
ATOM     24  C   UNL     1      -0.081   9.319  22.397  0.00  0.00    +0.000 A 
ATOM     25  C   UNL     1       0.409   9.720  21.147  0.00  0.00    +0.000 A 
ATOM     26  C   UNL     1       0.086  11.003  20.682  0.00  0.00    +0.000 A 
ATOM     27  C   UNL     1      -0.706  11.865  21.458  0.00  0.00    +0.000 A 
BRANCH  22  29
ATOM     28  C   UNL     1      -3.307  12.434  23.077  0.00  0.00    +0.000 C 
ATOM     29  O   UNL     1      -1.978  12.199  23.531  0.00  0.00    +0.000 OA
ENDBRANCH  22  29
ENDBRANCH  18  25
ENDBRANCH   1  20
TORSDOF 6
ENDMDL
MODEL 3
REMARK VINA RESULT:      -7.4      1.999      3.562
REMARK  Name = 
REMARK  8 active torsions:
REMARK  status: ('A' for Active; 'I' for Inactive)
REMARK    1  A    between atoms: C_1  and  O_2
REMARK    2  A    between atoms: O_2  and  C_3
REMARK    3  A    between atoms: C_6  and  C_7
REMARK    4  A    between atoms: N_9  and  N_10
REMARK    5  A    between atoms: C_11  and  C_13
REMARK    6  A    between atoms: C_16  and  C_17
REMARK    7  A    between atoms: C_20  and  S_21
REMARK    8  A    between atoms: S_21  and  C_22
REMARK                            x       y       z     vdW  Elec       q    Type
REMARK                         _______ _______ _______ _____ _____    ______ ____
ROOT
ATOM      1  N   UNL     1      -0.009   9.168  21.105  0.00  0.00    +0.000 N 
ATOM      2  C   UNL     1       1.027   9.159  20.192  0.00  0.00    +0.000 C 
ATOM      3  O   UNL     1       1.383  10.195  19.625  0.00  0.00    +0.000 OA
ATOM      4  H   UNL     1      -0.333   8.328  21.582  0.00  0.00    +0.000 HD
ENDROOT
BRANCH   2   5
ATOM      5  C   UNL     1       1.642   7.869  19.967  0.00  0.00    +0.000 A 
ATOM      6  C   UNL     1       1.536   6.694  20.683  0.00  0.00    +0.000 A 
ATOM      7  C   UNL     1       2.343   5.738  20.023  0.00  0.00    +0.000 A 
ATOM      8  C   UNL     1       2.900   6.370  18.927  0.00  0.00    +0.000 A 
ATOM      9  O   UNL     1       2.476   7.675  18.894  0.00  0.00    +0.000 OA
BRANCH   8  10
ATOM     10  C   UNL     1       3.782   5.928  17.846  0.00  0.00    +0.000 A 
ATOM     11  C   UNL     1       4.533   6.862  17.117  0.00  0.00    +0.000 A 
ATOM     12  C   UNL     1       5.418   6.452  16.112  0.00  0.00    +0.000 A 
ATOM     13  C   UNL     1       5.581   5.098  15.809  0.00  0.00    +0.000 A 
ATOM     14  C   UNL     1       4.813   4.164  16.507  0.00  0.00    +0.000 A 
ATOM     15  C   UNL     1       3.925   4.575  17.515  0.00  0.00    +0.000 A 
BRANCH  13  16
ATOM     16  S   UNL     1       6.726   4.673  14.505  0.00  0.00    +0.000 S 
ATOM     17  C   UNL     1       5.656   3.821  13.313  0.00  0.00    +0.000 C 
ENDBRANCH  13  16
ENDBRANCH   8  10
ENDBRANCH   2   5
BRANCH   1  20
ATOM     18  C   UNL     1      -0.691  10.847  22.669  0.00  0.00    +0.000 C 
ATOM     19  O   UNL     1      -0.114  10.253  23.580  0.00  0.00    +0.000 OA
ATOM     20  N   UNL     1      -0.674  10.374  21.371  0.00  0.00    +0.000 N 
ATOM     21  H   UNL     1      -1.160  10.789  20.582  0.00  0.00    +0.000 HD
BRANCH  18  25
ATOM     22  C   UNL     1      -2.970  14.419  23.505  0.00  0.00    +0.000 A 
ATOM     23  C   UNL     1      -3.515  13.148  23.682  0.00  0.00    +0.000 A 
ATOM     24  C   UNL     1      -2.756  12.005  23.412  0.00  0.00    +0.000 A 
ATOM     25  C   UNL     1      -1.440  12.114  22.941  0.00  0.00    +0.000 A 
ATOM     26  C   UNL     1      -0.902  13.394  22.749  0.00  0.00    +0.000 A 
ATOM     27  C   UNL     1      -1.665  14.539  23.029  0.00  0.00    +0.000 A 
BRANCH  22  29
ATOM     28  C   UNL     1      -3.726  15.999  25.100  0.00  0.00    +0.000 C 
ATOM     29  O   UNL     1      -3.812  15.459  23.785  0.00  0.00    +0.000 OA
ENDBRANCH  22  29
ENDBRANCH  18  25
ENDBRANCH   1  20
TORSDOF 6
ENDMDL
MODEL 4
REMARK VINA RESULT:      -7.3      4.247     11.291
REMARK  Name = 
REMARK  8 active torsions:
REMARK  status: ('A' for Active; 'I' for Inactive)
REMARK    1  A    between atoms: C_1  and  O_2
REMARK    2  A    between atoms: O_2  and  C_3
REMARK    3  A    between atoms: C_6  and  C_7
REMARK    4  A    between atoms: N_9  and  N_10
REMARK    5  A    between atoms: C_11  and  C_13
REMARK    6  A    between atoms: C_16  and  C_17
REMARK    7  A    between atoms: C_20  and  S_21
REMARK    8  A    between atoms: S_21  and  C_22
REMARK                            x       y       z     vdW  Elec       q    Type
REMARK                         _______ _______ _______ _____ _____    ______ ____
ROOT
ATOM      1  N   UNL     1       1.643   8.132  20.291  0.00  0.00    +0.000 N 
ATOM      2  C   UNL     1       0.948   9.315  20.130  0.00  0.00    +0.000 C 
ATOM      3  O   UNL     1       0.974   9.926  19.060  0.00  0.00    +0.000 OA
ATOM      4  H   UNL     1       1.650   7.609  21.166  0.00  0.00    +0.000 HD
ENDROOT
BRANCH   2   5
ATOM      5  C   UNL     1       0.207   9.760  21.291  0.00  0.00    +0.000 A 
ATOM      6  C   UNL     1       0.214   9.287  22.588  0.00  0.00    +0.000 A 
ATOM      7  C   UNL     1      -0.694  10.087  23.319  0.00  0.00    +0.000 A 
ATOM      8  C   UNL     1      -1.209  11.018  22.438  0.00  0.00    +0.000 A 
ATOM      9  O   UNL     1      -0.663  10.817  21.196  0.00  0.00    +0.000 OA
BRANCH   8  10
ATOM     10  C   UNL     1      -2.152  12.130  22.579  0.00  0.00    +0.000 A 
ATOM     11  C   UNL     1      -3.049  12.167  23.657  0.00  0.00    +0.000 A 
ATOM     12  C   UNL     1      -3.924  13.247  23.832  0.00  0.00    +0.000 A 
ATOM     13  C   UNL     1      -3.926  14.321  22.938  0.00  0.00    +0.000 A 
ATOM     14  C   UNL     1      -3.060  14.275  21.843  0.00  0.00    +0.000 A 
ATOM     15  C   UNL     1      -2.183  13.193  21.668  0.00  0.00    +0.000 A 
BRANCH  13  16
ATOM     16  S   UNL     1      -5.085  15.647  23.239  0.00  0.00    +0.000 S 
ATOM     17  C   UNL     1      -6.682  14.839  22.949  0.00  0.00    +0.000 C 
ENDBRANCH  13  16
ENDBRANCH   8  10
ENDBRANCH   2   5
BRANCH   1  20
ATOM     18  C   UNL     1       2.710   6.288  19.198  0.00  0.00    +0.000 C 
ATOM     19  O   UNL     1       2.306   5.519  20.071  0.00  0.00    +0.000 OA
ATOM     20  N   UNL     1       2.403   7.636  19.222  0.00  0.00    +0.000 N 
ATOM     21  H   UNL     1       2.734   8.331  18.560  0.00  0.00    +0.000 HD
BRANCH  18  25
ATOM     22  C   UNL     1       5.093   4.695  15.968  0.00  0.00    +0.000 A 
ATOM     23  C   UNL     1       4.287   3.873  16.754  0.00  0.00    +0.000 A 
ATOM     24  C   UNL     1       3.518   4.412  17.790  0.00  0.00    +0.000 A 
ATOM     25  C   UNL     1       3.556   5.785  18.071  0.00  0.00    +0.000 A 
ATOM     26  C   UNL     1       4.381   6.605  17.288  0.00  0.00    +0.000 A 
ATOM     27  C   UNL     1       5.145   6.060  16.244  0.00  0.00    +0.000 A 
BRANCH  22  29
ATOM     28  C   UNL     1       6.876   4.793  14.412  0.00  0.00    +0.000 C 
ATOM     29  O   UNL     1       5.810   4.053  14.998  0.00  0.00    +0.000 OA
ENDBRANCH  22  29
ENDBRANCH  18  25
ENDBRANCH   1  20
TORSDOF 6
ENDMDL
MODEL 5
REMARK VINA RESULT:      -7.3      4.036     11.249
REMARK  Name = 
REMARK  8 active torsions:
REMARK  status: ('A' for Active; 'I' for Inactive)
REMARK    1  A    between atoms: C_1  and  O_2
REMARK    2  A    between atoms: O_2  and  C_3
REMARK    3  A    between atoms: C_6  and  C_7
REMARK    4  A    between atoms: N_9  and  N_10
REMARK    5  A    between atoms: C_11  and  C_13
REMARK    6  A    between atoms: C_16  and  C_17
REMARK    7  A    between atoms: C_20  and  S_21
REMARK    8  A    between atoms: S_21  and  C_22
REMARK                            x       y       z     vdW  Elec       q    Type
REMARK                         _______ _______ _______ _____ _____    ______ ____
ROOT
ATOM      1  N   UNL     1       1.782   7.964  20.436  0.00  0.00    +0.000 N 
ATOM      2  C   UNL     1       1.032   9.103  20.215  0.00  0.00    +0.000 C 
ATOM      3  O   UNL     1       1.003   9.639  19.105  0.00  0.00    +0.000 OA
ATOM      4  H   UNL     1       1.835   7.504  21.344  0.00  0.00    +0.000 HD
ENDROOT
BRANCH   2   5
ATOM      5  C   UNL     1       0.303   9.596  21.364  0.00  0.00    +0.000 A 
ATOM      6  C   UNL     1       0.071   9.009  22.591  0.00  0.00    +0.000 A 
ATOM      7  C   UNL     1      -0.695   9.927  23.346  0.00  0.00    +0.000 A 
ATOM      8  C   UNL     1      -0.890  11.039  22.548  0.00  0.00    +0.000 A 
ATOM      9  O   UNL     1      -0.285  10.836  21.334  0.00  0.00    +0.000 OA
BRANCH   8  10
ATOM     10  C   UNL     1      -1.558  12.325  22.752  0.00  0.00    +0.000 A 
ATOM     11  C   UNL     1      -0.847  13.525  22.608  0.00  0.00    +0.000 A 
ATOM     12  C   UNL     1      -1.483  14.765  22.752  0.00  0.00    +0.000 A 
ATOM     13  C   UNL     1      -2.847  14.841  23.043  0.00  0.00    +0.000 A 
ATOM     14  C   UNL     1      -3.556  13.651  23.222  0.00  0.00    +0.000 A 
ATOM     15  C   UNL     1      -2.918  12.409  23.076  0.00  0.00    +0.000 A 
BRANCH  13  16
ATOM     16  S   UNL     1      -3.568  16.467  23.218  0.00  0.00    +0.000 S 
ATOM     17  C   UNL     1      -4.160  16.445  24.932  0.00  0.00    +0.000 C 
ENDBRANCH  13  16
ENDBRANCH   8  10
ENDBRANCH   2   5
BRANCH   1  20
ATOM     18  C   UNL     1       2.715   6.058  19.328  0.00  0.00    +0.000 C 
ATOM     19  O   UNL     1       2.206   5.308  20.161  0.00  0.00    +0.000 OA
ATOM     20  N   UNL     1       2.535   7.428  19.382  0.00  0.00    +0.000 N 
ATOM     21  H   UNL     1       2.956   8.106  18.755  0.00  0.00    +0.000 HD
BRANCH  18  25
ATOM     22  C   UNL     1       5.091   4.327  16.164  0.00  0.00    +0.000 A 
ATOM     23  C   UNL     1       4.372   3.532  17.055  0.00  0.00    +0.000 A 
ATOM     24  C   UNL     1       3.604   4.114  18.067  0.00  0.00    +0.000 A 
ATOM     25  C   UNL     1       3.555   5.507  18.219  0.00  0.00    +0.000 A 
ATOM     26  C   UNL     1       4.292   6.302  17.330  0.00  0.00    +0.000 A 
ATOM     27  C   UNL     1       5.057   5.713  16.311  0.00  0.00    +0.000 A 
BRANCH  22  29
ATOM     28  C   UNL     1       6.510   4.439  14.271  0.00  0.00    +0.000 C 
ATOM     29  O   UNL     1       5.817   3.645  15.229  0.00  0.00    +0.000 OA
ENDBRANCH  22  29
ENDBRANCH  18  25
ENDBRANCH   1  20
TORSDOF 6
ENDMDL
MODEL 6
REMARK VINA RESULT:      -7.2      1.947      3.426
REMARK  Name = 
REMARK  8 active torsions:
REMARK  status: ('A' for Active; 'I' for Inactive)
REMARK    1  A    between atoms: C_1  and  O_2
REMARK    2  A    between atoms: O_2  and  C_3
REMARK    3  A    between atoms: C_6  and  C_7
REMARK    4  A    between atoms: N_9  and  N_10
REMARK    5  A    between atoms: C_11  and  C_13
REMARK    6  A    between atoms: C_16  and  C_17
REMARK    7  A    between atoms: C_20  and  S_21
REMARK    8  A    between atoms: S_21  and  C_22
REMARK                            x       y       z     vdW  Elec       q    Type
REMARK                         _______ _______ _______ _____ _____    ______ ____
ROOT
ATOM      1  N   UNL     1       0.482   9.357  21.207  0.00  0.00    +0.000 N 
ATOM      2  C   UNL     1       1.088   9.155  19.982  0.00  0.00    +0.000 C 
ATOM      3  O   UNL     1       1.060  10.026  19.109  0.00  0.00    +0.000 OA
ATOM      4  H   UNL     1       0.479   8.653  21.944  0.00  0.00    +0.000 HD
ENDROOT
BRANCH   2   5
ATOM      5  C   UNL     1       1.740   7.875  19.817  0.00  0.00    +0.000 A 
ATOM      6  C   UNL     1       1.700   6.745  20.610  0.00  0.00    +0.000 A 
ATOM      7  C   UNL     1       2.517   5.776  19.984  0.00  0.00    +0.000 A 
ATOM      8  C   UNL     1       3.014   6.354  18.831  0.00  0.00    +0.000 A 
ATOM      9  O   UNL     1       2.544   7.639  18.730  0.00  0.00    +0.000 OA
BRANCH   8  10
ATOM     10  C   UNL     1       3.875   5.872  17.750  0.00  0.00    +0.000 A 
ATOM     11  C   UNL     1       4.559   6.781  16.929  0.00  0.00    +0.000 A 
ATOM     12  C   UNL     1       5.424   6.337  15.921  0.00  0.00    +0.000 A 
ATOM     13  C   UNL     1       5.632   4.972  15.705  0.00  0.00    +0.000 A 
ATOM     14  C   UNL     1       4.929   4.060  16.495  0.00  0.00    +0.000 A 
ATOM     15  C   UNL     1       4.062   4.506  17.506  0.00  0.00    +0.000 A 
BRANCH  13  16
ATOM     16  S   UNL     1       6.746   4.502  14.390  0.00  0.00    +0.000 S 
ATOM     17  C   UNL     1       5.624   3.735  13.189  0.00  0.00    +0.000 C 
ENDBRANCH  13  16
ENDBRANCH   8  10
ENDBRANCH   2   5
BRANCH   1  20
ATOM     18  C   UNL     1      -0.681  10.808  22.715  0.00  0.00    +0.000 C 
ATOM     19  O   UNL     1      -0.515  10.007  23.635  0.00  0.00    +0.000 OA
ATOM     20  N   UNL     1      -0.189  10.565  21.446  0.00  0.00    +0.000 N 
ATOM     21  H   UNL     1      -0.323  11.160  20.634  0.00  0.00    +0.000 HD
BRANCH  18  25
ATOM     22  C   UNL     1      -2.722  14.567  23.310  0.00  0.00    +0.000 A 
ATOM     23  C   UNL     1      -1.411  14.515  22.838  0.00  0.00    +0.000 A 
ATOM     24  C   UNL     1      -0.773  13.286  22.646  0.00  0.00    +0.000 A 
ATOM     25  C   UNL     1      -1.430  12.083  22.941  0.00  0.00    +0.000 A 
ATOM     26  C   UNL     1      -2.742  12.141  23.432  0.00  0.00    +0.000 A 
ATOM     27  C   UNL     1      -3.381  13.377  23.616  0.00  0.00    +0.000 A 
BRANCH  22  29
ATOM     28  C   UNL     1      -2.371  16.779  24.083  0.00  0.00    +0.000 C 
ATOM     29  O   UNL     1      -3.234  15.824  23.473  0.00  0.00    +0.000 OA
ENDBRANCH  22  29
ENDBRANCH  18  25
ENDBRANCH   1  20
TORSDOF 6
ENDMDL
MODEL 7
REMARK VINA RESULT:      -7.2      1.918      3.447
REMARK  Name = 
REMARK  8 active torsions:
REMARK  status: ('A' for Active; 'I' for Inactive)
REMARK    1  A    between atoms: C_1  and  O_2
REMARK    2  A    between atoms: O_2  and  C_3
REMARK    3  A    between atoms: C_6  and  C_7
REMARK    4  A    between atoms: N_9  and  N_10
REMARK    5  A    between atoms: C_11  and  C_13
REMARK    6  A    between atoms: C_16  and  C_17
REMARK    7  A    between atoms: C_20  and  S_21
REMARK    8  A    between atoms: S_21  and  C_22
REMARK                            x       y       z     vdW  Elec       q    Type
REMARK                         _______ _______ _______ _____ _____    ______ ____
ROOT
ATOM      1  N   UNL     1       0.000   8.989  21.161  0.00  0.00    +0.000 N 
ATOM      2  C   UNL     1       1.077   8.967  20.296  0.00  0.00    +0.000 C 
ATOM      3  O   UNL     1       1.485  10.001  19.763  0.00  0.00    +0.000 OA
ATOM      4  H   UNL     1      -0.366   8.150  21.609  0.00  0.00    +0.000 HD
ENDROOT
BRANCH   2   5
ATOM      5  C   UNL     1       1.669   7.665  20.079  0.00  0.00    +0.000 A 
ATOM      6  C   UNL     1       1.586   6.511  20.832  0.00  0.00    +0.000 A 
ATOM      7  C   UNL     1       2.352   5.529  20.162  0.00  0.00    +0.000 A 
ATOM      8  C   UNL     1       2.864   6.125  19.025  0.00  0.00    +0.000 A 
ATOM      9  O   UNL     1       2.451   7.433  18.975  0.00  0.00    +0.000 OA
BRANCH   8  10
ATOM     10  C   UNL     1       3.691   5.645  17.917  0.00  0.00    +0.000 A 
ATOM     11  C   UNL     1       3.775   4.273  17.636  0.00  0.00    +0.000 A 
ATOM     12  C   UNL     1       4.524   3.802  16.550  0.00  0.00    +0.000 A 
ATOM     13  C   UNL     1       5.208   4.686  15.713  0.00  0.00    +0.000 A 
ATOM     14  C   UNL     1       5.158   6.051  16.006  0.00  0.00    +0.000 A 
ATOM     15  C   UNL     1       4.407   6.523  17.094  0.00  0.00    +0.000 A 
BRANCH  13  16
ATOM     16  S   UNL     1       6.144   3.990  14.360  0.00  0.00    +0.000 S 
ATOM     17  C   UNL     1       7.405   5.260  14.068  0.00  0.00    +0.000 C 
ENDBRANCH  13  16
ENDBRANCH   8  10
ENDBRANCH   2   5
BRANCH   1  20
ATOM     18  C   UNL     1      -0.627  10.710  22.703  0.00  0.00    +0.000 C 
ATOM     19  O   UNL     1      -0.033  10.130  23.613  0.00  0.00    +0.000 OA
ATOM     20  N   UNL     1      -0.646  10.207  21.415  0.00  0.00    +0.000 N 
ATOM     21  H   UNL     1      -1.146  10.610  20.629  0.00  0.00    +0.000 HD
BRANCH  18  25
ATOM     22  C   UNL     1      -2.855  14.324  23.494  0.00  0.00    +0.000 A 
ATOM     23  C   UNL     1      -3.450  13.066  23.579  0.00  0.00    +0.000 A 
ATOM     24  C   UNL     1      -2.708  11.909  23.326  0.00  0.00    +0.000 A 
ATOM     25  C   UNL     1      -1.356  11.990  22.964  0.00  0.00    +0.000 A 
ATOM     26  C   UNL     1      -0.766  13.258  22.863  0.00  0.00    +0.000 A 
ATOM     27  C   UNL     1      -1.514  14.417  23.126  0.00  0.00    +0.000 A 
BRANCH  22  29
ATOM     28  C   UNL     1      -4.752  15.575  22.826  0.00  0.00    +0.000 C 
ATOM     29  O   UNL     1      -3.684  15.380  23.748  0.00  0.00    +0.000 OA
ENDBRANCH  22  29
ENDBRANCH  18  25
ENDBRANCH   1  20
TORSDOF 6
ENDMDL
MODEL 8
REMARK VINA RESULT:      -7.2      4.031     10.958
REMARK  Name = 
REMARK  8 active torsions:
REMARK  status: ('A' for Active; 'I' for Inactive)
REMARK    1  A    between atoms: C_1  and  O_2
REMARK    2  A    between atoms: O_2  and  C_3
REMARK    3  A    between atoms: C_6  and  C_7
REMARK    4  A    between atoms: N_9  and  N_10
REMARK    5  A    between atoms: C_11  and  C_13
REMARK    6  A    between atoms: C_16  and  C_17
REMARK    7  A    between atoms: C_20  and  S_21
REMARK    8  A    between atoms: S_21  and  C_22
REMARK                            x       y       z     vdW  Elec       q    Type
REMARK                         _______ _______ _______ _____ _____    ______ ____
ROOT
ATOM      1  N   UNL     1       2.218   7.481  19.383  0.00  0.00    +0.000 N 
ATOM      2  C   UNL     1       1.627   8.726  19.287  0.00  0.00    +0.000 C 
ATOM      3  O   UNL     1       1.678   9.374  18.240  0.00  0.00    +0.000 OA
ATOM      4  H   UNL     1       2.202   6.926  20.238  0.00  0.00    +0.000 HD
ENDROOT
BRANCH   2   5
ATOM      5  C   UNL     1       0.960   9.188  20.485  0.00  0.00    +0.000 A 
ATOM      6  C   UNL     1       1.091   8.772  21.795  0.00  0.00    +0.000 A 
ATOM      7  C   UNL     1       0.208   9.563  22.566  0.00  0.00    +0.000 A 
ATOM      8  C   UNL     1      -0.418  10.433  21.693  0.00  0.00    +0.000 A 
ATOM      9  O   UNL     1       0.036  10.201  20.420  0.00  0.00    +0.000 OA
BRANCH   8  10
ATOM     10  C   UNL     1      -1.398  11.507  21.866  0.00  0.00    +0.000 A 
ATOM     11  C   UNL     1      -1.889  11.821  23.141  0.00  0.00    +0.000 A 
ATOM     12  C   UNL     1      -2.790  12.878  23.329  0.00  0.00    +0.000 A 
ATOM     13  C   UNL     1      -3.223  13.652  22.250  0.00  0.00    +0.000 A 
ATOM     14  C   UNL     1      -2.765  13.324  20.972  0.00  0.00    +0.000 A 
ATOM     15  C   UNL     1      -1.861  12.266  20.784  0.00  0.00    +0.000 A 
BRANCH  13  16
ATOM     16  S   UNL     1      -4.379  14.971  22.588  0.00  0.00    +0.000 S 
ATOM     17  C   UNL     1      -5.321  15.065  21.041  0.00  0.00    +0.000 C 
ENDBRANCH  13  16
ENDBRANCH   8  10
ENDBRANCH   2   5
BRANCH   1  20
ATOM     18  C   UNL     1       3.823   5.953  18.478  0.00  0.00    +0.000 C 
ATOM     19  O   UNL     1       4.029   5.484  19.598  0.00  0.00    +0.000 OA
ATOM     20  N   UNL     1       2.901   6.963  18.274  0.00  0.00    +0.000 N 
ATOM     21  H   UNL     1       2.710   7.421  17.389  0.00  0.00    +0.000 HD
BRANCH  18  25
ATOM     22  C   UNL     1       5.994   4.618  14.991  0.00  0.00    +0.000 A 
ATOM     23  C   UNL     1       5.616   5.950  15.150  0.00  0.00    +0.000 A 
ATOM     24  C   UNL     1       4.920   6.361  16.290  0.00  0.00    +0.000 A 
ATOM     25  C   UNL     1       4.572   5.440  17.288  0.00  0.00    +0.000 A 
ATOM     26  C   UNL     1       4.940   4.098  17.117  0.00  0.00    +0.000 A 
ATOM     27  C   UNL     1       5.645   3.692  15.974  0.00  0.00    +0.000 A 
BRANCH  22  29
ATOM     28  C   UNL     1       5.935   3.563  12.871  0.00  0.00    +0.000 C 
ATOM     29  O   UNL     1       6.654   4.333  13.829  0.00  0.00    +0.000 OA
ENDBRANCH  22  29
ENDBRANCH  18  25
ENDBRANCH   1  20
TORSDOF 6
ENDMDL
MODEL 9
REMARK VINA RESULT:      -7.2      4.140     11.089
REMARK  Name = 
REMARK  8 active torsions:
REMARK  status: ('A' for Active; 'I' for Inactive)
REMARK    1  A    between atoms: C_1  and  O_2
REMARK    2  A    between atoms: O_2  and  C_3
REMARK    3  A    between atoms: C_6  and  C_7
REMARK    4  A    between atoms: N_9  and  N_10
REMARK    5  A    between atoms: C_11  and  C_13
REMARK    6  A    between atoms: C_16  and  C_17
REMARK    7  A    between atoms: C_20  and  S_21
REMARK    8  A    between atoms: S_21  and  C_22
REMARK                            x       y       z     vdW  Elec       q    Type
REMARK                         _______ _______ _______ _____ _____    ______ ____
ROOT
ATOM      1  N   UNL     1       1.628   7.819  20.331  0.00  0.00    +0.000 N 
ATOM      2  C   UNL     1       1.065   9.068  20.151  0.00  0.00    +0.000 C 
ATOM      3  O   UNL     1       1.168   9.663  19.077  0.00  0.00    +0.000 OA
ATOM      4  H   UNL     1       1.569   7.307  21.210  0.00  0.00    +0.000 HD
ENDROOT
BRANCH   2   5
ATOM      5  C   UNL     1       0.361   9.600  21.298  0.00  0.00    +0.000 A 
ATOM      6  C   UNL     1       0.440   9.253  22.632  0.00  0.00    +0.000 A 
ATOM      7  C   UNL     1      -0.461  10.092  23.327  0.00  0.00    +0.000 A 
ATOM      8  C   UNL     1      -1.044  10.920  22.388  0.00  0.00    +0.000 A 
ATOM      9  O   UNL     1      -0.547  10.617  21.146  0.00  0.00    +0.000 OA
BRANCH   8  10
ATOM     10  C   UNL     1      -2.016  12.012  22.468  0.00  0.00    +0.000 A 
ATOM     11  C   UNL     1      -2.072  12.988  21.462  0.00  0.00    +0.000 A 
ATOM     12  C   UNL     1      -3.028  14.011  21.499  0.00  0.00    +0.000 A 
ATOM     13  C   UNL     1      -3.956  14.088  22.540  0.00  0.00    +0.000 A 
ATOM     14  C   UNL     1      -3.886  13.141  23.564  0.00  0.00    +0.000 A 
ATOM     15  C   UNL     1      -2.928  12.115  23.526  0.00  0.00    +0.000 A 
BRANCH  13  16
ATOM     16  S   UNL     1      -5.130  15.435  22.506  0.00  0.00    +0.000 S 
ATOM     17  C   UNL     1      -6.526  14.709  21.605  0.00  0.00    +0.000 C 
ENDBRANCH  13  16
ENDBRANCH   8  10
ENDBRANCH   2   5
BRANCH   1  20
ATOM     18  C   UNL     1       2.793   5.936  19.420  0.00  0.00    +0.000 C 
ATOM     19  O   UNL     1       2.551   5.279  20.433  0.00  0.00    +0.000 OA
ATOM     20  N   UNL     1       2.345   7.236  19.276  0.00  0.00    +0.000 N 
ATOM     21  H   UNL     1       2.540   7.847  18.489  0.00  0.00    +0.000 HD
BRANCH  18  25
ATOM     22  C   UNL     1       5.142   4.369  16.152  0.00  0.00    +0.000 A 
ATOM     23  C   UNL     1       5.051   5.739  16.394  0.00  0.00    +0.000 A 
ATOM     24  C   UNL     1       4.290   6.223  17.462  0.00  0.00    +0.000 A 
ATOM     25  C   UNL     1       3.590   5.344  18.300  0.00  0.00    +0.000 A 
ATOM     26  C   UNL     1       3.671   3.969  18.044  0.00  0.00    +0.000 A 
ATOM     27  C   UNL     1       4.443   3.486  16.974  0.00  0.00    +0.000 A 
BRANCH  22  29
ATOM     28  C   UNL     1       7.000   4.871  14.771  0.00  0.00    +0.000 C 
ATOM     29  O   UNL     1       5.901   4.016  15.072  0.00  0.00    +0.000 OA
ENDBRANCH  22  29
ENDBRANCH  18  25
ENDBRANCH   1  20
TORSDOF 6
ENDMDL
