MODEL 1
REMARK VINA RESULT:      -6.8      0.000      0.000
REMARK  Name = 
REMARK  2 active torsions:
REMARK  status: ('A' for Active; 'I' for Inactive)
REMARK    1  A    between atoms: C_1  and  C_2
REMARK    2  A    between atoms: C_9  and  C_10
REMARK                            x       y       z     vdW  Elec       q    Type
REMARK                         _______ _______ _______ _____ _____    ______ ____
ROOT
ATOM      1  C   UNL     1       4.349   2.210  20.024  0.00  0.00    +0.000 C 
ATOM      2  C   UNL     1       4.223   3.520  19.255  0.00  0.00    +0.000 C 
ATOM      3  C   UNL     1       3.954   3.270  17.767  0.00  0.00    +0.000 C 
ATOM      4  C   UNL     1       5.057   4.047  17.163  0.00  0.00    +0.000 A 
ATOM      5  C   UNL     1       5.331   4.218  15.817  0.00  0.00    +0.000 A 
ATOM      6  C   UNL     1       6.426   5.001  15.471  0.00  0.00    +0.000 A 
ATOM      7  F   UNL     1       6.719   5.180  14.177  0.00  0.00    +0.000 F 
ATOM      8  C   UNL     1       7.222   5.609  16.444  0.00  0.00    +0.000 A 
ATOM      9  C   UNL     1       6.940   5.428  17.809  0.00  0.00    +0.000 A 
ATOM     10  C   UNL     1       5.851   4.626  18.146  0.00  0.00    +0.000 A 
ATOM     11  O   UNL     1       5.441   4.301  19.416  0.00  0.00    +0.000 OA
ENDROOT
BRANCH   9  12
ATOM     12  C   UNL     1       7.820   6.132  18.781  0.00  0.00    +0.000 C 
ATOM     13  N   UNL     1       8.169   5.478  19.925  0.00  0.00    +0.000 N 
ATOM     14  O   UNL     1       8.220   7.272  18.575  0.00  0.00    +0.000 OA
ATOM     15  H   UNL     1       7.849   4.538  20.127  0.00  0.00    +0.000 HD
ATOM     16  H   UNL     1       8.748   5.966  20.595  0.00  0.00    +0.000 HD
ENDBRANCH   9  12
TORSDOF 1
ENDMDL
MODEL 2
REMARK VINA RESULT:      -6.7      2.752      3.403
REMARK  Name = 
REMARK  2 active torsions:
REMARK  status: ('A' for Active; 'I' for Inactive)
REMARK    1  A    between atoms: C_1  and  C_2
REMARK    2  A    between atoms: C_9  and  C_10
REMARK                            x       y       z     vdW  Elec       q    Type
REMARK                         _______ _______ _______ _____ _____    ______ ____
ROOT
ATOM      1  C   UNL     1       2.316   3.444  17.611  0.00  0.00    +0.000 C 
ATOM      2  C   UNL     1       3.787   3.132  17.859  0.00  0.00    +0.000 C 
ATOM      3  C   UNL     1       4.304   3.840  19.116  0.00  0.00    +0.000 C 
ATOM      4  C   UNL     1       5.464   4.563  18.556  0.00  0.00    +0.000 A 
ATOM      5  C   UNL     1       6.357   5.380  19.229  0.00  0.00    +0.000 A 
ATOM      6  C   UNL     1       7.387   5.959  18.499  0.00  0.00    +0.000 A 
ATOM      7  F   UNL     1       8.262   6.757  19.123  0.00  0.00    +0.000 F 
ATOM      8  C   UNL     1       7.531   5.721  17.130  0.00  0.00    +0.000 A 
ATOM      9  C   UNL     1       6.620   4.894  16.452  0.00  0.00    +0.000 A 
ATOM     10  C   UNL     1       5.579   4.333  17.190  0.00  0.00    +0.000 A 
ATOM     11  O   UNL     1       4.573   3.533  16.702  0.00  0.00    +0.000 OA
ENDROOT
BRANCH   9  12
ATOM     12  C   UNL     1       6.860   4.670  15.000  0.00  0.00    +0.000 C 
ATOM     13  N   UNL     1       6.248   3.608  14.403  0.00  0.00    +0.000 N 
ATOM     14  O   UNL     1       7.593   5.407  14.351  0.00  0.00    +0.000 OA
ATOM     15  H   UNL     1       5.642   2.978  14.914  0.00  0.00    +0.000 HD
ATOM     16  H   UNL     1       6.430   3.444  13.422  0.00  0.00    +0.000 HD
ENDBRANCH   9  12
TORSDOF 1
ENDMDL
MODEL 3
REMARK VINA RESULT:      -6.6      1.569      1.599
REMARK  Name = 
REMARK  2 active torsions:
REMARK  status: ('A' for Active; 'I' for Inactive)
REMARK    1  A    between atoms: C_1  and  C_2
REMARK    2  A    between atoms: C_9  and  C_10
REMARK                            x       y       z     vdW  Elec       q    Type
REMARK                         _______ _______ _______ _____ _____    ______ ____
ROOT
ATOM      1  C   UNL     1       2.521   4.370  20.493  0.00  0.00    +0.000 C 
ATOM      2  C   UNL     1       3.127   5.242  19.399  0.00  0.00    +0.000 C 
ATOM      3  C   UNL     1       2.940   4.610  18.015  0.00  0.00    +0.000 C 
ATOM      4  C   UNL     1       4.340   4.584  17.544  0.00  0.00    +0.000 A 
ATOM      5  C   UNL     1       4.813   4.130  16.324  0.00  0.00    +0.000 A 
ATOM      6  C   UNL     1       6.180   4.205  16.087  0.00  0.00    +0.000 A 
ATOM      7  F   UNL     1       6.666   3.768  14.919  0.00  0.00    +0.000 F 
ATOM      8  C   UNL     1       7.055   4.732  17.039  0.00  0.00    +0.000 A 
ATOM      9  C   UNL     1       6.569   5.188  18.277  0.00  0.00    +0.000 A 
ATOM     10  C   UNL     1       5.199   5.091  18.512  0.00  0.00    +0.000 A 
ATOM     11  O   UNL     1       4.543   5.446  19.666  0.00  0.00    +0.000 OA
ENDROOT
BRANCH   9  12
ATOM     12  C   UNL     1       7.564   5.761  19.225  0.00  0.00    +0.000 C 
ATOM     13  N   UNL     1       8.239   6.884  18.849  0.00  0.00    +0.000 N 
ATOM     14  O   UNL     1       7.786   5.240  20.312  0.00  0.00    +0.000 OA
ATOM     15  H   UNL     1       8.081   7.333  17.955  0.00  0.00    +0.000 HD
ATOM     16  H   UNL     1       8.930   7.258  19.485  0.00  0.00    +0.000 HD
ENDBRANCH   9  12
TORSDOF 1
ENDMDL
MODEL 4
REMARK VINA RESULT:      -6.5      2.383      3.676
REMARK  Name = 
REMARK  2 active torsions:
REMARK  status: ('A' for Active; 'I' for Inactive)
REMARK    1  A    between atoms: C_1  and  C_2
REMARK    2  A    between atoms: C_9  and  C_10
REMARK                            x       y       z     vdW  Elec       q    Type
REMARK                         _______ _______ _______ _____ _____    ______ ____
ROOT
ATOM      1  C   UNL     1       7.333   5.189  14.035  0.00  0.00    +0.000 C 
ATOM      2  C   UNL     1       6.960   4.281  15.201  0.00  0.00    +0.000 C 
ATOM      3  C   UNL     1       5.447   4.041  15.259  0.00  0.00    +0.000 C 
ATOM      4  C   UNL     1       5.164   4.461  16.647  0.00  0.00    +0.000 A 
ATOM      5  C   UNL     1       3.943   4.453  17.300  0.00  0.00    +0.000 A 
ATOM      6  C   UNL     1       3.908   4.891  18.618  0.00  0.00    +0.000 A 
ATOM      7  F   UNL     1       2.740   4.899  19.273  0.00  0.00    +0.000 F 
ATOM      8  C   UNL     1       5.065   5.315  19.275  0.00  0.00    +0.000 A 
ATOM      9  C   UNL     1       6.301   5.324  18.605  0.00  0.00    +0.000 A 
ATOM     10  C   UNL     1       6.322   4.901  17.278  0.00  0.00    +0.000 A 
ATOM     11  O   UNL     1       7.418   4.874  16.449  0.00  0.00    +0.000 OA
ENDROOT
BRANCH   9  12
ATOM     12  C   UNL     1       7.490   5.765  19.385  0.00  0.00    +0.000 C 
ATOM     13  N   UNL     1       8.249   6.780  18.882  0.00  0.00    +0.000 N 
ATOM     14  O   UNL     1       7.794   5.232  20.446  0.00  0.00    +0.000 OA
ATOM     15  H   UNL     1       8.026   7.235  18.006  0.00  0.00    +0.000 HD
ATOM     16  H   UNL     1       9.069   7.062  19.402  0.00  0.00    +0.000 HD
ENDBRANCH   9  12
TORSDOF 1
ENDMDL
MODEL 5
REMARK VINA RESULT:      -6.5      2.652      4.461
REMARK  Name = 
REMARK  2 active torsions:
REMARK  status: ('A' for Active; 'I' for Inactive)
REMARK    1  A    between atoms: C_1  and  C_2
REMARK    2  A    between atoms: C_9  and  C_10
REMARK                            x       y       z     vdW  Elec       q    Type
REMARK                         _______ _______ _______ _____ _____    ______ ____
ROOT
ATOM      1  C   UNL     1       7.980   6.099  19.080  0.00  0.00    +0.000 C 
ATOM      2  C   UNL     1       7.094   5.199  18.226  0.00  0.00    +0.000 C 
ATOM      3  C   UNL     1       6.092   6.020  17.406  0.00  0.00    +0.000 C 
ATOM      4  C   UNL     1       4.825   5.382  17.820  0.00  0.00    +0.000 A 
ATOM      5  C   UNL     1       3.544   5.690  17.391  0.00  0.00    +0.000 A 
ATOM      6  C   UNL     1       2.489   4.951  17.913  0.00  0.00    +0.000 A 
ATOM      7  F   UNL     1       1.240   5.230  17.520  0.00  0.00    +0.000 F 
ATOM      8  C   UNL     1       2.705   3.923  18.832  0.00  0.00    +0.000 A 
ATOM      9  C   UNL     1       4.007   3.618  19.266  0.00  0.00    +0.000 A 
ATOM     10  C   UNL     1       5.056   4.377  18.752  0.00  0.00    +0.000 A 
ATOM     11  O   UNL     1       6.386   4.257  19.080  0.00  0.00    +0.000 OA
ENDROOT
BRANCH   9  12
ATOM     12  C   UNL     1       4.154   2.490  20.227  0.00  0.00    +0.000 C 
ATOM     13  N   UNL     1       5.142   1.579  20.002  0.00  0.00    +0.000 N 
ATOM     14  O   UNL     1       3.407   2.369  21.191  0.00  0.00    +0.000 OA
ATOM     15  H   UNL     1       5.771   1.650  19.211  0.00  0.00    +0.000 HD
ATOM     16  H   UNL     1       5.226   0.801  20.643  0.00  0.00    +0.000 HD
ENDBRANCH   9  12
TORSDOF 1
ENDMDL
MODEL 6
REMARK VINA RESULT:      -6.3      3.361      5.058
REMARK  Name = 
REMARK  2 active torsions:
REMARK  status: ('A' for Active; 'I' for Inactive)
REMARK    1  A    between atoms: C_1  and  C_2
REMARK    2  A    between atoms: C_9  and  C_10
REMARK                            x       y       z     vdW  Elec       q    Type
REMARK                         _______ _______ _______ _____ _____    ______ ____
ROOT
ATOM      1  C   UNL     1       7.074   6.114  16.902  0.00  0.00    +0.000 C 
ATOM      2  C   UNL     1       5.636   5.614  16.823  0.00  0.00    +0.000 C 
ATOM      3  C   UNL     1       4.646   6.684  17.297  0.00  0.00    +0.000 C 
ATOM      4  C   UNL     1       3.918   5.930  18.339  0.00  0.00    +0.000 A 
ATOM      5  C   UNL     1       2.869   6.374  19.126  0.00  0.00    +0.000 A 
ATOM      6  C   UNL     1       2.326   5.486  20.046  0.00  0.00    +0.000 A 
ATOM      7  F   UNL     1       1.313   5.890  20.824  0.00  0.00    +0.000 F 
ATOM      8  C   UNL     1       2.809   4.183  20.172  0.00  0.00    +0.000 A 
ATOM      9  C   UNL     1       3.877   3.739  19.373  0.00  0.00    +0.000 A 
ATOM     10  C   UNL     1       4.427   4.643  18.466  0.00  0.00    +0.000 A 
ATOM     11  O   UNL     1       5.493   4.411  17.630  0.00  0.00    +0.000 OA
ENDROOT
BRANCH   9  12
ATOM     12  C   UNL     1       4.314   2.327  19.550  0.00  0.00    +0.000 C 
ATOM     13  N   UNL     1       4.053   1.442  18.547  0.00  0.00    +0.000 N 
ATOM     14  O   UNL     1       4.885   1.957  20.569  0.00  0.00    +0.000 OA
ATOM     15  H   UNL     1       3.577   1.717  17.696  0.00  0.00    +0.000 HD
ATOM     16  H   UNL     1       4.330   0.478  18.679  0.00  0.00    +0.000 HD
ENDBRANCH   9  12
TORSDOF 1
ENDMDL
MODEL 7
REMARK VINA RESULT:      -6.3      3.427      4.002
REMARK  Name = 
REMARK  2 active torsions:
REMARK  status: ('A' for Active; 'I' for Inactive)
REMARK    1  A    between atoms: C_1  and  C_2
REMARK    2  A    between atoms: C_9  and  C_10
REMARK                            x       y       z     vdW  Elec       q    Type
REMARK                         _______ _______ _______ _____ _____    ______ ____
ROOT
ATOM      1  C   UNL     1       1.434   2.558  21.603  0.00  0.00    +0.000 C 
ATOM      2  C   UNL     1       1.159   3.090  20.201  0.00  0.00    +0.000 C 
ATOM      3  C   UNL     1       1.993   2.349  19.149  0.00  0.00    +0.000 C 
ATOM      4  C   UNL     1       2.666   3.488  18.492  0.00  0.00    +0.000 A 
ATOM      5  C   UNL     1       3.552   3.447  17.429  0.00  0.00    +0.000 A 
ATOM      6  C   UNL     1       4.064   4.652  16.963  0.00  0.00    +0.000 A 
ATOM      7  F   UNL     1       4.928   4.643  15.940  0.00  0.00    +0.000 F 
ATOM      8  C   UNL     1       3.693   5.870  17.535  0.00  0.00    +0.000 A 
ATOM      9  C   UNL     1       2.796   5.905  18.617  0.00  0.00    +0.000 A 
ATOM     10  C   UNL     1       2.302   4.690  19.089  0.00  0.00    +0.000 A 
ATOM     11  O   UNL     1       1.451   4.515  20.153  0.00  0.00    +0.000 OA
ENDROOT
BRANCH   9  12
ATOM     12  C   UNL     1       2.431   7.245  19.151  0.00  0.00    +0.000 C 
ATOM     13  N   UNL     1       2.136   7.351  20.478  0.00  0.00    +0.000 N 
ATOM     14  O   UNL     1       2.385   8.233  18.427  0.00  0.00    +0.000 OA
ATOM     15  H   UNL     1       2.160   6.552  21.100  0.00  0.00    +0.000 HD
ATOM     16  H   UNL     1       1.866   8.257  20.835  0.00  0.00    +0.000 HD
ENDBRANCH   9  12
TORSDOF 1
ENDMDL
MODEL 8
REMARK VINA RESULT:      -6.3      3.197      4.789
REMARK  Name = 
REMARK  2 active torsions:
REMARK  status: ('A' for Active; 'I' for Inactive)
REMARK    1  A    between atoms: C_1  and  C_2
REMARK    2  A    between atoms: C_9  and  C_10
REMARK                            x       y       z     vdW  Elec       q    Type
REMARK                         _______ _______ _______ _____ _____    ______ ____
ROOT
ATOM      1  C   UNL     1       7.092   4.719  15.104  0.00  0.00    +0.000 C 
ATOM      2  C   UNL     1       5.588   4.736  15.353  0.00  0.00    +0.000 C 
ATOM      3  C   UNL     1       5.105   6.132  15.762  0.00  0.00    +0.000 C 
ATOM      4  C   UNL     1       4.419   5.815  17.032  0.00  0.00    +0.000 A 
ATOM      5  C   UNL     1       3.754   6.690  17.874  0.00  0.00    +0.000 A 
ATOM      6  C   UNL     1       3.172   6.169  19.023  0.00  0.00    +0.000 A 
ATOM      7  F   UNL     1       2.526   6.992  19.859  0.00  0.00    +0.000 F 
ATOM      8  C   UNL     1       3.241   4.807  19.321  0.00  0.00    +0.000 A 
ATOM      9  C   UNL     1       3.921   3.924  18.464  0.00  0.00    +0.000 A 
ATOM     10  C   UNL     1       4.517   4.459  17.323  0.00  0.00    +0.000 A 
ATOM     11  O   UNL     1       5.254   3.770  16.390  0.00  0.00    +0.000 OA
ENDROOT
BRANCH   9  12
ATOM     12  C   UNL     1       3.925   2.484  18.839  0.00  0.00    +0.000 C 
ATOM     13  N   UNL     1       4.883   2.047  19.704  0.00  0.00    +0.000 N 
ATOM     14  O   UNL     1       3.100   1.701  18.383  0.00  0.00    +0.000 OA
ATOM     15  H   UNL     1       5.582   2.669  20.093  0.00  0.00    +0.000 HD
ATOM     16  H   UNL     1       4.898   1.064  19.940  0.00  0.00    +0.000 HD
ENDBRANCH   9  12
TORSDOF 1
ENDMDL
MODEL 9
REMARK VINA RESULT:      -6.2      3.674      5.356
REMARK  Name = 
REMARK  2 active torsions:
REMARK  status: ('A' for Active; 'I' for Inactive)
REMARK    1  A    between atoms: C_1  and  C_2
REMARK    2  A    between atoms: C_9  and  C_10
REMARK                            x       y       z     vdW  Elec       q    Type
REMARK                         _______ _______ _______ _____ _____    ______ ____
ROOT
ATOM      1  C   UNL     1       6.698   4.367  15.782  0.00  0.00    +0.000 C 
ATOM      2  C   UNL     1       5.239   4.809  15.747  0.00  0.00    +0.000 C 
ATOM      3  C   UNL     1       5.057   6.184  16.401  0.00  0.00    +0.000 C 
ATOM      4  C   UNL     1       4.017   5.866  17.401  0.00  0.00    +0.000 A 
ATOM      5  C   UNL     1       3.418   6.732  18.301  0.00  0.00    +0.000 A 
ATOM      6  C   UNL     1       2.451   6.216  19.154  0.00  0.00    +0.000 A 
ATOM      7  F   UNL     1       1.859   7.029  20.038  0.00  0.00    +0.000 F 
ATOM      8  C   UNL     1       2.080   4.871  19.104  0.00  0.00    +0.000 A 
ATOM      9  C   UNL     1       2.694   3.996  18.191  0.00  0.00    +0.000 A 
ATOM     10  C   UNL     1       3.677   4.520  17.353  0.00  0.00    +0.000 A 
ATOM     11  O   UNL     1       4.414   3.822  16.426  0.00  0.00    +0.000 OA
ENDROOT
BRANCH   9  12
ATOM     12  C   UNL     1       2.223   2.584  18.184  0.00  0.00    +0.000 C 
ATOM     13  N   UNL     1       3.157   1.594  18.116  0.00  0.00    +0.000 N 
ATOM     14  O   UNL     1       1.030   2.307  18.228  0.00  0.00    +0.000 OA
ATOM     15  H   UNL     1       4.150   1.792  18.073  0.00  0.00    +0.000 HD
ATOM     16  H   UNL     1       2.834   0.636  18.089  0.00  0.00    +0.000 HD
ENDBRANCH   9  12
TORSDOF 1
ENDMDL
