MODEL 1
REMARK VINA RESULT:      -7.9      0.000      0.000
REMARK  Name = 
REMARK  6 active torsions:
REMARK  status: ('A' for Active; 'I' for Inactive)
REMARK    1  A    between atoms: C_1  and  O_2
REMARK    2  A    between atoms: O_2  and  C_3
REMARK    3  A    between atoms: C_7  and  C_8
REMARK    4  A    between atoms: C_8  and  N_9
REMARK    5  A    between atoms: C_10  and  C_12
REMARK    6  A    between atoms: C_22  and  C_23
REMARK                            x       y       z     vdW  Elec       q    Type
REMARK                         _______ _______ _______ _____ _____    ______ ____
ROOT
ATOM      1  C   UNL     1       2.124   4.524  18.672  0.00  0.00    +0.000 C 
ATOM      2  C   UNL     1       1.684   5.677  17.753  0.00  0.00    +0.000 C 
ATOM      3  C   UNL     1       2.258   7.036  18.181  0.00  0.00    +0.000 C 
ATOM      4  N   UNL     1       1.988   7.265  19.605  0.00  0.00    +0.000 N 
ATOM      5  C   UNL     1       1.404   8.434  20.056  0.00  0.00    +0.000 A 
ATOM      6  N   UNL     1       0.959   9.412  19.320  0.00  0.00    +0.000 NA
ATOM      7  N   UNL     1       0.425  10.395  20.126  0.00  0.00    +0.000 N 
ATOM      8  C   UNL     1      -0.134  11.551  19.623  0.00  0.00    +0.000 A 
ATOM      9  O   UNL     1      -0.244  11.868  18.444  0.00  0.00    +0.000 OA
ATOM     10  C   UNL     1      -0.644  12.471  20.679  0.00  0.00    +0.000 A 
ATOM     11  C   UNL     1      -0.534  12.125  21.971  0.00  0.00    +0.000 A 
ATOM     12  C   UNL     1      -1.013  13.010  23.085  0.00  0.00    +0.000 C 
ATOM     13  N   UNL     1       0.021  10.946  22.398  0.00  0.00    +0.000 NA
ATOM     14  C   UNL     1       0.464  10.172  21.467  0.00  0.00    +0.000 A 
ATOM     15  S   UNL     1       1.190   8.653  21.795  0.00  0.00    +0.000 S 
ATOM     16  C   UNL     1       2.530   6.226  20.482  0.00  0.00    +0.000 C 
ATOM     17  C   UNL     1       1.859   4.899  20.134  0.00  0.00    +0.000 C 
ENDROOT
BRANCH   1  19
ATOM     18  N   UNL     1       4.180   4.574  17.339  0.00  0.00    +0.000 N 
ATOM     19  C   UNL     1       3.592   4.138  18.498  0.00  0.00    +0.000 C 
ATOM     20  O   UNL     1       4.207   3.472  19.327  0.00  0.00    +0.000 OA
ATOM     21  H   UNL     1       3.594   4.834  16.557  0.00  0.00    +0.000 HD
BRANCH  18  22
ATOM     22  C   UNL     1       5.560   4.241  17.073  0.00  0.00    +0.000 C 
BRANCH  22  27
ATOM     23  C   UNL     1       7.475   7.470  17.701  0.00  0.00    +0.000 A 
ATOM     24  C   UNL     1       8.271   7.094  18.785  0.00  0.00    +0.000 A 
ATOM     25  C   UNL     1       8.174   5.813  19.329  0.00  0.00    +0.000 A 
ATOM     26  C   UNL     1       7.283   4.895  18.782  0.00  0.00    +0.000 A 
ATOM     27  C   UNL     1       6.490   5.249  17.682  0.00  0.00    +0.000 A 
ATOM     28  C   UNL     1       6.576   6.550  17.160  0.00  0.00    +0.000 A 
BRANCH  23  30
ATOM     29  C   UNL     1       8.454   9.602  18.089  0.00  0.00    +0.000 C 
ATOM     30  O   UNL     1       7.678   8.748  17.258  0.00  0.00    +0.000 OA
ENDBRANCH  23  30
ENDBRANCH  22  27
ENDBRANCH  18  22
ENDBRANCH   1  19
TORSDOF 4
ENDMDL
MODEL 2
REMARK VINA RESULT:      -7.6      3.630      9.231
REMARK  Name = 
REMARK  6 active torsions:
REMARK  status: ('A' for Active; 'I' for Inactive)
REMARK    1  A    between atoms: C_1  and  O_2
REMARK    2  A    between atoms: O_2  and  C_3
REMARK    3  A    between atoms: C_7  and  C_8
REMARK    4  A    between atoms: C_8  and  N_9
REMARK    5  A    between atoms: C_10  and  C_12
REMARK    6  A    between atoms: C_22  and  C_23
REMARK                            x       y       z     vdW  Elec       q    Type
REMARK                         _______ _______ _______ _____ _____    ______ ____
ROOT
ATOM      1  C   UNL     1      -0.005  10.531  20.039  0.00  0.00    +0.000 C 
ATOM      2  C   UNL     1      -0.048   9.493  21.175  0.00  0.00    +0.000 C 
ATOM      3  C   UNL     1       1.271   8.723  21.334  0.00  0.00    +0.000 C 
ATOM      4  N   UNL     1       1.691   8.179  20.037  0.00  0.00    +0.000 N 
ATOM      5  C   UNL     1       2.030   6.849  19.881  0.00  0.00    +0.000 A 
ATOM      6  N   UNL     1       1.953   5.918  20.789  0.00  0.00    +0.000 NA
ATOM      7  N   UNL     1       2.356   4.713  20.256  0.00  0.00    +0.000 N 
ATOM      8  C   UNL     1       2.369   3.541  20.982  0.00  0.00    +0.000 A 
ATOM      9  O   UNL     1       2.037   3.393  22.154  0.00  0.00    +0.000 OA
ATOM     10  C   UNL     1       2.844   2.364  20.202  0.00  0.00    +0.000 A 
ATOM     11  C   UNL     1       3.200   2.519  18.917  0.00  0.00    +0.000 A 
ATOM     12  C   UNL     1       3.702   1.380  18.077  0.00  0.00    +0.000 C 
ATOM     13  N   UNL     1       3.145   3.717  18.251  0.00  0.00    +0.000 NA
ATOM     14  C   UNL     1       2.740   4.721  18.950  0.00  0.00    +0.000 A 
ATOM     15  S   UNL     1       2.597   6.303  18.301  0.00  0.00    +0.000 S 
ATOM     16  C   UNL     1       1.859   9.198  18.998  0.00  0.00    +0.000 C 
ATOM     17  C   UNL     1       0.510   9.871  18.756  0.00  0.00    +0.000 C 
ENDROOT
BRANCH   1  19
ATOM     18  N   UNL     1       0.855  12.741  19.420  0.00  0.00    +0.000 N 
ATOM     19  C   UNL     1       0.852  11.752  20.369  0.00  0.00    +0.000 C 
ATOM     20  O   UNL     1       1.509  11.843  21.404  0.00  0.00    +0.000 OA
ATOM     21  H   UNL     1       0.577  12.516  18.474  0.00  0.00    +0.000 HD
BRANCH  18  22
ATOM     22  C   UNL     1       1.654  13.926  19.630  0.00  0.00    +0.000 C 
BRANCH  22  27
ATOM     23  C   UNL     1       0.823  17.347  18.183  0.00  0.00    +0.000 A 
ATOM     24  C   UNL     1      -0.501  17.493  18.605  0.00  0.00    +0.000 A 
ATOM     25  C   UNL     1      -1.133  16.483  19.330  0.00  0.00    +0.000 A 
ATOM     26  C   UNL     1      -0.437  15.321  19.647  0.00  0.00    +0.000 A 
ATOM     27  C   UNL     1       0.898  15.165  19.250  0.00  0.00    +0.000 A 
ATOM     28  C   UNL     1       1.515  16.176  18.496  0.00  0.00    +0.000 A 
BRANCH  23  30
ATOM     29  C   UNL     1       0.816  18.631  16.182  0.00  0.00    +0.000 C 
ATOM     30  O   UNL     1       1.325  18.415  17.492  0.00  0.00    +0.000 OA
ENDBRANCH  23  30
ENDBRANCH  22  27
ENDBRANCH  18  22
ENDBRANCH   1  19
TORSDOF 4
ENDMDL
MODEL 3
REMARK VINA RESULT:      -7.5      2.540      3.500
REMARK  Name = 
REMARK  6 active torsions:
REMARK  status: ('A' for Active; 'I' for Inactive)
REMARK    1  A    between atoms: C_1  and  O_2
REMARK    2  A    between atoms: O_2  and  C_3
REMARK    3  A    between atoms: C_7  and  C_8
REMARK    4  A    between atoms: C_8  and  N_9
REMARK    5  A    between atoms: C_10  and  C_12
REMARK    6  A    between atoms: C_22  and  C_23
REMARK                            x       y       z     vdW  Elec       q    Type
REMARK                         _______ _______ _______ _____ _____    ______ ____
ROOT
ATOM      1  C   UNL     1       2.944   4.312  18.373  0.00  0.00    +0.000 C 
ATOM      2  C   UNL     1       2.330   5.404  17.479  0.00  0.00    +0.000 C 
ATOM      3  C   UNL     1       2.728   6.823  17.908  0.00  0.00    +0.000 C 
ATOM      4  N   UNL     1       2.469   7.003  19.340  0.00  0.00    +0.000 N 
ATOM      5  C   UNL     1       1.747   8.080  19.820  0.00  0.00    +0.000 A 
ATOM      6  N   UNL     1       1.155   8.995  19.108  0.00  0.00    +0.000 NA
ATOM      7  N   UNL     1       0.517   9.892  19.938  0.00  0.00    +0.000 N 
ATOM      8  C   UNL     1      -0.205  10.966  19.463  0.00  0.00    +0.000 A 
ATOM      9  O   UNL     1      -0.388  11.275  18.290  0.00  0.00    +0.000 OA
ATOM     10  C   UNL     1      -0.805  11.801  20.542  0.00  0.00    +0.000 A 
ATOM     11  C   UNL     1      -0.615  11.463  21.826  0.00  0.00    +0.000 A 
ATOM     12  C   UNL     1      -1.177  12.266  22.963  0.00  0.00    +0.000 C 
ATOM     13  N   UNL     1       0.104  10.365  22.226  0.00  0.00    +0.000 NA
ATOM     14  C   UNL     1       0.621   9.665  21.275  0.00  0.00    +0.000 A 
ATOM     15  S   UNL     1       1.552   8.254  21.566  0.00  0.00    +0.000 S 
ATOM     16  C   UNL     1       3.168   6.039  20.191  0.00  0.00    +0.000 C 
ATOM     17  C   UNL     1       2.671   4.637  19.846  0.00  0.00    +0.000 C 
ENDROOT
BRANCH   1  19
ATOM     18  N   UNL     1       4.897   4.417  16.895  0.00  0.00    +0.000 N 
ATOM     19  C   UNL     1       4.445   4.128  18.157  0.00  0.00    +0.000 C 
ATOM     20  O   UNL     1       5.201   3.734  19.042  0.00  0.00    +0.000 OA
ATOM     21  H   UNL     1       4.238   4.429  16.128  0.00  0.00    +0.000 HD
BRANCH  18  22
ATOM     22  C   UNL     1       6.298   4.252  16.586  0.00  0.00    +0.000 C 
BRANCH  22  27
ATOM     23  C   UNL     1       6.086   3.554  12.850  0.00  0.00    +0.000 A 
ATOM     24  C   UNL     1       7.050   4.440  12.365  0.00  0.00    +0.000 A 
ATOM     25  C   UNL     1       7.749   5.279  13.233  0.00  0.00    +0.000 A 
ATOM     26  C   UNL     1       7.491   5.227  14.600  0.00  0.00    +0.000 A 
ATOM     27  C   UNL     1       6.541   4.330  15.107  0.00  0.00    +0.000 A 
ATOM     28  C   UNL     1       5.824   3.510  14.220  0.00  0.00    +0.000 A 
BRANCH  23  30
ATOM     29  C   UNL     1       4.220   3.220  11.415  0.00  0.00    +0.000 C 
ATOM     30  O   UNL     1       5.485   2.782  11.894  0.00  0.00    +0.000 OA
ENDBRANCH  23  30
ENDBRANCH  22  27
ENDBRANCH  18  22
ENDBRANCH   1  19
TORSDOF 4
ENDMDL
MODEL 4
REMARK VINA RESULT:      -7.5      3.049     10.177
REMARK  Name = 
REMARK  6 active torsions:
REMARK  status: ('A' for Active; 'I' for Inactive)
REMARK    1  A    between atoms: C_1  and  O_2
REMARK    2  A    between atoms: O_2  and  C_3
REMARK    3  A    between atoms: C_7  and  C_8
REMARK    4  A    between atoms: C_8  and  N_9
REMARK    5  A    between atoms: C_10  and  C_12
REMARK    6  A    between atoms: C_22  and  C_23
REMARK                            x       y       z     vdW  Elec       q    Type
REMARK                         _______ _______ _______ _____ _____    ______ ____
ROOT
ATOM      1  C   UNL     1       0.916  12.003  19.890  0.00  0.00    +0.000 C 
ATOM      2  C   UNL     1       1.775  11.597  18.679  0.00  0.00    +0.000 C 
ATOM      3  C   UNL     1       1.388  10.228  18.101  0.00  0.00    +0.000 C 
ATOM      4  N   UNL     1       1.350   9.227  19.173  0.00  0.00    +0.000 N 
ATOM      5  C   UNL     1       2.023   8.024  19.070  0.00  0.00    +0.000 A 
ATOM      6  N   UNL     1       2.810   7.657  18.099  0.00  0.00    +0.000 NA
ATOM      7  N   UNL     1       3.315   6.401  18.359  0.00  0.00    +0.000 N 
ATOM      8  C   UNL     1       4.189   5.757  17.509  0.00  0.00    +0.000 A 
ATOM      9  O   UNL     1       4.636   6.180  16.447  0.00  0.00    +0.000 OA
ATOM     10  C   UNL     1       4.600   4.409  17.991  0.00  0.00    +0.000 A 
ATOM     11  C   UNL     1       4.122   3.946  19.156  0.00  0.00    +0.000 A 
ATOM     12  C   UNL     1       4.483   2.591  19.694  0.00  0.00    +0.000 C 
ATOM     13  N   UNL     1       3.265   4.652  19.961  0.00  0.00    +0.000 NA
ATOM     14  C   UNL     1       2.916   5.811  19.518  0.00  0.00    +0.000 A 
ATOM     15  S   UNL     1       1.856   6.850  20.377  0.00  0.00    +0.000 S 
ATOM     16  C   UNL     1       0.425   9.561  20.258  0.00  0.00    +0.000 C 
ATOM     17  C   UNL     1       0.892  10.860  20.911  0.00  0.00    +0.000 C 
ENDROOT
BRANCH   1  19
ATOM     18  N   UNL     1      -1.417  12.369  20.547  0.00  0.00    +0.000 N 
ATOM     19  C   UNL     1      -0.514  12.386  19.515  0.00  0.00    +0.000 C 
ATOM     20  O   UNL     1      -0.846  12.677  18.368  0.00  0.00    +0.000 OA
ATOM     21  H   UNL     1      -1.201  11.838  21.381  0.00  0.00    +0.000 HD
BRANCH  18  22
ATOM     22  C   UNL     1      -2.800  12.694  20.288  0.00  0.00    +0.000 C 
BRANCH  22  27
ATOM     23  C   UNL     1      -5.704  13.071  22.720  0.00  0.00    +0.000 A 
ATOM     24  C   UNL     1      -5.051  12.869  23.939  0.00  0.00    +0.000 A 
ATOM     25  C   UNL     1      -3.686  12.586  23.977  0.00  0.00    +0.000 A 
ATOM     26  C   UNL     1      -2.961  12.515  22.791  0.00  0.00    +0.000 A 
ATOM     27  C   UNL     1      -3.596  12.734  21.560  0.00  0.00    +0.000 A 
ATOM     28  C   UNL     1      -4.976  12.990  21.532  0.00  0.00    +0.000 A 
BRANCH  23  30
ATOM     29  C   UNL     1      -7.539  13.618  24.130  0.00  0.00    +0.000 C 
ATOM     30  O   UNL     1      -7.038  13.351  22.826  0.00  0.00    +0.000 OA
ENDBRANCH  23  30
ENDBRANCH  22  27
ENDBRANCH  18  22
ENDBRANCH   1  19
TORSDOF 4
ENDMDL
MODEL 5
REMARK VINA RESULT:      -7.4      2.932     10.021
REMARK  Name = 
REMARK  6 active torsions:
REMARK  status: ('A' for Active; 'I' for Inactive)
REMARK    1  A    between atoms: C_1  and  O_2
REMARK    2  A    between atoms: O_2  and  C_3
REMARK    3  A    between atoms: C_7  and  C_8
REMARK    4  A    between atoms: C_8  and  N_9
REMARK    5  A    between atoms: C_10  and  C_12
REMARK    6  A    between atoms: C_22  and  C_23
REMARK                            x       y       z     vdW  Elec       q    Type
REMARK                         _______ _______ _______ _____ _____    ______ ____
ROOT
ATOM      1  C   UNL     1      -0.772   9.816  20.886  0.00  0.00    +0.000 C 
ATOM      2  C   UNL     1      -0.434   8.432  21.466  0.00  0.00    +0.000 C 
ATOM      3  C   UNL     1       1.069   8.118  21.430  0.00  0.00    +0.000 C 
ATOM      4  N   UNL     1       1.594   8.348  20.080  0.00  0.00    +0.000 N 
ATOM      5  C   UNL     1       2.341   7.393  19.416  0.00  0.00    +0.000 A 
ATOM      6  N   UNL     1       2.604   6.188  19.833  0.00  0.00    +0.000 NA
ATOM      7  N   UNL     1       3.357   5.522  18.890  0.00  0.00    +0.000 N 
ATOM      8  C   UNL     1       3.777   4.219  19.052  0.00  0.00    +0.000 A 
ATOM      9  O   UNL     1       3.554   3.484  20.008  0.00  0.00    +0.000 OA
ATOM     10  C   UNL     1       4.580   3.707  17.906  0.00  0.00    +0.000 A 
ATOM     11  C   UNL     1       4.819   4.505  16.854  0.00  0.00    +0.000 A 
ATOM     12  C   UNL     1       5.632   4.059  15.673  0.00  0.00    +0.000 C 
ATOM     13  N   UNL     1       4.353   5.790  16.752  0.00  0.00    +0.000 NA
ATOM     14  C   UNL     1       3.669   6.214  17.760  0.00  0.00    +0.000 A 
ATOM     15  S   UNL     1       2.997   7.790  17.826  0.00  0.00    +0.000 S 
ATOM     16  C   UNL     1       1.385   9.713  19.591  0.00  0.00    +0.000 C 
ATOM     17  C   UNL     1      -0.118   9.972  19.508  0.00  0.00    +0.000 C 
ENDROOT
BRANCH   1  19
ATOM     18  N   UNL     1      -0.731  12.219  21.371  0.00  0.00    +0.000 N 
ATOM     19  C   UNL     1      -0.346  10.971  21.790  0.00  0.00    +0.000 C 
ATOM     20  O   UNL     1       0.309  10.806  22.817  0.00  0.00    +0.000 OA
ATOM     21  H   UNL     1      -0.980  12.356  20.401  0.00  0.00    +0.000 HD
BRANCH  18  22
ATOM     22  C   UNL     1      -0.357  13.377  22.148  0.00  0.00    +0.000 C 
BRANCH  22  27
ATOM     23  C   UNL     1      -3.711  13.525  23.941  0.00  0.00    +0.000 A 
ATOM     24  C   UNL     1      -3.444  14.491  24.914  0.00  0.00    +0.000 A 
ATOM     25  C   UNL     1      -2.181  15.074  25.010  0.00  0.00    +0.000 A 
ATOM     26  C   UNL     1      -1.177  14.700  24.122  0.00  0.00    +0.000 A 
ATOM     27  C   UNL     1      -1.433  13.746  23.127  0.00  0.00    +0.000 A 
ATOM     28  C   UNL     1      -2.700  13.146  23.057  0.00  0.00    +0.000 A 
BRANCH  23  30
ATOM     29  C   UNL     1      -5.772  13.268  22.781  0.00  0.00    +0.000 C 
ATOM     30  O   UNL     1      -4.991  13.043  23.949  0.00  0.00    +0.000 OA
ENDBRANCH  23  30
ENDBRANCH  22  27
ENDBRANCH  18  22
ENDBRANCH   1  19
TORSDOF 4
ENDMDL
MODEL 6
REMARK VINA RESULT:      -7.4      2.903      9.099
REMARK  Name = 
REMARK  6 active torsions:
REMARK  status: ('A' for Active; 'I' for Inactive)
REMARK    1  A    between atoms: C_1  and  O_2
REMARK    2  A    between atoms: O_2  and  C_3
REMARK    3  A    between atoms: C_7  and  C_8
REMARK    4  A    between atoms: C_8  and  N_9
REMARK    5  A    between atoms: C_10  and  C_12
REMARK    6  A    between atoms: C_22  and  C_23
REMARK                            x       y       z     vdW  Elec       q    Type
REMARK                         _______ _______ _______ _____ _____    ______ ____
ROOT
ATOM      1  C   UNL     1       0.224  11.356  21.986  0.00  0.00    +0.000 C 
ATOM      2  C   UNL     1       1.049  11.389  20.687  0.00  0.00    +0.000 C 
ATOM      3  C   UNL     1       0.722  10.225  19.740  0.00  0.00    +0.000 C 
ATOM      4  N   UNL     1       0.797   8.953  20.467  0.00  0.00    +0.000 N 
ATOM      5  C   UNL     1       1.537   7.887  19.995  0.00  0.00    +0.000 A 
ATOM      6  N   UNL     1       2.299   7.880  18.939  0.00  0.00    +0.000 NA
ATOM      7  N   UNL     1       2.894   6.644  18.801  0.00  0.00    +0.000 N 
ATOM      8  C   UNL     1       3.766   6.344  17.776  0.00  0.00    +0.000 A 
ATOM      9  O   UNL     1       4.135   7.092  16.876  0.00  0.00    +0.000 OA
ATOM     10  C   UNL     1       4.282   4.948  17.826  0.00  0.00    +0.000 A 
ATOM     11  C   UNL     1       3.888   4.129  18.813  0.00  0.00    +0.000 A 
ATOM     12  C   UNL     1       4.358   2.706  18.916  0.00  0.00    +0.000 C 
ATOM     13  N   UNL     1       3.028   4.502  19.813  0.00  0.00    +0.000 NA
ATOM     14  C   UNL     1       2.587   5.712  19.743  0.00  0.00    +0.000 A 
ATOM     15  S   UNL     1       1.505   6.371  20.899  0.00  0.00    +0.000 S 
ATOM     16  C   UNL     1      -0.096   8.885  21.627  0.00  0.00    +0.000 C 
ATOM     17  C   UNL     1       0.320   9.965  22.623  0.00  0.00    +0.000 C 
ENDROOT
BRANCH   1  19
ATOM     18  N   UNL     1      -1.525  12.381  20.608  0.00  0.00    +0.000 N 
ATOM     19  C   UNL     1      -1.243  11.727  21.780  0.00  0.00    +0.000 C 
ATOM     20  O   UNL     1      -2.116  11.474  22.607  0.00  0.00    +0.000 OA
ATOM     21  H   UNL     1      -0.775  12.845  20.111  0.00  0.00    +0.000 HD
BRANCH  18  22
ATOM     22  C   UNL     1      -2.880  12.794  20.332  0.00  0.00    +0.000 C 
BRANCH  22  27
ATOM     23  C   UNL     1      -3.051  11.085  16.935  0.00  0.00    +0.000 A 
ATOM     24  C   UNL     1      -4.431  10.914  16.799  0.00  0.00    +0.000 A 
ATOM     25  C   UNL     1      -5.303  11.324  17.807  0.00  0.00    +0.000 A 
ATOM     26  C   UNL     1      -4.796  11.919  18.959  0.00  0.00    +0.000 A 
ATOM     27  C   UNL     1      -3.416  12.116  19.105  0.00  0.00    +0.000 A 
ATOM     28  C   UNL     1      -2.546  11.674  18.095  0.00  0.00    +0.000 A 
BRANCH  23  30
ATOM     29  C   UNL     1      -3.032  10.201  14.727  0.00  0.00    +0.000 C 
ATOM     30  O   UNL     1      -2.313  10.650  15.869  0.00  0.00    +0.000 OA
ENDBRANCH  23  30
ENDBRANCH  22  27
ENDBRANCH  18  22
ENDBRANCH   1  19
TORSDOF 4
ENDMDL
MODEL 7
REMARK VINA RESULT:      -7.3      3.349      8.580
REMARK  Name = 
REMARK  6 active torsions:
REMARK  status: ('A' for Active; 'I' for Inactive)
REMARK    1  A    between atoms: C_1  and  O_2
REMARK    2  A    between atoms: O_2  and  C_3
REMARK    3  A    between atoms: C_7  and  C_8
REMARK    4  A    between atoms: C_8  and  N_9
REMARK    5  A    between atoms: C_10  and  C_12
REMARK    6  A    between atoms: C_22  and  C_23
REMARK                            x       y       z     vdW  Elec       q    Type
REMARK                         _______ _______ _______ _____ _____    ______ ____
ROOT
ATOM      1  C   UNL     1      -0.837  11.614  20.162  0.00  0.00    +0.000 C 
ATOM      2  C   UNL     1      -0.715  10.433  21.142  0.00  0.00    +0.000 C 
ATOM      3  C   UNL     1       0.712   9.874  21.232  0.00  0.00    +0.000 C 
ATOM      4  N   UNL     1       1.224   9.593  19.886  0.00  0.00    +0.000 N 
ATOM      5  C   UNL     1       1.779   8.371  19.558  0.00  0.00    +0.000 A 
ATOM      6  N   UNL     1       1.851   7.322  20.327  0.00  0.00    +0.000 NA
ATOM      7  N   UNL     1       2.451   6.285  19.645  0.00  0.00    +0.000 N 
ATOM      8  C   UNL     1       2.653   5.041  20.204  0.00  0.00    +0.000 A 
ATOM      9  O   UNL     1       2.343   4.678  21.334  0.00  0.00    +0.000 OA
ATOM     10  C   UNL     1       3.321   4.078  19.283  0.00  0.00    +0.000 A 
ATOM     11  C   UNL     1       3.654   4.467  18.043  0.00  0.00    +0.000 A 
ATOM     12  C   UNL     1       4.341   3.554  17.069  0.00  0.00    +0.000 C 
ATOM     13  N   UNL     1       3.405   5.721  17.546  0.00  0.00    +0.000 NA
ATOM     14  C   UNL     1       2.836   6.539  18.365  0.00  0.00    +0.000 A 
ATOM     15  S   UNL     1       2.437   8.151  17.935  0.00  0.00    +0.000 S 
ATOM     16  C   UNL     1       1.228  10.760  19.002  0.00  0.00    +0.000 C 
ATOM     17  C   UNL     1      -0.212  11.233  18.815  0.00  0.00    +0.000 C 
ENDROOT
BRANCH   1  19
ATOM     18  N   UNL     1      -0.226  13.962  19.815  0.00  0.00    +0.000 N 
ATOM     19  C   UNL     1      -0.195  12.899  20.681  0.00  0.00    +0.000 C 
ATOM     20  O   UNL     1       0.329  12.980  21.789  0.00  0.00    +0.000 OA
ATOM     21  H   UNL     1      -0.368  13.789  18.829  0.00  0.00    +0.000 HD
BRANCH  18  22
ATOM     22  C   UNL     1       0.376  15.215  20.206  0.00  0.00    +0.000 C 
BRANCH  22  27
ATOM     23  C   UNL     1       3.429  15.477  17.948  0.00  0.00    +0.000 A 
ATOM     24  C   UNL     1       3.147  16.663  17.265  0.00  0.00    +0.000 A 
ATOM     25  C   UNL     1       1.965  17.363  17.511  0.00  0.00    +0.000 A 
ATOM     26  C   UNL     1       1.061  16.882  18.454  0.00  0.00    +0.000 A 
ATOM     27  C   UNL     1       1.337  15.705  19.163  0.00  0.00    +0.000 A 
ATOM     28  C   UNL     1       2.516  14.994  18.886  0.00  0.00    +0.000 A 
BRANCH  23  30
ATOM     29  C   UNL     1       5.720  15.147  18.492  0.00  0.00    +0.000 C 
ATOM     30  O   UNL     1       4.624  14.899  17.620  0.00  0.00    +0.000 OA
ENDBRANCH  23  30
ENDBRANCH  22  27
ENDBRANCH  18  22
ENDBRANCH   1  19
TORSDOF 4
ENDMDL
MODEL 8
REMARK VINA RESULT:      -7.3      1.879      2.617
REMARK  Name = 
REMARK  6 active torsions:
REMARK  status: ('A' for Active; 'I' for Inactive)
REMARK    1  A    between atoms: C_1  and  O_2
REMARK    2  A    between atoms: O_2  and  C_3
REMARK    3  A    between atoms: C_7  and  C_8
REMARK    4  A    between atoms: C_8  and  N_9
REMARK    5  A    between atoms: C_10  and  C_12
REMARK    6  A    between atoms: C_22  and  C_23
REMARK                            x       y       z     vdW  Elec       q    Type
REMARK                         _______ _______ _______ _____ _____    ______ ____
ROOT
ATOM      1  C   UNL     1       2.153   4.759  18.840  0.00  0.00    +0.000 C 
ATOM      2  C   UNL     1       1.805   5.939  17.915  0.00  0.00    +0.000 C 
ATOM      3  C   UNL     1       2.363   7.278  18.415  0.00  0.00    +0.000 C 
ATOM      4  N   UNL     1       1.987   7.483  19.818  0.00  0.00    +0.000 N 
ATOM      5  C   UNL     1       1.388   8.652  20.248  0.00  0.00    +0.000 A 
ATOM      6  N   UNL     1       1.016   9.652  19.502  0.00  0.00    +0.000 NA
ATOM      7  N   UNL     1       0.436  10.627  20.284  0.00  0.00    +0.000 N 
ATOM      8  C   UNL     1      -0.065  11.803  19.765  0.00  0.00    +0.000 A 
ATOM      9  O   UNL     1      -0.077  12.145  18.588  0.00  0.00    +0.000 OA
ATOM     10  C   UNL     1      -0.642  12.709  20.797  0.00  0.00    +0.000 A 
ATOM     11  C   UNL     1      -0.638  12.335  22.086  0.00  0.00    +0.000 A 
ATOM     12  C   UNL     1      -1.190  13.204  23.179  0.00  0.00    +0.000 C 
ATOM     13  N   UNL     1      -0.136  11.138  22.530  0.00  0.00    +0.000 NA
ATOM     14  C   UNL     1       0.366  10.376  21.620  0.00  0.00    +0.000 A 
ATOM     15  S   UNL     1       1.041   8.838  21.969  0.00  0.00    +0.000 S 
ATOM     16  C   UNL     1       2.443   6.416  20.712  0.00  0.00    +0.000 C 
ATOM     17  C   UNL     1       1.781   5.109  20.285  0.00  0.00    +0.000 C 
ENDROOT
BRANCH   1  19
ATOM     18  N   UNL     1       4.270   4.673  17.606  0.00  0.00    +0.000 N 
ATOM     19  C   UNL     1       3.624   4.353  18.772  0.00  0.00    +0.000 C 
ATOM     20  O   UNL     1       4.195   3.765  19.688  0.00  0.00    +0.000 OA
ATOM     21  H   UNL     1       3.722   4.860  16.776  0.00  0.00    +0.000 HD
BRANCH  18  22
ATOM     22  C   UNL     1       5.657   4.310  17.438  0.00  0.00    +0.000 C 
BRANCH  22  27
ATOM     23  C   UNL     1       7.521   5.129  14.221  0.00  0.00    +0.000 A 
ATOM     24  C   UNL     1       6.745   4.438  13.288  0.00  0.00    +0.000 A 
ATOM     25  C   UNL     1       5.640   3.689  13.694  0.00  0.00    +0.000 A 
ATOM     26  C   UNL     1       5.299   3.637  15.042  0.00  0.00    +0.000 A 
ATOM     27  C   UNL     1       6.055   4.340  15.991  0.00  0.00    +0.000 A 
ATOM     28  C   UNL     1       7.181   5.067  15.573  0.00  0.00    +0.000 A 
BRANCH  23  30
ATOM     29  C   UNL     1       8.534   6.070  12.286  0.00  0.00    +0.000 C 
ATOM     30  O   UNL     1       8.566   5.831  13.688  0.00  0.00    +0.000 OA
ENDBRANCH  23  30
ENDBRANCH  22  27
ENDBRANCH  18  22
ENDBRANCH   1  19
TORSDOF 4
ENDMDL
MODEL 9
REMARK VINA RESULT:      -7.3      1.971      2.789
REMARK  Name = 
REMARK  6 active torsions:
REMARK  status: ('A' for Active; 'I' for Inactive)
REMARK    1  A    between atoms: C_1  and  O_2
REMARK    2  A    between atoms: O_2  and  C_3
REMARK    3  A    between atoms: C_7  and  C_8
REMARK    4  A    between atoms: C_8  and  N_9
REMARK    5  A    between atoms: C_10  and  C_12
REMARK    6  A    between atoms: C_22  and  C_23
REMARK                            x       y       z     vdW  Elec       q    Type
REMARK                         _______ _______ _______ _____ _____    ______ ____
ROOT
ATOM      1  C   UNL     1       1.855   4.447  18.996  0.00  0.00    +0.000 C 
ATOM      2  C   UNL     1       1.578   5.594  18.008  0.00  0.00    +0.000 C 
ATOM      3  C   UNL     1       2.234   6.917  18.427  0.00  0.00    +0.000 C 
ATOM      4  N   UNL     1       1.890   7.227  19.819  0.00  0.00    +0.000 N 
ATOM      5  C   UNL     1       1.378   8.457  20.187  0.00  0.00    +0.000 A 
ATOM      6  N   UNL     1       1.068   9.437  19.387  0.00  0.00    +0.000 NA
ATOM      7  N   UNL     1       0.566  10.493  20.118  0.00  0.00    +0.000 N 
ATOM      8  C   UNL     1       0.142  11.669  19.536  0.00  0.00    +0.000 A 
ATOM      9  O   UNL     1       0.139  11.945  18.342  0.00  0.00    +0.000 OA
ATOM     10  C   UNL     1      -0.358  12.670  20.520  0.00  0.00    +0.000 A 
ATOM     11  C   UNL     1      -0.365  12.370  21.828  0.00  0.00    +0.000 A 
ATOM     12  C   UNL     1      -0.841  13.336  22.874  0.00  0.00    +0.000 C 
ATOM     13  N   UNL     1       0.059  11.168  22.335  0.00  0.00    +0.000 NA
ATOM     14  C   UNL     1       0.496  10.323  21.466  0.00  0.00    +0.000 A 
ATOM     15  S   UNL     1       1.066   8.763  21.897  0.00  0.00    +0.000 S 
ATOM     16  C   UNL     1       2.282   6.183  20.768  0.00  0.00    +0.000 C 
ATOM     17  C   UNL     1       1.525   4.903  20.422  0.00  0.00    +0.000 C 
ENDROOT
BRANCH   1  19
ATOM     18  N   UNL     1       4.172   4.727  18.245  0.00  0.00    +0.000 N 
ATOM     19  C   UNL     1       3.293   3.936  18.939  0.00  0.00    +0.000 C 
ATOM     20  O   UNL     1       3.646   2.882  19.464  0.00  0.00    +0.000 OA
ATOM     21  H   UNL     1       3.809   5.396  17.577  0.00  0.00    +0.000 HD
BRANCH  18  22
ATOM     22  C   UNL     1       5.550   4.317  18.116  0.00  0.00    +0.000 C 
BRANCH  22  27
ATOM     23  C   UNL     1       5.731   4.173  14.316  0.00  0.00    +0.000 A 
ATOM     24  C   UNL     1       6.986   4.745  14.093  0.00  0.00    +0.000 A 
ATOM     25  C   UNL     1       7.761   5.199  15.160  0.00  0.00    +0.000 A 
ATOM     26  C   UNL     1       7.286   5.074  16.462  0.00  0.00    +0.000 A 
ATOM     27  C   UNL     1       6.037   4.485  16.706  0.00  0.00    +0.000 A 
ATOM     28  C   UNL     1       5.254   4.056  15.622  0.00  0.00    +0.000 A 
BRANCH  23  30
ATOM     29  C   UNL     1       5.883   3.207  12.148  0.00  0.00    +0.000 C 
ATOM     30  O   UNL     1       5.082   3.759  13.186  0.00  0.00    +0.000 OA
ENDBRANCH  23  30
ENDBRANCH  22  27
ENDBRANCH  18  22
ENDBRANCH   1  19
TORSDOF 4
ENDMDL
