MODEL 1
REMARK VINA RESULT:      -6.5      0.000      0.000
REMARK  Name = 
REMARK  3 active torsions:
REMARK  status: ('A' for Active; 'I' for Inactive)
REMARK    1  A    between atoms: C_1  and  O_2
REMARK    2  A    between atoms: O_2  and  C_3
REMARK    3  A    between atoms: N_10  and  C_11
REMARK                            x       y       z     vdW  Elec       q    Type
REMARK                         _______ _______ _______ _____ _____    ______ ____
ROOT
ATOM      1  C   UNL     1       2.387   4.924  20.861  0.00  0.00    +0.000 C 
ATOM      2  C   UNL     1       1.378   6.059  20.551  0.00  0.00    +0.000 C 
ATOM      3  C   UNL     1       2.054   7.328  20.017  0.00  0.00    +0.000 C 
ATOM      4  C   UNL     1       2.778   7.052  18.696  0.00  0.00    +0.000 C 
ATOM      5  C   UNL     1       3.583   5.804  18.788  0.00  0.00    +0.000 A 
ATOM      6  N   UNL     1       4.568   5.552  17.874  0.00  0.00    +0.000 NA
ATOM      7  C   UNL     1       5.168   4.410  18.137  0.00  0.00    +0.000 A 
ATOM      8  N   UNL     1       6.181   3.891  17.399  0.00  0.00    +0.000 N 
ATOM      9  S   UNL     1       4.581   3.616  19.563  0.00  0.00    +0.000 S 
ATOM     10  C   UNL     1       3.400   4.838  19.756  0.00  0.00    +0.000 A 
ATOM     11  H   UNL     1       6.711   3.114  17.768  0.00  0.00    +0.000 HD
ENDROOT
BRANCH   8  12
ATOM     12  C   UNL     1       6.415   4.193  16.042  0.00  0.00    +0.000 A 
ATOM     13  C   UNL     1       5.681   3.539  15.044  0.00  0.00    +0.000 A 
ATOM     14  C   UNL     1       5.959   3.764  13.686  0.00  0.00    +0.000 A 
ATOM     15  C   UNL     1       6.971   4.647  13.320  0.00  0.00    +0.000 A 
ATOM     16 CL   UNL     1       7.314   4.922  11.657  0.00  0.00    +0.000 Cl
ATOM     17  C   UNL     1       7.710   5.309  14.293  0.00  0.00    +0.000 A 
ATOM     18  C   UNL     1       7.437   5.070  15.640  0.00  0.00    +0.000 A 
ENDBRANCH   8  12
BRANCH   1  20
ATOM     19  C   UNL     1       0.771   3.460  19.904  0.00  0.00    +0.000 C 
ATOM     20  O   UNL     1       1.717   3.665  20.948  0.00  0.00    +0.000 OA
ENDBRANCH   1  20
TORSDOF 2
ENDMDL
MODEL 2
REMARK VINA RESULT:      -6.5      3.824      7.021
REMARK  Name = 
REMARK  3 active torsions:
REMARK  status: ('A' for Active; 'I' for Inactive)
REMARK    1  A    between atoms: C_1  and  O_2
REMARK    2  A    between atoms: O_2  and  C_3
REMARK    3  A    between atoms: N_10  and  C_11
REMARK                            x       y       z     vdW  Elec       q    Type
REMARK                         _______ _______ _______ _____ _____    ______ ____
ROOT
ATOM      1  C   UNL     1       6.740   4.324  17.373  0.00  0.00    +0.000 C 
ATOM      2  C   UNL     1       7.209   4.917  16.020  0.00  0.00    +0.000 C 
ATOM      3  C   UNL     1       6.044   5.229  15.071  0.00  0.00    +0.000 C 
ATOM      4  C   UNL     1       5.107   6.280  15.676  0.00  0.00    +0.000 C 
ATOM      5  C   UNL     1       4.800   5.955  17.095  0.00  0.00    +0.000 A 
ATOM      6  N   UNL     1       3.732   6.540  17.719  0.00  0.00    +0.000 NA
ATOM      7  C   UNL     1       3.624   6.112  18.959  0.00  0.00    +0.000 A 
ATOM      8  N   UNL     1       2.666   6.520  19.827  0.00  0.00    +0.000 N 
ATOM      9  S   UNL     1       4.805   4.920  19.400  0.00  0.00    +0.000 S 
ATOM     10  C   UNL     1       5.542   5.083  17.865  0.00  0.00    +0.000 A 
ATOM     11  H   UNL     1       2.534   6.012  20.691  0.00  0.00    +0.000 HD
ENDROOT
BRANCH   8  12
ATOM     12  C   UNL     1       1.980   7.748  19.739  0.00  0.00    +0.000 A 
ATOM     13  C   UNL     1       1.348   8.279  20.871  0.00  0.00    +0.000 A 
ATOM     14  C   UNL     1       0.589   9.458  20.782  0.00  0.00    +0.000 A 
ATOM     15  C   UNL     1       0.462  10.112  19.561  0.00  0.00    +0.000 A 
ATOM     16 CL   UNL     1      -0.470  11.554  19.450  0.00  0.00    +0.000 Cl
ATOM     17  C   UNL     1       1.081   9.606  18.425  0.00  0.00    +0.000 A 
ATOM     18  C   UNL     1       1.823   8.427  18.518  0.00  0.00    +0.000 A 
ENDBRANCH   8  12
BRANCH   1  20
ATOM     19  C   UNL     1       7.967   5.771  18.813  0.00  0.00    +0.000 C 
ATOM     20  O   UNL     1       7.772   4.437  18.356  0.00  0.00    +0.000 OA
ENDBRANCH   1  20
TORSDOF 2
ENDMDL
MODEL 3
REMARK VINA RESULT:      -6.4      3.812      6.989
REMARK  Name = 
REMARK  3 active torsions:
REMARK  status: ('A' for Active; 'I' for Inactive)
REMARK    1  A    between atoms: C_1  and  O_2
REMARK    2  A    between atoms: O_2  and  C_3
REMARK    3  A    between atoms: N_10  and  C_11
REMARK                            x       y       z     vdW  Elec       q    Type
REMARK                         _______ _______ _______ _____ _____    ______ ____
ROOT
ATOM      1  C   UNL     1       6.667   4.325  17.393  0.00  0.00    +0.000 C 
ATOM      2  C   UNL     1       7.150   4.909  16.041  0.00  0.00    +0.000 C 
ATOM      3  C   UNL     1       5.995   5.227  15.083  0.00  0.00    +0.000 C 
ATOM      4  C   UNL     1       5.062   6.288  15.678  0.00  0.00    +0.000 C 
ATOM      5  C   UNL     1       4.742   5.971  17.096  0.00  0.00    +0.000 A 
ATOM      6  N   UNL     1       3.676   6.567  17.710  0.00  0.00    +0.000 NA
ATOM      7  C   UNL     1       3.555   6.144  18.951  0.00  0.00    +0.000 A 
ATOM      8  N   UNL     1       2.594   6.564  19.812  0.00  0.00    +0.000 N 
ATOM      9  S   UNL     1       4.723   4.944  19.405  0.00  0.00    +0.000 S 
ATOM     10  C   UNL     1       5.471   5.096  17.874  0.00  0.00    +0.000 A 
ATOM     11  H   UNL     1       2.452   6.059  20.676  0.00  0.00    +0.000 HD
ENDROOT
BRANCH   8  12
ATOM     12  C   UNL     1       1.920   7.798  19.714  0.00  0.00    +0.000 A 
ATOM     13  C   UNL     1       1.938   8.511  18.508  0.00  0.00    +0.000 A 
ATOM     14  C   UNL     1       1.344   9.780  18.416  0.00  0.00    +0.000 A 
ATOM     15  C   UNL     1       0.726  10.341  19.530  0.00  0.00    +0.000 A 
ATOM     16 CL   UNL     1       0.001  11.896  19.420  0.00  0.00    +0.000 Cl
ATOM     17  C   UNL     1       0.694   9.651  20.736  0.00  0.00    +0.000 A 
ATOM     18  C   UNL     1       1.298   8.396  20.823  0.00  0.00    +0.000 A 
ENDBRANCH   8  12
BRANCH   1  20
ATOM     19  C   UNL     1       7.922   5.771  18.807  0.00  0.00    +0.000 C 
ATOM     20  O   UNL     1       7.692   4.432  18.383  0.00  0.00    +0.000 OA
ENDBRANCH   1  20
TORSDOF 2
ENDMDL
MODEL 4
REMARK VINA RESULT:      -6.3      4.923      7.072
REMARK  Name = 
REMARK  3 active torsions:
REMARK  status: ('A' for Active; 'I' for Inactive)
REMARK    1  A    between atoms: C_1  and  O_2
REMARK    2  A    between atoms: O_2  and  C_3
REMARK    3  A    between atoms: N_10  and  C_11
REMARK                            x       y       z     vdW  Elec       q    Type
REMARK                         _______ _______ _______ _____ _____    ______ ____
ROOT
ATOM      1  C   UNL     1       3.801   3.430  19.129  0.00  0.00    +0.000 C 
ATOM      2  C   UNL     1       2.958   2.508  20.046  0.00  0.00    +0.000 C 
ATOM      3  C   UNL     1       2.599   3.166  21.384  0.00  0.00    +0.000 C 
ATOM      4  C   UNL     1       1.745   4.420  21.169  0.00  0.00    +0.000 C 
ATOM      5  C   UNL     1       2.322   5.270  20.092  0.00  0.00    +0.000 A 
ATOM      6  N   UNL     1       1.940   6.577  19.970  0.00  0.00    +0.000 NA
ATOM      7  C   UNL     1       2.572   7.156  18.970  0.00  0.00    +0.000 A 
ATOM      8  N   UNL     1       2.394   8.449  18.600  0.00  0.00    +0.000 N 
ATOM      9  S   UNL     1       3.712   6.127  18.165  0.00  0.00    +0.000 S 
ATOM     10  C   UNL     1       3.239   4.823  19.164  0.00  0.00    +0.000 A 
ATOM     11  H   UNL     1       3.045   8.870  17.952  0.00  0.00    +0.000 HD
ENDROOT
BRANCH   8  12
ATOM     12  C   UNL     1       1.232   9.201  18.863  0.00  0.00    +0.000 A 
ATOM     13  C   UNL     1       0.335   9.489  17.825  0.00  0.00    +0.000 A 
ATOM     14  C   UNL     1      -0.784  10.308  18.050  0.00  0.00    +0.000 A 
ATOM     15  C   UNL     1      -1.012  10.841  19.315  0.00  0.00    +0.000 A 
ATOM     16 CL   UNL     1      -2.380  11.846  19.591  0.00  0.00    +0.000 Cl
ATOM     17  C   UNL     1      -0.138  10.568  20.361  0.00  0.00    +0.000 A 
ATOM     18  C   UNL     1       0.979   9.764  20.126  0.00  0.00    +0.000 A 
ENDBRANCH   8  12
BRANCH   1  20
ATOM     19  C   UNL     1       2.583   2.231  17.473  0.00  0.00    +0.000 C 
ATOM     20  O   UNL     1       3.761   2.969  17.777  0.00  0.00    +0.000 OA
ENDBRANCH   1  20
TORSDOF 2
ENDMDL
MODEL 5
REMARK VINA RESULT:      -6.2      4.826      6.718
REMARK  Name = 
REMARK  3 active torsions:
REMARK  status: ('A' for Active; 'I' for Inactive)
REMARK    1  A    between atoms: C_1  and  O_2
REMARK    2  A    between atoms: O_2  and  C_3
REMARK    3  A    between atoms: N_10  and  C_11
REMARK                            x       y       z     vdW  Elec       q    Type
REMARK                         _______ _______ _______ _____ _____    ______ ____
ROOT
ATOM      1  C   UNL     1      -0.159  11.612  21.152  0.00  0.00    +0.000 C 
ATOM      2  C   UNL     1      -0.487  12.263  19.785  0.00  0.00    +0.000 C 
ATOM      3  C   UNL     1       0.624  12.062  18.747  0.00  0.00    +0.000 C 
ATOM      4  C   UNL     1       0.838  10.574  18.450  0.00  0.00    +0.000 C 
ATOM      5  C   UNL     1       0.895   9.790  19.713  0.00  0.00    +0.000 A 
ATOM      6  N   UNL     1       1.418   8.526  19.715  0.00  0.00    +0.000 NA
ATOM      7  C   UNL     1       1.390   8.011  20.926  0.00  0.00    +0.000 A 
ATOM      8  N   UNL     1       1.834   6.767  21.237  0.00  0.00    +0.000 N 
ATOM      9  S   UNL     1       0.767   9.085  22.136  0.00  0.00    +0.000 S 
ATOM     10  C   UNL     1       0.435  10.250  20.930  0.00  0.00    +0.000 A 
ATOM     11  H   UNL     1       1.954   6.516  22.209  0.00  0.00    +0.000 HD
ENDROOT
BRANCH   8  12
ATOM     12  C   UNL     1       1.924   5.700  20.321  0.00  0.00    +0.000 A 
ATOM     13  C   UNL     1       1.143   4.551  20.508  0.00  0.00    +0.000 A 
ATOM     14  C   UNL     1       1.282   3.444  19.655  0.00  0.00    +0.000 A 
ATOM     15  C   UNL     1       2.199   3.482  18.609  0.00  0.00    +0.000 A 
ATOM     16 CL   UNL     1       2.371   2.126  17.565  0.00  0.00    +0.000 Cl
ATOM     17  C   UNL     1       2.982   4.611  18.403  0.00  0.00    +0.000 A 
ATOM     18  C   UNL     1       2.848   5.703  19.263  0.00  0.00    +0.000 A 
ENDBRANCH   8  12
BRANCH   1  20
ATOM     19  C   UNL     1      -1.391  12.323  23.061  0.00  0.00    +0.000 C 
ATOM     20  O   UNL     1      -1.345  11.456  21.934  0.00  0.00    +0.000 OA
ENDBRANCH   1  20
TORSDOF 2
ENDMDL
MODEL 6
REMARK VINA RESULT:      -6.1      6.407      8.321
REMARK  Name = 
REMARK  3 active torsions:
REMARK  status: ('A' for Active; 'I' for Inactive)
REMARK    1  A    between atoms: C_1  and  O_2
REMARK    2  A    between atoms: O_2  and  C_3
REMARK    3  A    between atoms: N_10  and  C_11
REMARK                            x       y       z     vdW  Elec       q    Type
REMARK                         _______ _______ _______ _____ _____    ______ ____
ROOT
ATOM      1  C   UNL     1      -3.926  11.894  17.871  0.00  0.00    +0.000 C 
ATOM      2  C   UNL     1      -4.639  11.155  16.711  0.00  0.00    +0.000 C 
ATOM      3  C   UNL     1      -3.698  10.831  15.544  0.00  0.00    +0.000 C 
ATOM      4  C   UNL     1      -2.568   9.898  15.990  0.00  0.00    +0.000 C 
ATOM      5  C   UNL     1      -1.975  10.367  17.272  0.00  0.00    +0.000 A 
ATOM      6  N   UNL     1      -0.751   9.906  17.672  0.00  0.00    +0.000 NA
ATOM      7  C   UNL     1      -0.400  10.450  18.819  0.00  0.00    +0.000 A 
ATOM      8  N   UNL     1       0.759  10.180  19.469  0.00  0.00    +0.000 N 
ATOM      9  S   UNL     1      -1.542  11.602  19.433  0.00  0.00    +0.000 S 
ATOM     10  C   UNL     1      -2.590  11.257  18.127  0.00  0.00    +0.000 A 
ATOM     11  H   UNL     1       1.042  10.771  20.239  0.00  0.00    +0.000 HD
ENDROOT
BRANCH   8  12
ATOM     12  C   UNL     1       1.503   8.993  19.314  0.00  0.00    +0.000 A 
ATOM     13  C   UNL     1       2.189   8.748  18.117  0.00  0.00    +0.000 A 
ATOM     14  C   UNL     1       2.864   7.535  17.913  0.00  0.00    +0.000 A 
ATOM     15  C   UNL     1       2.861   6.560  18.906  0.00  0.00    +0.000 A 
ATOM     16 CL   UNL     1       3.686   5.072  18.656  0.00  0.00    +0.000 Cl
ATOM     17  C   UNL     1       2.190   6.781  20.103  0.00  0.00    +0.000 A 
ATOM     18  C   UNL     1       1.509   7.985  20.294  0.00  0.00    +0.000 A 
ENDBRANCH   8  12
BRANCH   1  20
ATOM     19  C   UNL     1      -5.906  11.075  18.910  0.00  0.00    +0.000 C 
ATOM     20  O   UNL     1      -4.696  11.808  19.072  0.00  0.00    +0.000 OA
ENDBRANCH   1  20
TORSDOF 2
ENDMDL
MODEL 7
REMARK VINA RESULT:      -6.1      4.888      7.133
REMARK  Name = 
REMARK  3 active torsions:
REMARK  status: ('A' for Active; 'I' for Inactive)
REMARK    1  A    between atoms: C_1  and  O_2
REMARK    2  A    between atoms: O_2  and  C_3
REMARK    3  A    between atoms: N_10  and  C_11
REMARK                            x       y       z     vdW  Elec       q    Type
REMARK                         _______ _______ _______ _____ _____    ______ ____
ROOT
ATOM      1  C   UNL     1       3.790   3.979  18.992  0.00  0.00    +0.000 C 
ATOM      2  C   UNL     1       2.945   3.132  19.976  0.00  0.00    +0.000 C 
ATOM      3  C   UNL     1       2.579   3.895  21.256  0.00  0.00    +0.000 C 
ATOM      4  C   UNL     1       1.725   5.126  20.938  0.00  0.00    +0.000 C 
ATOM      5  C   UNL     1       2.304   5.888  19.798  0.00  0.00    +0.000 A 
ATOM      6  N   UNL     1       1.921   7.181  19.569  0.00  0.00    +0.000 NA
ATOM      7  C   UNL     1       2.556   7.678  18.529  0.00  0.00    +0.000 A 
ATOM      8  N   UNL     1       2.378   8.937  18.055  0.00  0.00    +0.000 N 
ATOM      9  S   UNL     1       3.701   6.590  17.813  0.00  0.00    +0.000 S 
ATOM     10  C   UNL     1       3.226   5.369  18.912  0.00  0.00    +0.000 A 
ATOM     11  H   UNL     1       3.031   9.305  17.378  0.00  0.00    +0.000 HD
ENDROOT
BRANCH   8  12
ATOM     12  C   UNL     1       1.213   9.706  18.252  0.00  0.00    +0.000 A 
ATOM     13  C   UNL     1       1.208  10.735  19.203  0.00  0.00    +0.000 A 
ATOM     14  C   UNL     1       0.034  11.456  19.474  0.00  0.00    +0.000 A 
ATOM     15  C   UNL     1      -1.141  11.153  18.792  0.00  0.00    +0.000 A 
ATOM     16 CL   UNL     1      -2.581  12.033  19.124  0.00  0.00    +0.000 Cl
ATOM     17  C   UNL     1      -1.160  10.138  17.843  0.00  0.00    +0.000 A 
ATOM     18  C   UNL     1       0.008   9.417  17.589  0.00  0.00    +0.000 A 
ENDBRANCH   8  12
BRANCH   1  20
ATOM     19  C   UNL     1       2.513   2.791  17.372  0.00  0.00    +0.000 C 
ATOM     20  O   UNL     1       3.756   3.411  17.681  0.00  0.00    +0.000 OA
ENDBRANCH   1  20
TORSDOF 2
ENDMDL
MODEL 8
REMARK VINA RESULT:      -6.0      3.172      3.805
REMARK  Name = 
REMARK  3 active torsions:
REMARK  status: ('A' for Active; 'I' for Inactive)
REMARK    1  A    between atoms: C_1  and  O_2
REMARK    2  A    between atoms: O_2  and  C_3
REMARK    3  A    between atoms: N_10  and  C_11
REMARK                            x       y       z     vdW  Elec       q    Type
REMARK                         _______ _______ _______ _____ _____    ______ ____
ROOT
ATOM      1  C   UNL     1       1.545   2.152  19.527  0.00  0.00    +0.000 C 
ATOM      2  C   UNL     1       0.878   2.838  20.746  0.00  0.00    +0.000 C 
ATOM      3  C   UNL     1       1.884   3.223  21.837  0.00  0.00    +0.000 C 
ATOM      4  C   UNL     1       2.908   4.234  21.310  0.00  0.00    +0.000 C 
ATOM      5  C   UNL     1       3.428   3.810  19.982  0.00  0.00    +0.000 A 
ATOM      6  N   UNL     1       4.582   4.355  19.489  0.00  0.00    +0.000 NA
ATOM      7  C   UNL     1       4.877   3.840  18.314  0.00  0.00    +0.000 A 
ATOM      8  N   UNL     1       5.959   4.191  17.576  0.00  0.00    +0.000 N 
ATOM      9  S   UNL     1       3.772   2.613  17.783  0.00  0.00    +0.000 S 
ATOM     10  C   UNL     1       2.809   2.881  19.171  0.00  0.00    +0.000 A 
ATOM     11  H   UNL     1       6.219   3.623  16.782  0.00  0.00    +0.000 HD
ENDROOT
BRANCH   8  12
ATOM     12  C   UNL     1       6.630   5.426  17.681  0.00  0.00    +0.000 A 
ATOM     13  C   UNL     1       7.657   5.587  18.620  0.00  0.00    +0.000 A 
ATOM     14  C   UNL     1       8.278   6.834  18.798  0.00  0.00    +0.000 A 
ATOM     15  C   UNL     1       7.877   7.926  18.034  0.00  0.00    +0.000 A 
ATOM     16 CL   UNL     1       8.635   9.454  18.252  0.00  0.00    +0.000 Cl
ATOM     17  C   UNL     1       6.862   7.790  17.094  0.00  0.00    +0.000 A 
ATOM     18  C   UNL     1       6.240   6.551  16.933  0.00  0.00    +0.000 A 
ENDBRANCH   8  12
BRANCH   1  20
ATOM     19  C   UNL     1       0.524   3.494  17.845  0.00  0.00    +0.000 C 
ATOM     20  O   UNL     1       0.677   2.188  18.392  0.00  0.00    +0.000 OA
ENDBRANCH   1  20
TORSDOF 2
ENDMDL
MODEL 9
REMARK VINA RESULT:      -6.0      0.564      1.238
REMARK  Name = 
REMARK  3 active torsions:
REMARK  status: ('A' for Active; 'I' for Inactive)
REMARK    1  A    between atoms: C_1  and  O_2
REMARK    2  A    between atoms: O_2  and  C_3
REMARK    3  A    between atoms: N_10  and  C_11
REMARK                            x       y       z     vdW  Elec       q    Type
REMARK                         _______ _______ _______ _____ _____    ______ ____
ROOT
ATOM      1  C   UNL     1       2.062   5.045  20.726  0.00  0.00    +0.000 C 
ATOM      2  C   UNL     1       1.198   6.285  20.383  0.00  0.00    +0.000 C 
ATOM      3  C   UNL     1       2.038   7.494  19.953  0.00  0.00    +0.000 C 
ATOM      4  C   UNL     1       2.835   7.186  18.681  0.00  0.00    +0.000 C 
ATOM      5  C   UNL     1       3.502   5.861  18.787  0.00  0.00    +0.000 A 
ATOM      6  N   UNL     1       4.528   5.537  17.942  0.00  0.00    +0.000 NA
ATOM      7  C   UNL     1       4.989   4.333  18.207  0.00  0.00    +0.000 A 
ATOM      8  N   UNL     1       6.001   3.736  17.530  0.00  0.00    +0.000 N 
ATOM      9  S   UNL     1       4.213   3.560  19.553  0.00  0.00    +0.000 S 
ATOM     10  C   UNL     1       3.147   4.889  19.700  0.00  0.00    +0.000 A 
ATOM     11  H   UNL     1       6.420   2.898  17.908  0.00  0.00    +0.000 HD
ENDROOT
BRANCH   8  12
ATOM     12  C   UNL     1       6.372   4.054  16.208  0.00  0.00    +0.000 A 
ATOM     13  C   UNL     1       7.392   4.986  15.973  0.00  0.00    +0.000 A 
ATOM     14  C   UNL     1       7.717   5.378  14.665  0.00  0.00    +0.000 A 
ATOM     15  C   UNL     1       7.027   4.837  13.584  0.00  0.00    +0.000 A 
ATOM     16 CL   UNL     1       7.424   5.318  11.981  0.00  0.00    +0.000 Cl
ATOM     17  C   UNL     1       6.014   3.909  13.792  0.00  0.00    +0.000 A 
ATOM     18  C   UNL     1       5.687   3.534  15.096  0.00  0.00    +0.000 A 
ENDBRANCH   8  12
BRANCH   1  20
ATOM     19  C   UNL     1       1.603   2.946  21.754  0.00  0.00    +0.000 C 
ATOM     20  O   UNL     1       1.266   3.858  20.714  0.00  0.00    +0.000 OA
ENDBRANCH   1  20
TORSDOF 2
ENDMDL
