MODEL 1
REMARK VINA RESULT:      -6.9      0.000      0.000
REMARK  Name = 
REMARK  5 active torsions:
REMARK  status: ('A' for Active; 'I' for Inactive)
REMARK    1  A    between atoms: C_1  and  C_2
REMARK    2  A    between atoms: C_12  and  C_13
REMARK    3  A    between atoms: C_13  and  N_14
REMARK    4  A    between atoms: N_14  and  C_15
REMARK    5  A    between atoms: N_14  and  C_16
REMARK                            x       y       z     vdW  Elec       q    Type
REMARK                         _______ _______ _______ _____ _____    ______ ____
ROOT
ATOM      1  C   UNL     1       8.801   8.641  18.260  0.00  0.00    +0.000 C 
ATOM      2  C   UNL     1       7.757   7.573  18.156  0.00  0.00    +0.000 A 
ATOM      3  C   UNL     1       6.665   7.717  17.325  0.00  0.00    +0.000 A 
ATOM      4  C   UNL     1       5.708   6.697  17.275  0.00  0.00    +0.000 A 
ATOM      5  C   UNL     1       5.814   5.570  18.084  0.00  0.00    +0.000 A 
ATOM      6  N   UNL     1       4.836   4.602  18.146  0.00  0.00    +0.000 N 
ATOM      7  C   UNL     1       4.799   3.674  19.274  0.00  0.00    +0.000 C 
ATOM      8  C   UNL     1       3.526   2.853  19.002  0.00  0.00    +0.000 C 
ATOM      9  C   UNL     1       2.931   2.089  20.177  0.00  0.00    +0.000 C 
ATOM     10  C   UNL     1       2.154   2.961  21.149  0.00  0.00    +0.000 C 
ATOM     11  C   UNL     1       1.095   3.784  20.420  0.00  0.00    +0.000 C 
ATOM     12  C   UNL     1       1.691   4.707  19.329  0.00  0.00    +0.000 C 
ATOM     13  C   UNL     1       2.582   3.870  18.352  0.00  0.00    +0.000 C 
ATOM     14  C   UNL     1       3.558   4.626  17.433  0.00  0.00    +0.000 C 
ATOM     15  N   UNL     1       6.924   5.461  18.847  0.00  0.00    +0.000 NA
ATOM     16  N   UNL     1       7.909   6.451  18.879  0.00  0.00    +0.000 NA
ENDROOT
BRANCH  12  17
ATOM     17  C   UNL     1       2.278   5.965  20.033  0.00  0.00    +0.000 C 
BRANCH  17  18
ATOM     18  N   UNL     1       1.701   7.254  19.672  0.00  0.00    +0.000 NA
ATOM     19  C   UNL     1       1.471   8.177  20.769  0.00  0.00    +0.000 C 
ATOM     20  C   UNL     1       2.386   7.869  18.536  0.00  0.00    +0.000 C 
ENDBRANCH  17  18
ENDBRANCH  12  17
TORSDOF 2
ENDMDL
MODEL 2
REMARK VINA RESULT:      -6.2      0.898      1.318
REMARK  Name = 
REMARK  5 active torsions:
REMARK  status: ('A' for Active; 'I' for Inactive)
REMARK    1  A    between atoms: C_1  and  C_2
REMARK    2  A    between atoms: C_12  and  C_13
REMARK    3  A    between atoms: C_13  and  N_14
REMARK    4  A    between atoms: N_14  and  C_15
REMARK    5  A    between atoms: N_14  and  C_16
REMARK                            x       y       z     vdW  Elec       q    Type
REMARK                         _______ _______ _______ _____ _____    ______ ____
ROOT
ATOM      1  C   UNL     1       9.266   9.532  18.741  0.00  0.00    +0.000 C 
ATOM      2  C   UNL     1       8.299   8.444  18.392  0.00  0.00    +0.000 A 
ATOM      3  C   UNL     1       7.257   8.665  17.515  0.00  0.00    +0.000 A 
ATOM      4  C   UNL     1       6.370   7.620  17.233  0.00  0.00    +0.000 A 
ATOM      5  C   UNL     1       6.491   6.384  17.861  0.00  0.00    +0.000 A 
ATOM      6  N   UNL     1       5.573   5.371  17.695  0.00  0.00    +0.000 N 
ATOM      7  C   UNL     1       5.519   4.272  18.657  0.00  0.00    +0.000 C 
ATOM      8  C   UNL     1       4.319   3.443  18.165  0.00  0.00    +0.000 C 
ATOM      9  C   UNL     1       3.696   2.470  19.157  0.00  0.00    +0.000 C 
ATOM     10  C   UNL     1       2.805   3.134  20.193  0.00  0.00    +0.000 C 
ATOM     11  C   UNL     1       1.747   4.010  19.527  0.00  0.00    +0.000 C 
ATOM     12  C   UNL     1       2.356   5.125  18.643  0.00  0.00    +0.000 C 
ATOM     13  C   UNL     1       3.359   4.503  17.615  0.00  0.00    +0.000 C 
ATOM     14  C   UNL     1       4.345   5.446  16.902  0.00  0.00    +0.000 C 
ATOM     15  N   UNL     1       7.554   6.209  18.677  0.00  0.00    +0.000 NA
ATOM     16  N   UNL     1       8.471   7.228  18.939  0.00  0.00    +0.000 NA
ENDROOT
BRANCH  12  17
ATOM     17  C   UNL     1       2.818   6.280  19.578  0.00  0.00    +0.000 C 
BRANCH  17  18
ATOM     18  N   UNL     1       2.360   7.624  19.244  0.00  0.00    +0.000 NA
ATOM     19  C   UNL     1       1.877   7.812  17.887  0.00  0.00    +0.000 C 
ATOM     20  C   UNL     1       1.458   8.169  20.256  0.00  0.00    +0.000 C 
ENDBRANCH  17  18
ENDBRANCH  12  17
TORSDOF 2
ENDMDL
MODEL 3
REMARK VINA RESULT:      -5.8      2.289      2.353
REMARK  Name = 
REMARK  5 active torsions:
REMARK  status: ('A' for Active; 'I' for Inactive)
REMARK    1  A    between atoms: C_1  and  C_2
REMARK    2  A    between atoms: C_12  and  C_13
REMARK    3  A    between atoms: C_13  and  N_14
REMARK    4  A    between atoms: N_14  and  C_15
REMARK    5  A    between atoms: N_14  and  C_16
REMARK                            x       y       z     vdW  Elec       q    Type
REMARK                         _______ _______ _______ _____ _____    ______ ____
ROOT
ATOM      1  C   UNL     1       8.094   5.610  14.153  0.00  0.00    +0.000 C 
ATOM      2  C   UNL     1       7.007   4.971  14.959  0.00  0.00    +0.000 A 
ATOM      3  C   UNL     1       5.701   4.957  14.516  0.00  0.00    +0.000 A 
ATOM      4  C   UNL     1       4.717   4.360  15.314  0.00  0.00    +0.000 A 
ATOM      5  C   UNL     1       5.027   3.830  16.563  0.00  0.00    +0.000 A 
ATOM      6  N   UNL     1       4.070   3.338  17.422  0.00  0.00    +0.000 N 
ATOM      7  C   UNL     1       4.380   3.172  18.840  0.00  0.00    +0.000 C 
ATOM      8  C   UNL     1       3.038   2.709  19.434  0.00  0.00    +0.000 C 
ATOM      9  C   UNL     1       2.861   2.851  20.940  0.00  0.00    +0.000 C 
ATOM     10  C   UNL     1       2.565   4.271  21.393  0.00  0.00    +0.000 C 
ATOM     11  C   UNL     1       1.378   4.854  20.630  0.00  0.00    +0.000 C 
ATOM     12  C   UNL     1       1.599   4.884  19.098  0.00  0.00    +0.000 C 
ATOM     13  C   UNL     1       2.001   3.460  18.590  0.00  0.00    +0.000 C 
ATOM     14  C   UNL     1       2.625   3.338  17.189  0.00  0.00    +0.000 C 
ATOM     15  N   UNL     1       6.329   3.832  16.927  0.00  0.00    +0.000 NA
ATOM     16  N   UNL     1       7.328   4.387  16.126  0.00  0.00    +0.000 NA
ENDROOT
BRANCH  12  17
ATOM     17  C   UNL     1       2.498   6.110  18.767  0.00  0.00    +0.000 C 
BRANCH  17  18
ATOM     18  N   UNL     1       1.880   7.427  18.858  0.00  0.00    +0.000 NA
ATOM     19  C   UNL     1       1.845   8.023  20.182  0.00  0.00    +0.000 C 
ATOM     20  C   UNL     1       2.370   8.342  17.829  0.00  0.00    +0.000 C 
ENDBRANCH  17  18
ENDBRANCH  12  17
TORSDOF 2
ENDMDL
MODEL 4
REMARK VINA RESULT:      -5.7      2.205      2.659
REMARK  Name = 
REMARK  5 active torsions:
REMARK  status: ('A' for Active; 'I' for Inactive)
REMARK    1  A    between atoms: C_1  and  C_2
REMARK    2  A    between atoms: C_12  and  C_13
REMARK    3  A    between atoms: C_13  and  N_14
REMARK    4  A    between atoms: N_14  and  C_15
REMARK    5  A    between atoms: N_14  and  C_16
REMARK                            x       y       z     vdW  Elec       q    Type
REMARK                         _______ _______ _______ _____ _____    ______ ____
ROOT
ATOM      1  C   UNL     1       7.841   5.577  13.946  0.00  0.00    +0.000 C 
ATOM      2  C   UNL     1       6.904   4.847  14.855  0.00  0.00    +0.000 A 
ATOM      3  C   UNL     1       5.689   4.374  14.403  0.00  0.00    +0.000 A 
ATOM      4  C   UNL     1       4.840   3.711  15.296  0.00  0.00    +0.000 A 
ATOM      5  C   UNL     1       5.177   3.567  16.638  0.00  0.00    +0.000 A 
ATOM      6  N   UNL     1       4.320   3.023  17.569  0.00  0.00    +0.000 N 
ATOM      7  C   UNL     1       4.547   3.257  18.993  0.00  0.00    +0.000 C 
ATOM      8  C   UNL     1       3.334   2.575  19.651  0.00  0.00    +0.000 C 
ATOM      9  C   UNL     1       3.003   2.980  21.081  0.00  0.00    +0.000 C 
ATOM     10  C   UNL     1       2.301   4.323  21.193  0.00  0.00    +0.000 C 
ATOM     11  C   UNL     1       1.068   4.375  20.295  0.00  0.00    +0.000 C 
ATOM     12  C   UNL     1       1.397   4.137  18.801  0.00  0.00    +0.000 C 
ATOM     13  C   UNL     1       2.206   2.808  18.639  0.00  0.00    +0.000 C 
ATOM     14  C   UNL     1       2.952   2.570  17.314  0.00  0.00    +0.000 C 
ATOM     15  N   UNL     1       6.397   4.011  17.018  0.00  0.00    +0.000 NA
ATOM     16  N   UNL     1       7.273   4.639  16.131  0.00  0.00    +0.000 NA
ENDROOT
BRANCH  12  17
ATOM     17  C   UNL     1       1.959   5.466  18.217  0.00  0.00    +0.000 C 
BRANCH  17  18
ATOM     18  N   UNL     1       2.763   6.292  19.109  0.00  0.00    +0.000 NA
ATOM     19  C   UNL     1       4.166   6.426  18.759  0.00  0.00    +0.000 C 
ATOM     20  C   UNL     1       2.120   7.571  19.408  0.00  0.00    +0.000 C 
ENDBRANCH  17  18
ENDBRANCH  12  17
TORSDOF 2
ENDMDL
MODEL 5
REMARK VINA RESULT:      -5.7      2.462      4.757
REMARK  Name = 
REMARK  5 active torsions:
REMARK  status: ('A' for Active; 'I' for Inactive)
REMARK    1  A    between atoms: C_1  and  C_2
REMARK    2  A    between atoms: C_12  and  C_13
REMARK    3  A    between atoms: C_13  and  N_14
REMARK    4  A    between atoms: N_14  and  C_15
REMARK    5  A    between atoms: N_14  and  C_16
REMARK                            x       y       z     vdW  Elec       q    Type
REMARK                         _______ _______ _______ _____ _____    ______ ____
ROOT
ATOM      1  C   UNL     1      -0.672  10.406  19.824  0.00  0.00    +0.000 C 
ATOM      2  C   UNL     1       0.451   9.495  19.439  0.00  0.00    +0.000 A 
ATOM      3  C   UNL     1       0.742   9.237  18.115  0.00  0.00    +0.000 A 
ATOM      4  C   UNL     1       1.793   8.365  17.806  0.00  0.00    +0.000 A 
ATOM      5  C   UNL     1       2.510   7.717  18.808  0.00  0.00    +0.000 A 
ATOM      6  N   UNL     1       3.472   6.769  18.541  0.00  0.00    +0.000 N 
ATOM      7  C   UNL     1       3.898   5.848  19.594  0.00  0.00    +0.000 C 
ATOM      8  C   UNL     1       4.880   4.919  18.859  0.00  0.00    +0.000 C 
ATOM      9  C   UNL     1       5.194   3.582  19.518  0.00  0.00    +0.000 C 
ATOM     10  C   UNL     1       4.097   2.543  19.353  0.00  0.00    +0.000 C 
ATOM     11  C   UNL     1       3.721   2.370  17.884  0.00  0.00    +0.000 C 
ATOM     12  C   UNL     1       3.231   3.683  17.227  0.00  0.00    +0.000 C 
ATOM     13  C   UNL     1       4.285   4.817  17.450  0.00  0.00    +0.000 C 
ATOM     14  C   UNL     1       3.846   6.273  17.216  0.00  0.00    +0.000 C 
ATOM     15  N   UNL     1       2.211   8.039  20.086  0.00  0.00    +0.000 NA
ATOM     16  N   UNL     1       1.192   8.937  20.412  0.00  0.00    +0.000 NA
ENDROOT
BRANCH  12  17
ATOM     17  C   UNL     1       1.749   3.906  17.647  0.00  0.00    +0.000 C 
BRANCH  17  18
ATOM     18  N   UNL     1       1.334   3.345  18.927  0.00  0.00    +0.000 NA
ATOM     19  C   UNL     1       0.896   4.302  19.929  0.00  0.00    +0.000 C 
ATOM     20  C   UNL     1       0.414   2.220  18.767  0.00  0.00    +0.000 C 
ENDBRANCH  17  18
ENDBRANCH  12  17
TORSDOF 2
ENDMDL
MODEL 6
REMARK VINA RESULT:      -5.6      1.303      1.573
REMARK  Name = 
REMARK  5 active torsions:
REMARK  status: ('A' for Active; 'I' for Inactive)
REMARK    1  A    between atoms: C_1  and  C_2
REMARK    2  A    between atoms: C_12  and  C_13
REMARK    3  A    between atoms: C_13  and  N_14
REMARK    4  A    between atoms: N_14  and  C_15
REMARK    5  A    between atoms: N_14  and  C_16
REMARK                            x       y       z     vdW  Elec       q    Type
REMARK                         _______ _______ _______ _____ _____    ______ ____
ROOT
ATOM      1  C   UNL     1       8.621   8.350  18.503  0.00  0.00    +0.000 C 
ATOM      2  C   UNL     1       7.714   7.208  18.164  0.00  0.00    +0.000 A 
ATOM      3  C   UNL     1       6.922   7.233  17.035  0.00  0.00    +0.000 A 
ATOM      4  C   UNL     1       6.079   6.147  16.770  0.00  0.00    +0.000 A 
ATOM      5  C   UNL     1       5.990   5.073  17.650  0.00  0.00    +0.000 A 
ATOM      6  N   UNL     1       5.091   4.043  17.481  0.00  0.00    +0.000 N 
ATOM      7  C   UNL     1       4.760   3.173  18.607  0.00  0.00    +0.000 C 
ATOM      8  C   UNL     1       3.674   2.253  18.023  0.00  0.00    +0.000 C 
ATOM      9  C   UNL     1       2.789   1.509  19.014  0.00  0.00    +0.000 C 
ATOM     10  C   UNL     1       1.709   2.373  19.643  0.00  0.00    +0.000 C 
ATOM     11  C   UNL     1       0.882   3.083  18.574  0.00  0.00    +0.000 C 
ATOM     12  C   UNL     1       1.734   3.988  17.653  0.00  0.00    +0.000 C 
ATOM     13  C   UNL     1       2.922   3.168  17.049  0.00  0.00    +0.000 C 
ATOM     14  C   UNL     1       4.092   3.942  16.417  0.00  0.00    +0.000 C 
ATOM     15  N   UNL     1       6.820   5.080  18.717  0.00  0.00    +0.000 NA
ATOM     16  N   UNL     1       7.695   6.137  18.976  0.00  0.00    +0.000 NA
ENDROOT
BRANCH  12  17
ATOM     17  C   UNL     1       2.014   5.318  18.411  0.00  0.00    +0.000 C 
BRANCH  17  18
ATOM     18  N   UNL     1       2.182   5.231  19.857  0.00  0.00    +0.000 NA
ATOM     19  C   UNL     1       3.539   5.391  20.350  0.00  0.00    +0.000 C 
ATOM     20  C   UNL     1       1.208   6.048  20.578  0.00  0.00    +0.000 C 
ENDBRANCH  17  18
ENDBRANCH  12  17
TORSDOF 2
ENDMDL
MODEL 7
REMARK VINA RESULT:      -5.6      9.631     12.031
REMARK  Name = 
REMARK  5 active torsions:
REMARK  status: ('A' for Active; 'I' for Inactive)
REMARK    1  A    between atoms: C_1  and  C_2
REMARK    2  A    between atoms: C_12  and  C_13
REMARK    3  A    between atoms: C_13  and  N_14
REMARK    4  A    between atoms: N_14  and  C_15
REMARK    5  A    between atoms: N_14  and  C_16
REMARK                            x       y       z     vdW  Elec       q    Type
REMARK                         _______ _______ _______ _____ _____    ______ ____
ROOT
ATOM      1  C   UNL     1       3.029  16.824  17.741  0.00  0.00    +0.000 C 
ATOM      2  C   UNL     1       4.333  16.198  18.128  0.00  0.00    +0.000 A 
ATOM      3  C   UNL     1       5.183  16.810  19.025  0.00  0.00    +0.000 A 
ATOM      4  C   UNL     1       6.398  16.192  19.343  0.00  0.00    +0.000 A 
ATOM      5  C   UNL     1       6.783  15.003  18.732  0.00  0.00    +0.000 A 
ATOM      6  N   UNL     1       8.017  14.425  18.933  0.00  0.00    +0.000 N 
ATOM      7  C   UNL     1       8.518  13.428  17.990  0.00  0.00    +0.000 C 
ATOM      8  C   UNL     1       9.931  13.132  18.521  0.00  0.00    +0.000 C 
ATOM      9  C   UNL     1      10.909  12.471  17.559  0.00  0.00    +0.000 C 
ATOM     10  C   UNL     1      11.500  13.423  16.533  0.00  0.00    +0.000 C 
ATOM     11  C   UNL     1      12.118  14.644  17.210  0.00  0.00    +0.000 C 
ATOM     12  C   UNL     1      11.101  15.441  18.063  0.00  0.00    +0.000 C 
ATOM     13  C   UNL     1      10.391  14.485  19.077  0.00  0.00    +0.000 C 
ATOM     14  C   UNL     1       9.098  14.975  19.753  0.00  0.00    +0.000 C 
ATOM     15  N   UNL     1       5.893  14.425  17.894  0.00  0.00    +0.000 NA
ATOM     16  N   UNL     1       4.660  15.008  17.596  0.00  0.00    +0.000 NA
ENDROOT
BRANCH  12  17
ATOM     17  C   UNL     1      10.254  16.322  17.100  0.00  0.00    +0.000 C 
BRANCH  17  18
ATOM     18  N   UNL     1      10.304  17.764  17.307  0.00  0.00    +0.000 NA
ATOM     19  C   UNL     1       9.257  18.323  18.145  0.00  0.00    +0.000 C 
ATOM     20  C   UNL     1      11.641  18.225  17.674  0.00  0.00    +0.000 C 
ENDBRANCH  17  18
ENDBRANCH  12  17
TORSDOF 2
ENDMDL
MODEL 8
REMARK VINA RESULT:      -5.5      8.823     10.456
REMARK  Name = 
REMARK  5 active torsions:
REMARK  status: ('A' for Active; 'I' for Inactive)
REMARK    1  A    between atoms: C_1  and  C_2
REMARK    2  A    between atoms: C_12  and  C_13
REMARK    3  A    between atoms: C_13  and  N_14
REMARK    4  A    between atoms: N_14  and  C_15
REMARK    5  A    between atoms: N_14  and  C_16
REMARK                            x       y       z     vdW  Elec       q    Type
REMARK                         _______ _______ _______ _____ _____    ______ ____
ROOT
ATOM      1  C   UNL     1       5.541  12.333  25.638  0.00  0.00    +0.000 C 
ATOM      2  C   UNL     1       6.691  12.503  24.695  0.00  0.00    +0.000 A 
ATOM      3  C   UNL     1       7.169  13.754  24.366  0.00  0.00    +0.000 A 
ATOM      4  C   UNL     1       8.237  13.862  23.468  0.00  0.00    +0.000 A 
ATOM      5  C   UNL     1       8.786  12.735  22.865  0.00  0.00    +0.000 A 
ATOM      6  N   UNL     1       9.759  12.808  21.893  0.00  0.00    +0.000 N 
ATOM      7  C   UNL     1      10.009  11.661  21.024  0.00  0.00    +0.000 C 
ATOM      8  C   UNL     1      11.072  12.195  20.047  0.00  0.00    +0.000 C 
ATOM      9  C   UNL     1      11.260  11.431  18.742  0.00  0.00    +0.000 C 
ATOM     10  C   UNL     1      10.180  11.705  17.709  0.00  0.00    +0.000 C 
ATOM     11  C   UNL     1      10.021  13.203  17.464  0.00  0.00    +0.000 C 
ATOM     12  C   UNL     1       9.657  13.990  18.747  0.00  0.00    +0.000 C 
ATOM     13  C   UNL     1      10.688  13.669  19.879  0.00  0.00    +0.000 C 
ATOM     14  C   UNL     1      10.315  14.038  21.326  0.00  0.00    +0.000 C 
ATOM     15  N   UNL     1       8.309  11.532  23.256  0.00  0.00    +0.000 NA
ATOM     16  N   UNL     1       7.271  11.405  24.181  0.00  0.00    +0.000 NA
ENDROOT
BRANCH  12  17
ATOM     17  C   UNL     1       8.134  13.804  19.007  0.00  0.00    +0.000 C 
BRANCH  17  18
ATOM     18  N   UNL     1       7.339  15.015  19.170  0.00  0.00    +0.000 NA
ATOM     19  C   UNL     1       6.608  15.133  20.420  0.00  0.00    +0.000 C 
ATOM     20  C   UNL     1       8.090  16.221  18.828  0.00  0.00    +0.000 C 
ENDBRANCH  17  18
ENDBRANCH  12  17
TORSDOF 2
ENDMDL
MODEL 9
REMARK VINA RESULT:      -5.4      1.109      1.243
REMARK  Name = 
REMARK  5 active torsions:
REMARK  status: ('A' for Active; 'I' for Inactive)
REMARK    1  A    between atoms: C_1  and  C_2
REMARK    2  A    between atoms: C_12  and  C_13
REMARK    3  A    between atoms: C_13  and  N_14
REMARK    4  A    between atoms: N_14  and  C_15
REMARK    5  A    between atoms: N_14  and  C_16
REMARK                            x       y       z     vdW  Elec       q    Type
REMARK                         _______ _______ _______ _____ _____    ______ ____
ROOT
ATOM      1  C   UNL     1       8.616   8.156  18.525  0.00  0.00    +0.000 C 
ATOM      2  C   UNL     1       7.639   7.064  18.223  0.00  0.00    +0.000 A 
ATOM      3  C   UNL     1       6.707   7.195  17.213  0.00  0.00    +0.000 A 
ATOM      4  C   UNL     1       5.804   6.151  16.980  0.00  0.00    +0.000 A 
ATOM      5  C   UNL     1       5.798   5.012  17.779  0.00  0.00    +0.000 A 
ATOM      6  N   UNL     1       4.853   4.018  17.653  0.00  0.00    +0.000 N 
ATOM      7  C   UNL     1       4.645   3.068  18.744  0.00  0.00    +0.000 C 
ATOM      8  C   UNL     1       3.464   2.219  18.239  0.00  0.00    +0.000 C 
ATOM      9  C   UNL     1       2.693   1.417  19.279  0.00  0.00    +0.000 C 
ATOM     10  C   UNL     1       1.732   2.251  20.109  0.00  0.00    +0.000 C 
ATOM     11  C   UNL     1       0.794   3.059  19.216  0.00  0.00    +0.000 C 
ATOM     12  C   UNL     1       1.547   4.018  18.262  0.00  0.00    +0.000 C 
ATOM     13  C   UNL     1       2.620   3.224  17.446  0.00  0.00    +0.000 C 
ATOM     14  C   UNL     1       3.721   4.022  16.725  0.00  0.00    +0.000 C 
ATOM     15  N   UNL     1       6.759   4.918  18.725  0.00  0.00    +0.000 NA
ATOM     16  N   UNL     1       7.693   5.932  18.945  0.00  0.00    +0.000 NA
ENDROOT
BRANCH  12  17
ATOM     17  C   UNL     1       1.964   5.277  19.076  0.00  0.00    +0.000 C 
BRANCH  17  18
ATOM     18  N   UNL     1       2.416   6.435  18.316  0.00  0.00    +0.000 NA
ATOM     19  C   UNL     1       1.399   7.125  17.542  0.00  0.00    +0.000 C 
ATOM     20  C   UNL     1       3.239   7.338  19.118  0.00  0.00    +0.000 C 
ENDBRANCH  17  18
ENDBRANCH  12  17
TORSDOF 2
ENDMDL
