MODEL 1
REMARK VINA RESULT:      -7.8      0.000      0.000
REMARK  Name = 
REMARK  7 active torsions:
REMARK  status: ('A' for Active; 'I' for Inactive)
REMARK    1  A    between atoms: S_2  and  N_4
REMARK    2  A    between atoms: S_2  and  C_21
REMARK    3  A    between atoms: N_4  and  C_5
REMARK    4  A    between atoms: N_8  and  C_9
REMARK    5  A    between atoms: C_9  and  C_10
REMARK    6  A    between atoms: C_10  and  O_11
REMARK    7  A    between atoms: O_11  and  C_12
REMARK                            x       y       z     vdW  Elec       q    Type
REMARK                         _______ _______ _______ _____ _____    ______ ____
ROOT
ATOM      1  C   UNL     1       5.156   4.627  16.268  0.00  0.00    +0.000 C 
ATOM      2  C   UNL     1       6.626   4.281  16.142  0.00  0.00    +0.000 C 
ATOM      3  C   UNL     1       7.476   5.070  17.130  0.00  0.00    +0.000 C 
ATOM      4  N   UNL     1       7.295   6.525  17.046  0.00  0.00    +0.000 NA
ATOM      5  C   UNL     1       5.887   6.951  17.034  0.00  0.00    +0.000 C 
ATOM      6  C   UNL     1       4.983   6.139  16.105  0.00  0.00    +0.000 C 
ENDROOT
BRANCH   1   7
ATOM      7  N   UNL     1       4.580   4.183  17.555  0.00  0.00    +0.000 NA
ATOM      8  H   UNL     1       5.233   4.041  18.323  0.00  0.00    +0.000 HD
BRANCH   7  10
ATOM      9  O   UNL     1       2.316   3.568  16.620  0.00  0.00    +0.000 OA
ATOM     10  S   UNL     1       3.298   3.079  17.564  0.00  0.00    +0.000 S 
ATOM     11  O   UNL     1       3.838   1.737  17.493  0.00  0.00    +0.000 OA
BRANCH  10  12
ATOM     12  C   UNL     1       2.550   3.292  19.177  0.00  0.00    +0.000 A 
ATOM     13  C   UNL     1       1.879   2.216  19.769  0.00  0.00    +0.000 A 
ATOM     14  C   UNL     1       1.394   2.337  21.073  0.00  0.00    +0.000 A 
ATOM     15  C   UNL     1       1.594   3.520  21.784  0.00  0.00    +0.000 A 
ATOM     16  C   UNL     1       2.262   4.592  21.194  0.00  0.00    +0.000 A 
ATOM     17  C   UNL     1       2.745   4.482  19.887  0.00  0.00    +0.000 A 
ENDBRANCH  10  12
ENDBRANCH   7  10
ENDBRANCH   1   7
BRANCH   4  18
ATOM     18  C   UNL     1       8.004   7.216  18.157  0.00  0.00    +0.000 C 
BRANCH  18  19
ATOM     19  C   UNL     1       8.178   8.724  17.935  0.00  0.00    +0.000 C 
BRANCH  19  20
ATOM     20  O   UNL     1       9.036   9.288  18.932  0.00  0.00    +0.000 OA
BRANCH  20  21
ATOM     21  C   UNL     1       9.355  10.609  18.737  0.00  0.00    +0.000 A 
ATOM     22  C   UNL     1      10.428  11.282  19.335  0.00  0.00    +0.000 A 
ATOM     23  C   UNL     1      10.667  12.629  19.055  0.00  0.00    +0.000 A 
ATOM     24  C   UNL     1       9.837  13.307  18.172  0.00  0.00    +0.000 A 
ATOM     25 CL   UNL     1      10.143  14.963  17.821  0.00  0.00    +0.000 Cl
ATOM     26  C   UNL     1       8.765  12.652  17.570  0.00  0.00    +0.000 A 
ATOM     27  C   UNL     1       8.525  11.304  17.855  0.00  0.00    +0.000 A 
ENDBRANCH  20  21
ENDBRANCH  19  20
ENDBRANCH  18  19
ENDBRANCH   4  18
TORSDOF 7
ENDMDL
MODEL 2
REMARK VINA RESULT:      -7.8      3.807      6.918
REMARK  Name = 
REMARK  7 active torsions:
REMARK  status: ('A' for Active; 'I' for Inactive)
REMARK    1  A    between atoms: S_2  and  N_4
REMARK    2  A    between atoms: S_2  and  C_21
REMARK    3  A    between atoms: N_4  and  C_5
REMARK    4  A    between atoms: N_8  and  C_9
REMARK    5  A    between atoms: C_9  and  C_10
REMARK    6  A    between atoms: C_10  and  O_11
REMARK    7  A    between atoms: O_11  and  C_12
REMARK                            x       y       z     vdW  Elec       q    Type
REMARK                         _______ _______ _______ _____ _____    ______ ____
ROOT
ATOM      1  C   UNL     1       3.937   3.115  17.489  0.00  0.00    +0.000 C 
ATOM      2  C   UNL     1       2.478   2.739  17.327  0.00  0.00    +0.000 C 
ATOM      3  C   UNL     1       1.582   3.557  18.247  0.00  0.00    +0.000 C 
ATOM      4  N   UNL     1       1.961   3.494  19.665  0.00  0.00    +0.000 NA
ATOM      5  C   UNL     1       3.393   3.723  19.909  0.00  0.00    +0.000 C 
ATOM      6  C   UNL     1       4.330   2.972  18.962  0.00  0.00    +0.000 C 
ENDROOT
BRANCH   1   7
ATOM      7  N   UNL     1       4.222   4.486  17.015  0.00  0.00    +0.000 NA
ATOM      8  H   UNL     1       3.419   5.062  16.772  0.00  0.00    +0.000 HD
BRANCH   7  10
ATOM      9  O   UNL     1       6.187   3.485  15.784  0.00  0.00    +0.000 OA
ATOM     10  S   UNL     1       5.563   4.769  16.024  0.00  0.00    +0.000 S 
ATOM     11  O   UNL     1       5.167   5.650  14.944  0.00  0.00    +0.000 OA
BRANCH  10  12
ATOM     12  C   UNL     1       6.704   5.660  17.077  0.00  0.00    +0.000 A 
ATOM     13  C   UNL     1       6.953   7.015  16.829  0.00  0.00    +0.000 A 
ATOM     14  C   UNL     1       7.750   7.745  17.712  0.00  0.00    +0.000 A 
ATOM     15  C   UNL     1       8.281   7.128  18.845  0.00  0.00    +0.000 A 
ATOM     16  C   UNL     1       8.034   5.777  19.092  0.00  0.00    +0.000 A 
ATOM     17  C   UNL     1       7.243   5.038  18.209  0.00  0.00    +0.000 A 
ENDBRANCH  10  12
ENDBRANCH   7  10
ENDBRANCH   1   7
BRANCH   4  18
ATOM     18  C   UNL     1       1.168   4.460  20.473  0.00  0.00    +0.000 C 
BRANCH  18  19
ATOM     19  C   UNL     1       1.951   5.717  20.874  0.00  0.00    +0.000 C 
BRANCH  19  20
ATOM     20  O   UNL     1       2.547   6.331  19.726  0.00  0.00    +0.000 OA
BRANCH  20  21
ATOM     21  C   UNL     1       2.060   7.579  19.423  0.00  0.00    +0.000 A 
ATOM     22  C   UNL     1       2.153   8.205  18.174  0.00  0.00    +0.000 A 
ATOM     23  C   UNL     1       1.612   9.476  17.974  0.00  0.00    +0.000 A 
ATOM     24  C   UNL     1       0.969  10.125  19.022  0.00  0.00    +0.000 A 
ATOM     25 CL   UNL     1       0.293  11.685  18.767  0.00  0.00    +0.000 Cl
ATOM     26  C   UNL     1       0.870   9.515  20.271  0.00  0.00    +0.000 A 
ATOM     27  C   UNL     1       1.417   8.244  20.470  0.00  0.00    +0.000 A 
ENDBRANCH  20  21
ENDBRANCH  19  20
ENDBRANCH  18  19
ENDBRANCH   4  18
TORSDOF 7
ENDMDL
MODEL 3
REMARK VINA RESULT:      -7.8      4.454      6.138
REMARK  Name = 
REMARK  7 active torsions:
REMARK  status: ('A' for Active; 'I' for Inactive)
REMARK    1  A    between atoms: S_2  and  N_4
REMARK    2  A    between atoms: S_2  and  C_21
REMARK    3  A    between atoms: N_4  and  C_5
REMARK    4  A    between atoms: N_8  and  C_9
REMARK    5  A    between atoms: C_9  and  C_10
REMARK    6  A    between atoms: C_10  and  O_11
REMARK    7  A    between atoms: O_11  and  C_12
REMARK                            x       y       z     vdW  Elec       q    Type
REMARK                         _______ _______ _______ _____ _____    ______ ____
ROOT
ATOM      1  C   UNL     1       3.426   5.655  18.327  0.00  0.00    +0.000 C 
ATOM      2  C   UNL     1       3.640   6.973  17.609  0.00  0.00    +0.000 C 
ATOM      3  C   UNL     1       5.013   7.039  16.954  0.00  0.00    +0.000 C 
ATOM      4  N   UNL     1       6.130   6.782  17.874  0.00  0.00    +0.000 NA
ATOM      5  C   UNL     1       5.950   5.584  18.708  0.00  0.00    +0.000 C 
ATOM      6  C   UNL     1       4.560   5.443  19.332  0.00  0.00    +0.000 C 
ENDROOT
BRANCH   1   7
ATOM      7  N   UNL     1       3.349   4.511  17.393  0.00  0.00    +0.000 NA
ATOM      8  H   UNL     1       3.611   4.692  16.426  0.00  0.00    +0.000 HD
BRANCH   7  10
ATOM      9  O   UNL     1       0.856   4.117  17.317  0.00  0.00    +0.000 OA
ATOM     10  S   UNL     1       2.089   3.392  17.539  0.00  0.00    +0.000 S 
ATOM     11  O   UNL     1       2.433   2.202  16.788  0.00  0.00    +0.000 OA
BRANCH  10  12
ATOM     12  C   UNL     1       2.082   2.968  19.279  0.00  0.00    +0.000 A 
ATOM     13  C   UNL     1       3.219   2.384  19.848  0.00  0.00    +0.000 A 
ATOM     14  C   UNL     1       3.265   2.158  21.224  0.00  0.00    +0.000 A 
ATOM     15  C   UNL     1       2.187   2.527  22.028  0.00  0.00    +0.000 A 
ATOM     16  C   UNL     1       1.052   3.108  21.461  0.00  0.00    +0.000 A 
ATOM     17  C   UNL     1       0.996   3.333  20.083  0.00  0.00    +0.000 A 
ENDBRANCH  10  12
ENDBRANCH   7  10
ENDBRANCH   1   7
BRANCH   4  18
ATOM     18  C   UNL     1       7.416   6.674  17.136  0.00  0.00    +0.000 C 
BRANCH  18  19
ATOM     19  C   UNL     1       7.533   5.403  16.285  0.00  0.00    +0.000 C 
BRANCH  19  20
ATOM     20  O   UNL     1       7.842   5.730  14.926  0.00  0.00    +0.000 OA
BRANCH  20  21
ATOM     21  C   UNL     1       7.183   4.973  13.988  0.00  0.00    +0.000 A 
ATOM     22  C   UNL     1       7.637   4.715  12.688  0.00  0.00    +0.000 A 
ATOM     23  C   UNL     1       6.887   3.920  11.819  0.00  0.00    +0.000 A 
ATOM     24  C   UNL     1       5.683   3.375  12.248  0.00  0.00    +0.000 A 
ATOM     25 CL   UNL     1       4.771   2.386  11.177  0.00  0.00    +0.000 Cl
ATOM     26  C   UNL     1       5.218   3.623  13.536  0.00  0.00    +0.000 A 
ATOM     27  C   UNL     1       5.968   4.424  14.404  0.00  0.00    +0.000 A 
ENDBRANCH  20  21
ENDBRANCH  19  20
ENDBRANCH  18  19
ENDBRANCH   4  18
TORSDOF 7
ENDMDL
MODEL 4
REMARK VINA RESULT:      -7.8      0.753      1.460
REMARK  Name = 
REMARK  7 active torsions:
REMARK  status: ('A' for Active; 'I' for Inactive)
REMARK    1  A    between atoms: S_2  and  N_4
REMARK    2  A    between atoms: S_2  and  C_21
REMARK    3  A    between atoms: N_4  and  C_5
REMARK    4  A    between atoms: N_8  and  C_9
REMARK    5  A    between atoms: C_9  and  C_10
REMARK    6  A    between atoms: C_10  and  O_11
REMARK    7  A    between atoms: O_11  and  C_12
REMARK                            x       y       z     vdW  Elec       q    Type
REMARK                         _______ _______ _______ _____ _____    ______ ____
ROOT
ATOM      1  C   UNL     1       5.082   4.512  16.126  0.00  0.00    +0.000 C 
ATOM      2  C   UNL     1       6.509   4.518  15.617  0.00  0.00    +0.000 C 
ATOM      3  C   UNL     1       7.453   5.201  16.597  0.00  0.00    +0.000 C 
ATOM      4  N   UNL     1       7.048   6.564  16.968  0.00  0.00    +0.000 NA
ATOM      5  C   UNL     1       5.635   6.679  17.358  0.00  0.00    +0.000 C 
ATOM      6  C   UNL     1       4.656   5.949  16.437  0.00  0.00    +0.000 C 
ENDROOT
BRANCH   1   7
ATOM      7  N   UNL     1       4.913   3.659  17.322  0.00  0.00    +0.000 NA
ATOM      8  H   UNL     1       5.723   3.117  17.614  0.00  0.00    +0.000 HD
BRANCH   7  10
ATOM      9  O   UNL     1       2.551   3.266  16.519  0.00  0.00    +0.000 OA
ATOM     10  S   UNL     1       3.449   2.851  17.577  0.00  0.00    +0.000 S 
ATOM     11  O   UNL     1       3.727   1.457  17.852  0.00  0.00    +0.000 OA
BRANCH  10  12
ATOM     12  C   UNL     1       2.795   3.593  19.070  0.00  0.00    +0.000 A 
ATOM     13  C   UNL     1       2.723   4.987  19.168  0.00  0.00    +0.000 A 
ATOM     14  C   UNL     1       2.108   5.571  20.277  0.00  0.00    +0.000 A 
ATOM     15  C   UNL     1       1.557   4.765  21.274  0.00  0.00    +0.000 A 
ATOM     16  C   UNL     1       1.631   3.376  21.176  0.00  0.00    +0.000 A 
ATOM     17  C   UNL     1       2.249   2.784  20.072  0.00  0.00    +0.000 A 
ENDBRANCH  10  12
ENDBRANCH   7  10
ENDBRANCH   1   7
BRANCH   4  18
ATOM     18  C   UNL     1       7.902   7.094  18.065  0.00  0.00    +0.000 C 
BRANCH  18  19
ATOM     19  C   UNL     1       8.170   8.602  17.963  0.00  0.00    +0.000 C 
BRANCH  19  20
ATOM     20  O   UNL     1       8.806   9.084  19.152  0.00  0.00    +0.000 OA
BRANCH  20  21
ATOM     21  C   UNL     1       9.294  10.365  19.064  0.00  0.00    +0.000 A 
ATOM     22  C   UNL     1       9.437  11.100  17.879  0.00  0.00    +0.000 A 
ATOM     23  C   UNL     1       9.935  12.403  17.908  0.00  0.00    +0.000 A 
ATOM     24  C   UNL     1      10.289  12.980  19.122  0.00  0.00    +0.000 A 
ATOM     25 CL   UNL     1      10.890  14.591  19.153  0.00  0.00    +0.000 Cl
ATOM     26  C   UNL     1      10.154  12.262  20.308  0.00  0.00    +0.000 A 
ATOM     27  C   UNL     1       9.658  10.954  20.276  0.00  0.00    +0.000 A 
ENDBRANCH  20  21
ENDBRANCH  19  20
ENDBRANCH  18  19
ENDBRANCH   4  18
TORSDOF 7
ENDMDL
MODEL 5
REMARK VINA RESULT:      -7.7      1.499      1.941
REMARK  Name = 
REMARK  7 active torsions:
REMARK  status: ('A' for Active; 'I' for Inactive)
REMARK    1  A    between atoms: S_2  and  N_4
REMARK    2  A    between atoms: S_2  and  C_21
REMARK    3  A    between atoms: N_4  and  C_5
REMARK    4  A    between atoms: N_8  and  C_9
REMARK    5  A    between atoms: C_9  and  C_10
REMARK    6  A    between atoms: C_10  and  O_11
REMARK    7  A    between atoms: O_11  and  C_12
REMARK                            x       y       z     vdW  Elec       q    Type
REMARK                         _______ _______ _______ _____ _____    ______ ____
ROOT
ATOM      1  C   UNL     1       4.850   4.023  17.276  0.00  0.00    +0.000 C 
ATOM      2  C   UNL     1       5.889   4.030  16.173  0.00  0.00    +0.000 C 
ATOM      3  C   UNL     1       7.057   4.947  16.507  0.00  0.00    +0.000 C 
ATOM      4  N   UNL     1       6.665   6.324  16.834  0.00  0.00    +0.000 NA
ATOM      5  C   UNL     1       5.568   6.415  17.809  0.00  0.00    +0.000 C 
ATOM      6  C   UNL     1       4.401   5.461  17.549  0.00  0.00    +0.000 C 
ENDROOT
BRANCH   1   7
ATOM      7  N   UNL     1       5.352   3.400  18.519  0.00  0.00    +0.000 NA
ATOM      8  H   UNL     1       6.354   3.233  18.575  0.00  0.00    +0.000 HD
BRANCH   7  10
ATOM      9  O   UNL     1       3.998   1.284  18.250  0.00  0.00    +0.000 OA
ATOM     10  S   UNL     1       4.439   2.198  19.283  0.00  0.00    +0.000 S 
ATOM     11  O   UNL     1       5.151   1.748  20.461  0.00  0.00    +0.000 OA
BRANCH  10  12
ATOM     12  C   UNL     1       2.958   3.050  19.821  0.00  0.00    +0.000 A 
ATOM     13  C   UNL     1       3.078   4.246  20.538  0.00  0.00    +0.000 A 
ATOM     14  C   UNL     1       1.933   4.977  20.860  0.00  0.00    +0.000 A 
ATOM     15  C   UNL     1       0.678   4.521  20.454  0.00  0.00    +0.000 A 
ATOM     16  C   UNL     1       0.559   3.327  19.742  0.00  0.00    +0.000 A 
ATOM     17  C   UNL     1       1.700   2.588  19.420  0.00  0.00    +0.000 A 
ENDBRANCH  10  12
ENDBRANCH   7  10
ENDBRANCH   1   7
BRANCH   4  18
ATOM     18  C   UNL     1       7.827   7.107  17.332  0.00  0.00    +0.000 C 
BRANCH  18  19
ATOM     19  C   UNL     1       7.476   8.547  17.730  0.00  0.00    +0.000 C 
BRANCH  19  20
ATOM     20  O   UNL     1       8.523   9.447  17.353  0.00  0.00    +0.000 OA
BRANCH  20  21
ATOM     21  C   UNL     1       8.870  10.362  18.316  0.00  0.00    +0.000 A 
ATOM     22  C   UNL     1       9.222  10.057  19.637  0.00  0.00    +0.000 A 
ATOM     23  C   UNL     1       9.568  11.070  20.533  0.00  0.00    +0.000 A 
ATOM     24  C   UNL     1       9.569  12.394  20.109  0.00  0.00    +0.000 A 
ATOM     25 CL   UNL     1      10.009  13.637  21.213  0.00  0.00    +0.000 Cl
ATOM     26  C   UNL     1       9.221  12.714  18.800  0.00  0.00    +0.000 A 
ATOM     27  C   UNL     1       8.870  11.697  17.905  0.00  0.00    +0.000 A 
ENDBRANCH  20  21
ENDBRANCH  19  20
ENDBRANCH  18  19
ENDBRANCH   4  18
TORSDOF 7
ENDMDL
MODEL 6
REMARK VINA RESULT:      -7.7      0.735      1.083
REMARK  Name = 
REMARK  7 active torsions:
REMARK  status: ('A' for Active; 'I' for Inactive)
REMARK    1  A    between atoms: S_2  and  N_4
REMARK    2  A    between atoms: S_2  and  C_21
REMARK    3  A    between atoms: N_4  and  C_5
REMARK    4  A    between atoms: N_8  and  C_9
REMARK    5  A    between atoms: C_9  and  C_10
REMARK    6  A    between atoms: C_10  and  O_11
REMARK    7  A    between atoms: O_11  and  C_12
REMARK                            x       y       z     vdW  Elec       q    Type
REMARK                         _______ _______ _______ _____ _____    ______ ____
ROOT
ATOM      1  C   UNL     1       5.002   5.004  16.132  0.00  0.00    +0.000 C 
ATOM      2  C   UNL     1       6.396   4.409  16.150  0.00  0.00    +0.000 C 
ATOM      3  C   UNL     1       7.279   5.077  17.195  0.00  0.00    +0.000 C 
ATOM      4  N   UNL     1       7.360   6.538  17.066  0.00  0.00    +0.000 NA
ATOM      5  C   UNL     1       6.053   7.196  16.915  0.00  0.00    +0.000 C 
ATOM      6  C   UNL     1       5.107   6.517  15.923  0.00  0.00    +0.000 C 
ENDROOT
BRANCH   1   7
ATOM      7  N   UNL     1       4.248   4.710  17.369  0.00  0.00    +0.000 NA
ATOM      8  H   UNL     1       4.708   4.932  18.249  0.00  0.00    +0.000 HD
BRANCH   7  10
ATOM      9  O   UNL     1       2.203   3.498  16.515  0.00  0.00    +0.000 OA
ATOM     10  S   UNL     1       3.289   3.319  17.456  0.00  0.00    +0.000 S 
ATOM     11  O   UNL     1       4.151   2.156  17.430  0.00  0.00    +0.000 OA
BRANCH  10  12
ATOM     12  C   UNL     1       2.530   3.413  19.076  0.00  0.00    +0.000 A 
ATOM     13  C   UNL     1       2.245   2.231  19.769  0.00  0.00    +0.000 A 
ATOM     14  C   UNL     1       1.761   2.297  21.077  0.00  0.00    +0.000 A 
ATOM     15  C   UNL     1       1.580   3.535  21.692  0.00  0.00    +0.000 A 
ATOM     16  C   UNL     1       1.863   4.713  21.001  0.00  0.00    +0.000 A 
ATOM     17  C   UNL     1       2.342   4.657  19.689  0.00  0.00    +0.000 A 
ENDBRANCH  10  12
ENDBRANCH   7  10
ENDBRANCH   1   7
BRANCH   4  18
ATOM     18  C   UNL     1       8.077   7.137  18.224  0.00  0.00    +0.000 C 
BRANCH  18  19
ATOM     19  C   UNL     1       8.351   8.639  18.069  0.00  0.00    +0.000 C 
BRANCH  19  20
ATOM     20  O   UNL     1       8.895   9.182  19.277  0.00  0.00    +0.000 OA
BRANCH  20  21
ATOM     21  C   UNL     1       9.515  10.399  19.133  0.00  0.00    +0.000 A 
ATOM     22  C   UNL     1       9.818  11.016  17.912  0.00  0.00    +0.000 A 
ATOM     23  C   UNL     1      10.443  12.264  17.883  0.00  0.00    +0.000 A 
ATOM     24  C   UNL     1      10.764  12.902  19.075  0.00  0.00    +0.000 A 
ATOM     25 CL   UNL     1      11.522  14.445  19.034  0.00  0.00    +0.000 Cl
ATOM     26  C   UNL     1      10.471  12.301  20.296  0.00  0.00    +0.000 A 
ATOM     27  C   UNL     1       9.849  11.048  20.323  0.00  0.00    +0.000 A 
ENDBRANCH  20  21
ENDBRANCH  19  20
ENDBRANCH  18  19
ENDBRANCH   4  18
TORSDOF 7
ENDMDL
MODEL 7
REMARK VINA RESULT:      -7.7      0.515      1.080
REMARK  Name = 
REMARK  7 active torsions:
REMARK  status: ('A' for Active; 'I' for Inactive)
REMARK    1  A    between atoms: S_2  and  N_4
REMARK    2  A    between atoms: S_2  and  C_21
REMARK    3  A    between atoms: N_4  and  C_5
REMARK    4  A    between atoms: N_8  and  C_9
REMARK    5  A    between atoms: C_9  and  C_10
REMARK    6  A    between atoms: C_10  and  O_11
REMARK    7  A    between atoms: O_11  and  C_12
REMARK                            x       y       z     vdW  Elec       q    Type
REMARK                         _______ _______ _______ _____ _____    ______ ____
ROOT
ATOM      1  C   UNL     1       5.014   4.864  16.126  0.00  0.00    +0.000 C 
ATOM      2  C   UNL     1       6.389   4.239  16.254  0.00  0.00    +0.000 C 
ATOM      3  C   UNL     1       7.231   4.946  17.308  0.00  0.00    +0.000 C 
ATOM      4  N   UNL     1       7.356   6.395  17.103  0.00  0.00    +0.000 NA
ATOM      5  C   UNL     1       6.076   7.072  16.844  0.00  0.00    +0.000 C 
ATOM      6  C   UNL     1       5.169   6.360  15.840  0.00  0.00    +0.000 C 
ENDROOT
BRANCH   1   7
ATOM      7  N   UNL     1       4.187   4.657  17.333  0.00  0.00    +0.000 NA
ATOM      8  H   UNL     1       4.577   4.981  18.216  0.00  0.00    +0.000 HD
BRANCH   7  10
ATOM      9  O   UNL     1       2.092   3.408  16.675  0.00  0.00    +0.000 OA
ATOM     10  S   UNL     1       3.275   3.241  17.493  0.00  0.00    +0.000 S 
ATOM     11  O   UNL     1       4.156   2.100  17.353  0.00  0.00    +0.000 OA
BRANCH  10  12
ATOM     12  C   UNL     1       2.689   3.287  19.185  0.00  0.00    +0.000 A 
ATOM     13  C   UNL     1       2.914   4.432  19.957  0.00  0.00    +0.000 A 
ATOM     14  C   UNL     1       2.361   4.523  21.236  0.00  0.00    +0.000 A 
ATOM     15  C   UNL     1       1.577   3.481  21.732  0.00  0.00    +0.000 A 
ATOM     16  C   UNL     1       1.354   2.339  20.962  0.00  0.00    +0.000 A 
ATOM     17  C   UNL     1       1.909   2.238  19.683  0.00  0.00    +0.000 A 
ENDBRANCH  10  12
ENDBRANCH   7  10
ENDBRANCH   1   7
BRANCH   4  18
ATOM     18  C   UNL     1       8.024   7.043  18.264  0.00  0.00    +0.000 C 
BRANCH  18  19
ATOM     19  C   UNL     1       8.234   8.553  18.091  0.00  0.00    +0.000 C 
BRANCH  19  20
ATOM     20  O   UNL     1       9.065   9.072  19.135  0.00  0.00    +0.000 OA
BRANCH  20  21
ATOM     21  C   UNL     1       9.218  10.437  19.124  0.00  0.00    +0.000 A 
ATOM     22  C   UNL     1       9.684  11.210  20.195  0.00  0.00    +0.000 A 
ATOM     23  C   UNL     1       9.810  12.594  20.069  0.00  0.00    +0.000 A 
ATOM     24  C   UNL     1       9.476  13.212  18.870  0.00  0.00    +0.000 A 
ATOM     25 CL   UNL     1       9.645  14.916  18.716  0.00  0.00    +0.000 Cl
ATOM     26  C   UNL     1       9.009  12.457  17.796  0.00  0.00    +0.000 A 
ATOM     27  C   UNL     1       8.879  11.070  17.926  0.00  0.00    +0.000 A 
ENDBRANCH  20  21
ENDBRANCH  19  20
ENDBRANCH  18  19
ENDBRANCH   4  18
TORSDOF 7
ENDMDL
MODEL 8
REMARK VINA RESULT:      -7.6      3.644      7.064
REMARK  Name = 
REMARK  7 active torsions:
REMARK  status: ('A' for Active; 'I' for Inactive)
REMARK    1  A    between atoms: S_2  and  N_4
REMARK    2  A    between atoms: S_2  and  C_21
REMARK    3  A    between atoms: N_4  and  C_5
REMARK    4  A    between atoms: N_8  and  C_9
REMARK    5  A    between atoms: C_9  and  C_10
REMARK    6  A    between atoms: C_10  and  O_11
REMARK    7  A    between atoms: O_11  and  C_12
REMARK                            x       y       z     vdW  Elec       q    Type
REMARK                         _______ _______ _______ _____ _____    ______ ____
ROOT
ATOM      1  C   UNL     1       3.965   2.650  17.593  0.00  0.00    +0.000 C 
ATOM      2  C   UNL     1       2.478   2.513  17.336  0.00  0.00    +0.000 C 
ATOM      3  C   UNL     1       1.655   3.019  18.513  0.00  0.00    +0.000 C 
ATOM      4  N   UNL     1       2.000   2.397  19.798  0.00  0.00    +0.000 NA
ATOM      5  C   UNL     1       3.444   2.372  20.078  0.00  0.00    +0.000 C 
ATOM      6  C   UNL     1       4.315   1.933  18.899  0.00  0.00    +0.000 C 
ENDROOT
BRANCH   1   7
ATOM      7  N   UNL     1       4.398   4.063  17.655  0.00  0.00    +0.000 NA
ATOM      8  H   UNL     1       3.720   4.734  18.007  0.00  0.00    +0.000 HD
BRANCH   7  10
ATOM      9  O   UNL     1       6.110   3.581  15.861  0.00  0.00    +0.000 OA
ATOM     10  S   UNL     1       5.378   4.694  16.428  0.00  0.00    +0.000 S 
ATOM     11  O   UNL     1       4.586   5.593  15.615  0.00  0.00    +0.000 OA
BRANCH  10  12
ATOM     12  C   UNL     1       6.600   5.667  17.303  0.00  0.00    +0.000 A 
ATOM     13  C   UNL     1       6.832   6.990  16.911  0.00  0.00    +0.000 A 
ATOM     14  C   UNL     1       7.697   7.791  17.659  0.00  0.00    +0.000 A 
ATOM     15  C   UNL     1       8.314   7.276  18.799  0.00  0.00    +0.000 A 
ATOM     16  C   UNL     1       8.084   5.956  19.189  0.00  0.00    +0.000 A 
ATOM     17  C   UNL     1       7.224   5.146  18.442  0.00  0.00    +0.000 A 
ENDBRANCH  10  12
ENDBRANCH   7  10
ENDBRANCH   1   7
BRANCH   4  18
ATOM     18  C   UNL     1       1.297   3.071  20.923  0.00  0.00    +0.000 C 
BRANCH  18  19
ATOM     19  C   UNL     1       0.920   4.529  20.630  0.00  0.00    +0.000 C 
BRANCH  19  20
ATOM     20  O   UNL     1       2.031   5.398  20.875  0.00  0.00    +0.000 OA
BRANCH  20  21
ATOM     21  C   UNL     1       2.031   6.554  20.133  0.00  0.00    +0.000 A 
ATOM     22  C   UNL     1       2.600   6.702  18.862  0.00  0.00    +0.000 A 
ATOM     23  C   UNL     1       2.532   7.925  18.192  0.00  0.00    +0.000 A 
ATOM     24  C   UNL     1       1.891   9.004  18.788  0.00  0.00    +0.000 A 
ATOM     25 CL   UNL     1       1.800  10.505  17.953  0.00  0.00    +0.000 Cl
ATOM     26  C   UNL     1       1.323   8.873  20.053  0.00  0.00    +0.000 A 
ATOM     27  C   UNL     1       1.395   7.648  20.724  0.00  0.00    +0.000 A 
ENDBRANCH  20  21
ENDBRANCH  19  20
ENDBRANCH  18  19
ENDBRANCH   4  18
TORSDOF 7
ENDMDL
MODEL 9
REMARK VINA RESULT:      -7.6      1.208      1.395
REMARK  Name = 
REMARK  7 active torsions:
REMARK  status: ('A' for Active; 'I' for Inactive)
REMARK    1  A    between atoms: S_2  and  N_4
REMARK    2  A    between atoms: S_2  and  C_21
REMARK    3  A    between atoms: N_4  and  C_5
REMARK    4  A    between atoms: N_8  and  C_9
REMARK    5  A    between atoms: C_9  and  C_10
REMARK    6  A    between atoms: C_10  and  O_11
REMARK    7  A    between atoms: O_11  and  C_12
REMARK                            x       y       z     vdW  Elec       q    Type
REMARK                         _______ _______ _______ _____ _____    ______ ____
ROOT
ATOM      1  C   UNL     1       4.928   5.516  16.533  0.00  0.00    +0.000 C 
ATOM      2  C   UNL     1       6.330   4.975  16.331  0.00  0.00    +0.000 C 
ATOM      3  C   UNL     1       7.331   5.651  17.258  0.00  0.00    +0.000 C 
ATOM      4  N   UNL     1       7.341   7.117  17.163  0.00  0.00    +0.000 NA
ATOM      5  C   UNL     1       6.004   7.726  17.223  0.00  0.00    +0.000 C 
ATOM      6  C   UNL     1       4.948   7.036  16.358  0.00  0.00    +0.000 C 
ENDROOT
BRANCH   1   7
ATOM      7  N   UNL     1       4.373   5.161  17.856  0.00  0.00    +0.000 NA
ATOM      8  H   UNL     1       4.489   5.847  18.599  0.00  0.00    +0.000 HD
BRANCH   7  10
ATOM      9  O   UNL     1       4.145   2.711  17.285  0.00  0.00    +0.000 OA
ATOM     10  S   UNL     1       4.473   3.565  18.407  0.00  0.00    +0.000 S 
ATOM     11  O   UNL     1       5.697   3.409  19.165  0.00  0.00    +0.000 OA
BRANCH  10  12
ATOM     12  C   UNL     1       3.094   3.407  19.540  0.00  0.00    +0.000 A 
ATOM     13  C   UNL     1       1.799   3.678  19.085  0.00  0.00    +0.000 A 
ATOM     14  C   UNL     1       0.709   3.446  19.926  0.00  0.00    +0.000 A 
ATOM     15  C   UNL     1       0.913   2.931  21.206  0.00  0.00    +0.000 A 
ATOM     16  C   UNL     1       2.204   2.662  21.659  0.00  0.00    +0.000 A 
ATOM     17  C   UNL     1       3.301   2.897  20.826  0.00  0.00    +0.000 A 
ENDBRANCH  10  12
ENDBRANCH   7  10
ENDBRANCH   1   7
BRANCH   4  18
ATOM     18  C   UNL     1       8.197   7.715  18.223  0.00  0.00    +0.000 C 
BRANCH  18  19
ATOM     19  C   UNL     1       8.383   9.232  18.084  0.00  0.00    +0.000 C 
BRANCH  19  20
ATOM     20  O   UNL     1       8.880   9.796  19.302  0.00  0.00    +0.000 OA
BRANCH  20  21
ATOM     21  C   UNL     1       9.707  10.879  19.139  0.00  0.00    +0.000 A 
ATOM     22  C   UNL     1      10.591  11.378  20.105  0.00  0.00    +0.000 A 
ATOM     23  C   UNL     1      11.396  12.484  19.826  0.00  0.00    +0.000 A 
ATOM     24  C   UNL     1      11.326  13.093  18.579  0.00  0.00    +0.000 A 
ATOM     25 CL   UNL     1      12.330  14.447  18.237  0.00  0.00    +0.000 Cl
ATOM     26  C   UNL     1      10.451  12.609  17.609  0.00  0.00    +0.000 A 
ATOM     27  C   UNL     1       9.642  11.504  17.892  0.00  0.00    +0.000 A 
ENDBRANCH  20  21
ENDBRANCH  19  20
ENDBRANCH  18  19
ENDBRANCH   4  18
TORSDOF 7
ENDMDL
