MODEL 1
REMARK VINA RESULT:      -8.2      0.000      0.000
REMARK  Name = 
REMARK  8 active torsions:
REMARK  status: ('A' for Active; 'I' for Inactive)
REMARK    1  A    between atoms: C_1  and  O_2
REMARK    2  A    between atoms: O_2  and  C_3
REMARK    3  A    between atoms: C_6  and  C_7
REMARK    4  A    between atoms: N_9  and  C_10
REMARK    5  A    between atoms: C_13  and  C_14
REMARK    6  A    between atoms: C_16  and  N_17
REMARK    7  A    between atoms: N_18  and  C_19
REMARK    8  A    between atoms: C_22  and  C_23
REMARK                            x       y       z     vdW  Elec       q    Type
REMARK                         _______ _______ _______ _____ _____    ______ ____
ROOT
ATOM      1  C   UNL     1       0.657   9.290  19.886  0.00  0.00    +0.000 A 
ATOM      2  C   UNL     1       1.236   9.346  18.617  0.00  0.00    +0.000 A 
ATOM      3  C   UNL     1       2.176   8.401  18.208  0.00  0.00    +0.000 A 
ATOM      4  C   UNL     1       2.583   7.367  19.056  0.00  0.00    +0.000 A 
ATOM      5  C   UNL     1       2.020   7.318  20.340  0.00  0.00    +0.000 A 
ATOM      6  C   UNL     1       1.073   8.276  20.757  0.00  0.00    +0.000 A 
ENDROOT
BRANCH   4   7
ATOM      7  C   UNL     1       3.602   6.409  18.606  0.00  0.00    +0.000 A 
ATOM      8  C   UNL     1       4.171   5.354  19.369  0.00  0.00    +0.000 A 
ATOM      9  C   UNL     1       5.024   4.685  18.530  0.00  0.00    +0.000 A 
ATOM     10  N   UNL     1       4.908   5.317  17.290  0.00  0.00    +0.000 N 
ATOM     11  N   UNL     1       4.133   6.439  17.374  0.00  0.00    +0.000 NA
BRANCH  10  12
ATOM     12  C   UNL     1       5.503   4.937  16.057  0.00  0.00    +0.000 A 
ATOM     13  C   UNL     1       6.801   5.356  15.731  0.00  0.00    +0.000 A 
ATOM     14  C   UNL     1       7.348   5.044  14.486  0.00  0.00    +0.000 A 
ATOM     15  C   UNL     1       6.607   4.313  13.553  0.00  0.00    +0.000 A 
ATOM     16  C   UNL     1       7.170   4.015  12.196  0.00  0.00    +0.000 C 
ATOM     17  C   UNL     1       5.324   3.864  13.897  0.00  0.00    +0.000 A 
ATOM     18  C   UNL     1       4.779   4.155  15.150  0.00  0.00    +0.000 A 
ENDBRANCH  10  12
BRANCH   9  19
ATOM     19  N   UNL     1       5.863   3.657  18.828  0.00  0.00    +0.000 N 
ATOM     20  H   UNL     1       5.518   2.702  18.746  0.00  0.00    +0.000 HD
ATOM     21  H   UNL     1       6.516   3.752  19.604  0.00  0.00    +0.000 HD
ENDBRANCH   9  19
ENDBRANCH   4   7
BRANCH   1  24
ATOM     22  C   UNL     1      -0.046  11.356  21.070  0.00  0.00    +0.000 C 
ATOM     23  O   UNL     1       1.067  11.742  21.418  0.00  0.00    +0.000 OA
ATOM     24  N   UNL     1      -0.322  10.223  20.317  0.00  0.00    +0.000 N 
ATOM     25  H   UNL     1      -1.250  10.126  19.925  0.00  0.00    +0.000 HD
BRANCH  22  29
ATOM     26  C   UNL     1      -3.485  13.633  22.234  0.00  0.00    +0.000 A 
ATOM     27  C   UNL     1      -2.914  12.693  23.089  0.00  0.00    +0.000 A 
ATOM     28  C   UNL     1      -1.771  11.996  22.702  0.00  0.00    +0.000 A 
ATOM     29  C   UNL     1      -1.191  12.223  21.447  0.00  0.00    +0.000 A 
ATOM     30  C   UNL     1      -1.769  13.154  20.579  0.00  0.00    +0.000 A 
ATOM     31  C   UNL     1      -2.918  13.858  20.977  0.00  0.00    +0.000 A 
BRANCH  26  33
ATOM     32  C   UNL     1      -4.543  14.763  24.019  0.00  0.00    +0.000 C 
ATOM     33  O   UNL     1      -4.626  14.216  22.711  0.00  0.00    +0.000 OA
ENDBRANCH  26  33
ENDBRANCH  22  29
ENDBRANCH   1  24
TORSDOF 6
ENDMDL
MODEL 2
REMARK VINA RESULT:      -8.2      0.570      1.050
REMARK  Name = 
REMARK  8 active torsions:
REMARK  status: ('A' for Active; 'I' for Inactive)
REMARK    1  A    between atoms: C_1  and  O_2
REMARK    2  A    between atoms: O_2  and  C_3
REMARK    3  A    between atoms: C_6  and  C_7
REMARK    4  A    between atoms: N_9  and  C_10
REMARK    5  A    between atoms: C_13  and  C_14
REMARK    6  A    between atoms: C_16  and  N_17
REMARK    7  A    between atoms: N_18  and  C_19
REMARK    8  A    between atoms: C_22  and  C_23
REMARK                            x       y       z     vdW  Elec       q    Type
REMARK                         _______ _______ _______ _____ _____    ______ ____
ROOT
ATOM      1  C   UNL     1       0.823   9.075  19.712  0.00  0.00    +0.000 A 
ATOM      2  C   UNL     1       1.412   9.279  18.463  0.00  0.00    +0.000 A 
ATOM      3  C   UNL     1       2.400   8.422  17.981  0.00  0.00    +0.000 A 
ATOM      4  C   UNL     1       2.848   7.333  18.734  0.00  0.00    +0.000 A 
ATOM      5  C   UNL     1       2.275   7.135  19.998  0.00  0.00    +0.000 A 
ATOM      6  C   UNL     1       1.278   8.003  20.490  0.00  0.00    +0.000 A 
ENDROOT
BRANCH   4   7
ATOM      7  C   UNL     1       3.917   6.471  18.211  0.00  0.00    +0.000 A 
ATOM      8  C   UNL     1       4.728   5.575  18.958  0.00  0.00    +0.000 A 
ATOM      9  C   UNL     1       5.540   4.940  18.055  0.00  0.00    +0.000 A 
ATOM     10  N   UNL     1       5.165   5.428  16.801  0.00  0.00    +0.000 N 
ATOM     11  N   UNL     1       4.262   6.446  16.913  0.00  0.00    +0.000 NA
BRANCH  10  12
ATOM     12  C   UNL     1       5.629   5.007  15.526  0.00  0.00    +0.000 A 
ATOM     13  C   UNL     1       4.827   4.203  14.704  0.00  0.00    +0.000 A 
ATOM     14  C   UNL     1       5.320   3.729  13.488  0.00  0.00    +0.000 A 
ATOM     15  C   UNL     1       6.618   4.052  13.078  0.00  0.00    +0.000 A 
ATOM     16  C   UNL     1       7.171   3.508  11.796  0.00  0.00    +0.000 C 
ATOM     17  C   UNL     1       7.403   4.888  13.886  0.00  0.00    +0.000 A 
ATOM     18  C   UNL     1       6.906   5.381  15.095  0.00  0.00    +0.000 A 
ENDBRANCH  10  12
BRANCH   9  19
ATOM     19  N   UNL     1       6.546   4.059  18.302  0.00  0.00    +0.000 N 
ATOM     20  H   UNL     1       7.095   4.166  19.153  0.00  0.00    +0.000 HD
ATOM     21  H   UNL     1       7.118   3.723  17.529  0.00  0.00    +0.000 HD
ENDBRANCH   9  19
ENDBRANCH   4   7
BRANCH   1  24
ATOM     22  C   UNL     1      -0.003  10.935  21.135  0.00  0.00    +0.000 C 
ATOM     23  O   UNL     1       1.078  11.291  21.597  0.00  0.00    +0.000 OA
ATOM     24  N   UNL     1      -0.204   9.916  20.214  0.00  0.00    +0.000 N 
ATOM     25  H   UNL     1      -1.108   9.855  19.761  0.00  0.00    +0.000 HD
BRANCH  22  29
ATOM     26  C   UNL     1      -3.527  12.957  22.498  0.00  0.00    +0.000 A 
ATOM     27  C   UNL     1      -2.735  12.212  23.369  0.00  0.00    +0.000 A 
ATOM     28  C   UNL     1      -1.571  11.598  22.909  0.00  0.00    +0.000 A 
ATOM     29  C   UNL     1      -1.191  11.714  21.565  0.00  0.00    +0.000 A 
ATOM     30  C   UNL     1      -1.989  12.448  20.683  0.00  0.00    +0.000 A 
ATOM     31  C   UNL     1      -3.159  13.069  21.154  0.00  0.00    +0.000 A 
BRANCH  26  33
ATOM     32  C   UNL     1      -4.482  14.606  23.894  0.00  0.00    +0.000 C 
ATOM     33  O   UNL     1      -4.662  13.471  23.059  0.00  0.00    +0.000 OA
ENDBRANCH  26  33
ENDBRANCH  22  29
ENDBRANCH   1  24
TORSDOF 6
ENDMDL
MODEL 3
REMARK VINA RESULT:      -8.1      0.542      1.025
REMARK  Name = 
REMARK  8 active torsions:
REMARK  status: ('A' for Active; 'I' for Inactive)
REMARK    1  A    between atoms: C_1  and  O_2
REMARK    2  A    between atoms: O_2  and  C_3
REMARK    3  A    between atoms: C_6  and  C_7
REMARK    4  A    between atoms: N_9  and  C_10
REMARK    5  A    between atoms: C_13  and  C_14
REMARK    6  A    between atoms: C_16  and  N_17
REMARK    7  A    between atoms: N_18  and  C_19
REMARK    8  A    between atoms: C_22  and  C_23
REMARK                            x       y       z     vdW  Elec       q    Type
REMARK                         _______ _______ _______ _____ _____    ______ ____
ROOT
ATOM      1  C   UNL     1       0.572   9.371  20.053  0.00  0.00    +0.000 A 
ATOM      2  C   UNL     1       1.177   9.430  18.796  0.00  0.00    +0.000 A 
ATOM      3  C   UNL     1       2.097   8.465  18.389  0.00  0.00    +0.000 A 
ATOM      4  C   UNL     1       2.458   7.406  19.228  0.00  0.00    +0.000 A 
ATOM      5  C   UNL     1       1.869   7.352  20.499  0.00  0.00    +0.000 A 
ATOM      6  C   UNL     1       0.942   8.331  20.915  0.00  0.00    +0.000 A 
ENDROOT
BRANCH   4   7
ATOM      7  C   UNL     1       3.458   6.426  18.781  0.00  0.00    +0.000 A 
ATOM      8  C   UNL     1       3.930   5.302  19.511  0.00  0.00    +0.000 A 
ATOM      9  C   UNL     1       4.802   4.642  18.685  0.00  0.00    +0.000 A 
ATOM     10  N   UNL     1       4.791   5.348  17.480  0.00  0.00    +0.000 N 
ATOM     11  N   UNL     1       4.064   6.500  17.586  0.00  0.00    +0.000 NA
BRANCH  10  12
ATOM     12  C   UNL     1       5.442   5.010  16.264  0.00  0.00    +0.000 A 
ATOM     13  C   UNL     1       6.745   5.456  16.003  0.00  0.00    +0.000 A 
ATOM     14  C   UNL     1       7.348   5.187  14.775  0.00  0.00    +0.000 A 
ATOM     15  C   UNL     1       6.657   4.470  13.792  0.00  0.00    +0.000 A 
ATOM     16  C   UNL     1       7.280   4.217  12.452  0.00  0.00    +0.000 C 
ATOM     17  C   UNL     1       5.368   3.993  14.070  0.00  0.00    +0.000 A 
ATOM     18  C   UNL     1       4.768   4.243  15.307  0.00  0.00    +0.000 A 
ENDBRANCH  10  12
BRANCH   9  19
ATOM     19  N   UNL     1       5.572   3.558  18.970  0.00  0.00    +0.000 N 
ATOM     20  H   UNL     1       5.117   2.667  19.158  0.00  0.00    +0.000 HD
ATOM     21  H   UNL     1       6.412   3.675  19.535  0.00  0.00    +0.000 HD
ENDBRANCH   9  19
ENDBRANCH   4   7
BRANCH   1  24
ATOM     22  C   UNL     1      -0.447  10.857  21.761  0.00  0.00    +0.000 C 
ATOM     23  O   UNL     1       0.340  10.630  22.677  0.00  0.00    +0.000 OA
ATOM     24  N   UNL     1      -0.387  10.325  20.480  0.00  0.00    +0.000 N 
ATOM     25  H   UNL     1      -0.968  10.742  19.764  0.00  0.00    +0.000 HD
BRANCH  22  29
ATOM     26  C   UNL     1      -3.377  13.888  22.530  0.00  0.00    +0.000 A 
ATOM     27  C   UNL     1      -2.623  13.888  21.359  0.00  0.00    +0.000 A 
ATOM     28  C   UNL     1      -1.706  12.868  21.114  0.00  0.00    +0.000 A 
ATOM     29  C   UNL     1      -1.524  11.838  22.046  0.00  0.00    +0.000 A 
ATOM     30  C   UNL     1      -2.267  11.840  23.230  0.00  0.00    +0.000 A 
ATOM     31  C   UNL     1      -3.194  12.868  23.470  0.00  0.00    +0.000 A 
BRANCH  26  33
ATOM     32  C   UNL     1      -5.120  14.903  23.761  0.00  0.00    +0.000 C 
ATOM     33  O   UNL     1      -4.208  14.964  22.673  0.00  0.00    +0.000 OA
ENDBRANCH  26  33
ENDBRANCH  22  29
ENDBRANCH   1  24
TORSDOF 6
ENDMDL
MODEL 4
REMARK VINA RESULT:      -8.0      0.387      1.273
REMARK  Name = 
REMARK  8 active torsions:
REMARK  status: ('A' for Active; 'I' for Inactive)
REMARK    1  A    between atoms: C_1  and  O_2
REMARK    2  A    between atoms: O_2  and  C_3
REMARK    3  A    between atoms: C_6  and  C_7
REMARK    4  A    between atoms: N_9  and  C_10
REMARK    5  A    between atoms: C_13  and  C_14
REMARK    6  A    between atoms: C_16  and  N_17
REMARK    7  A    between atoms: N_18  and  C_19
REMARK    8  A    between atoms: C_22  and  C_23
REMARK                            x       y       z     vdW  Elec       q    Type
REMARK                         _______ _______ _______ _____ _____    ______ ____
ROOT
ATOM      1  C   UNL     1       0.596   9.212  20.130  0.00  0.00    +0.000 A 
ATOM      2  C   UNL     1       0.977   8.112  20.900  0.00  0.00    +0.000 A 
ATOM      3  C   UNL     1       1.934   7.207  20.445  0.00  0.00    +0.000 A 
ATOM      4  C   UNL     1       2.541   7.359  19.194  0.00  0.00    +0.000 A 
ATOM      5  C   UNL     1       2.147   8.451  18.407  0.00  0.00    +0.000 A 
ATOM      6  C   UNL     1       1.175   9.365  18.865  0.00  0.00    +0.000 A 
ENDROOT
BRANCH   4   7
ATOM      7  C   UNL     1       3.520   6.367  18.729  0.00  0.00    +0.000 A 
ATOM      8  C   UNL     1       3.983   5.230  19.446  0.00  0.00    +0.000 A 
ATOM      9  C   UNL     1       4.834   4.562  18.605  0.00  0.00    +0.000 A 
ATOM     10  N   UNL     1       4.820   5.277  17.405  0.00  0.00    +0.000 N 
ATOM     11  N   UNL     1       4.113   6.439  17.527  0.00  0.00    +0.000 NA
BRANCH  10  12
ATOM     12  C   UNL     1       5.451   4.938  16.178  0.00  0.00    +0.000 A 
ATOM     13  C   UNL     1       6.733   5.419  15.877  0.00  0.00    +0.000 A 
ATOM     14  C   UNL     1       7.313   5.146  14.638  0.00  0.00    +0.000 A 
ATOM     15  C   UNL     1       6.621   4.390  13.686  0.00  0.00    +0.000 A 
ATOM     16  C   UNL     1       7.218   4.133  12.335  0.00  0.00    +0.000 C 
ATOM     17  C   UNL     1       5.355   3.879  14.005  0.00  0.00    +0.000 A 
ATOM     18  C   UNL     1       4.778   4.132  15.252  0.00  0.00    +0.000 A 
ENDBRANCH  10  12
BRANCH   9  19
ATOM     19  N   UNL     1       5.591   3.465  18.872  0.00  0.00    +0.000 N 
ATOM     20  H   UNL     1       5.145   2.650  19.290  0.00  0.00    +0.000 HD
ATOM     21  H   UNL     1       6.544   3.584  19.213  0.00  0.00    +0.000 HD
ENDBRANCH   9  19
ENDBRANCH   4   7
BRANCH   1  24
ATOM     22  C   UNL     1      -0.036  11.319  21.283  0.00  0.00    +0.000 C 
ATOM     23  O   UNL     1       1.096  11.710  21.557  0.00  0.00    +0.000 OA
ATOM     24  N   UNL     1      -0.355  10.163  20.583  0.00  0.00    +0.000 N 
ATOM     25  H   UNL     1      -1.304  10.058  20.246  0.00  0.00    +0.000 HD
BRANCH  22  29
ATOM     26  C   UNL     1      -3.173  14.058  22.294  0.00  0.00    +0.000 A 
ATOM     27  C   UNL     1      -2.894  13.731  20.968  0.00  0.00    +0.000 A 
ATOM     28  C   UNL     1      -1.896  12.806  20.669  0.00  0.00    +0.000 A 
ATOM     29  C   UNL     1      -1.155  12.203  21.694  0.00  0.00    +0.000 A 
ATOM     30  C   UNL     1      -1.420  12.538  23.025  0.00  0.00    +0.000 A 
ATOM     31  C   UNL     1      -2.431  13.468  23.322  0.00  0.00    +0.000 A 
BRANCH  26  33
ATOM     32  C   UNL     1      -4.273  15.545  23.763  0.00  0.00    +0.000 C 
ATOM     33  O   UNL     1      -4.142  15.008  22.454  0.00  0.00    +0.000 OA
ENDBRANCH  26  33
ENDBRANCH  22  29
ENDBRANCH   1  24
TORSDOF 6
ENDMDL
MODEL 5
REMARK VINA RESULT:      -7.9      0.406      1.303
REMARK  Name = 
REMARK  8 active torsions:
REMARK  status: ('A' for Active; 'I' for Inactive)
REMARK    1  A    between atoms: C_1  and  O_2
REMARK    2  A    between atoms: O_2  and  C_3
REMARK    3  A    between atoms: C_6  and  C_7
REMARK    4  A    between atoms: N_9  and  C_10
REMARK    5  A    between atoms: C_13  and  C_14
REMARK    6  A    between atoms: C_16  and  N_17
REMARK    7  A    between atoms: N_18  and  C_19
REMARK    8  A    between atoms: C_22  and  C_23
REMARK                            x       y       z     vdW  Elec       q    Type
REMARK                         _______ _______ _______ _____ _____    ______ ____
ROOT
ATOM      1  C   UNL     1       0.635   9.136  20.164  0.00  0.00    +0.000 A 
ATOM      2  C   UNL     1       1.186   9.281  18.889  0.00  0.00    +0.000 A 
ATOM      3  C   UNL     1       2.132   8.379  18.403  0.00  0.00    +0.000 A 
ATOM      4  C   UNL     1       2.574   7.302  19.177  0.00  0.00    +0.000 A 
ATOM      5  C   UNL     1       2.039   7.164  20.467  0.00  0.00    +0.000 A 
ATOM      6  C   UNL     1       1.086   8.078  20.962  0.00  0.00    +0.000 A 
ENDROOT
BRANCH   4   7
ATOM      7  C   UNL     1       3.598   6.391  18.649  0.00  0.00    +0.000 A 
ATOM      8  C   UNL     1       4.251   5.345  19.355  0.00  0.00    +0.000 A 
ATOM      9  C   UNL     1       5.076   4.724  18.454  0.00  0.00    +0.000 A 
ATOM     10  N   UNL     1       4.861   5.372  17.235  0.00  0.00    +0.000 N 
ATOM     11  N   UNL     1       4.052   6.462  17.387  0.00  0.00    +0.000 NA
BRANCH  10  12
ATOM     12  C   UNL     1       5.394   5.037  15.961  0.00  0.00    +0.000 A 
ATOM     13  C   UNL     1       4.648   4.272  15.054  0.00  0.00    +0.000 A 
ATOM     14  C   UNL     1       5.207   3.880  13.838  0.00  0.00    +0.000 A 
ATOM     15  C   UNL     1       6.518   4.247  13.513  0.00  0.00    +0.000 A 
ATOM     16  C   UNL     1       7.142   3.789  12.230  0.00  0.00    +0.000 C 
ATOM     17  C   UNL     1       7.248   5.043  14.408  0.00  0.00    +0.000 A 
ATOM     18  C   UNL     1       6.684   5.455  15.618  0.00  0.00    +0.000 A 
ENDBRANCH  10  12
BRANCH   9  19
ATOM     19  N   UNL     1       5.968   3.724  18.680  0.00  0.00    +0.000 N 
ATOM     20  H   UNL     1       5.810   2.816  18.246  0.00  0.00    +0.000 HD
ATOM     21  H   UNL     1       6.389   3.627  19.603  0.00  0.00    +0.000 HD
ENDBRANCH   9  19
ENDBRANCH   4   7
BRANCH   1  24
ATOM     22  C   UNL     1      -0.067  11.193  21.365  0.00  0.00    +0.000 C 
ATOM     23  O   UNL     1       1.051  11.652  21.588  0.00  0.00    +0.000 OA
ATOM     24  N   UNL     1      -0.349  10.024  20.671  0.00  0.00    +0.000 N 
ATOM     25  H   UNL     1      -1.305   9.862  20.380  0.00  0.00    +0.000 HD
BRANCH  22  29
ATOM     26  C   UNL     1      -3.226  13.753  22.718  0.00  0.00    +0.000 A 
ATOM     27  C   UNL     1      -2.491  14.051  21.572  0.00  0.00    +0.000 A 
ATOM     28  C   UNL     1      -1.497  13.180  21.131  0.00  0.00    +0.000 A 
ATOM     29  C   UNL     1      -1.217  12.003  21.838  0.00  0.00    +0.000 A 
ATOM     30  C   UNL     1      -1.940  11.707  22.998  0.00  0.00    +0.000 A 
ATOM     31  C   UNL     1      -2.945  12.586  23.435  0.00  0.00    +0.000 A 
BRANCH  26  33
ATOM     32  C   UNL     1      -3.690  15.683  24.000  0.00  0.00    +0.000 C 
ATOM     33  O   UNL     1      -4.140  14.706  23.072  0.00  0.00    +0.000 OA
ENDBRANCH  26  33
ENDBRANCH  22  29
ENDBRANCH   1  24
TORSDOF 6
ENDMDL
MODEL 6
REMARK VINA RESULT:      -7.9      0.660      1.657
REMARK  Name = 
REMARK  8 active torsions:
REMARK  status: ('A' for Active; 'I' for Inactive)
REMARK    1  A    between atoms: C_1  and  O_2
REMARK    2  A    between atoms: O_2  and  C_3
REMARK    3  A    between atoms: C_6  and  C_7
REMARK    4  A    between atoms: N_9  and  C_10
REMARK    5  A    between atoms: C_13  and  C_14
REMARK    6  A    between atoms: C_16  and  N_17
REMARK    7  A    between atoms: N_18  and  C_19
REMARK    8  A    between atoms: C_22  and  C_23
REMARK                            x       y       z     vdW  Elec       q    Type
REMARK                         _______ _______ _______ _____ _____    ______ ____
ROOT
ATOM      1  C   UNL     1       0.922   8.947  19.723  0.00  0.00    +0.000 A 
ATOM      2  C   UNL     1       1.426   7.846  20.418  0.00  0.00    +0.000 A 
ATOM      3  C   UNL     1       2.453   7.065  19.891  0.00  0.00    +0.000 A 
ATOM      4  C   UNL     1       3.011   7.348  18.640  0.00  0.00    +0.000 A 
ATOM      5  C   UNL     1       2.495   8.441  17.928  0.00  0.00    +0.000 A 
ATOM      6  C   UNL     1       1.452   9.229  18.459  0.00  0.00    +0.000 A 
ENDROOT
BRANCH   4   7
ATOM      7  C   UNL     1       4.068   6.484  18.097  0.00  0.00    +0.000 A 
ATOM      8  C   UNL     1       4.910   5.608  18.833  0.00  0.00    +0.000 A 
ATOM      9  C   UNL     1       5.696   4.962  17.915  0.00  0.00    +0.000 A 
ATOM     10  N   UNL     1       5.276   5.425  16.665  0.00  0.00    +0.000 N 
ATOM     11  N   UNL     1       4.370   6.438  16.790  0.00  0.00    +0.000 NA
BRANCH  10  12
ATOM     12  C   UNL     1       5.700   4.984  15.383  0.00  0.00    +0.000 A 
ATOM     13  C   UNL     1       4.875   4.164  14.600  0.00  0.00    +0.000 A 
ATOM     14  C   UNL     1       5.330   3.672  13.377  0.00  0.00    +0.000 A 
ATOM     15  C   UNL     1       6.613   3.991  12.922  0.00  0.00    +0.000 A 
ATOM     16  C   UNL     1       7.127   3.427  11.631  0.00  0.00    +0.000 C 
ATOM     17  C   UNL     1       7.421   4.841  13.690  0.00  0.00    +0.000 A 
ATOM     18  C   UNL     1       6.962   5.354  14.906  0.00  0.00    +0.000 A 
ENDBRANCH  10  12
BRANCH   9  19
ATOM     19  N   UNL     1       6.716   4.093  18.144  0.00  0.00    +0.000 N 
ATOM     20  H   UNL     1       6.583   3.346  18.823  0.00  0.00    +0.000 HD
ATOM     21  H   UNL     1       7.676   4.437  18.151  0.00  0.00    +0.000 HD
ENDBRANCH   9  19
ENDBRANCH   4   7
BRANCH   1  24
ATOM     22  C   UNL     1       0.111  10.820  21.137  0.00  0.00    +0.000 C 
ATOM     23  O   UNL     1       1.202  11.214  21.542  0.00  0.00    +0.000 OA
ATOM     24  N   UNL     1      -0.104   9.774  20.251  0.00  0.00    +0.000 N 
ATOM     25  H   UNL     1      -1.025   9.679  19.840  0.00  0.00    +0.000 HD
BRANCH  22  29
ATOM     26  C   UNL     1      -3.204  13.238  22.375  0.00  0.00    +0.000 A 
ATOM     27  C   UNL     1      -2.731  13.271  21.065  0.00  0.00    +0.000 A 
ATOM     28  C   UNL     1      -1.678  12.444  20.678  0.00  0.00    +0.000 A 
ATOM     29  C   UNL     1      -1.077  11.579  21.602  0.00  0.00    +0.000 A 
ATOM     30  C   UNL     1      -1.538  11.552  22.922  0.00  0.00    +0.000 A 
ATOM     31  C   UNL     1      -2.603  12.384  23.306  0.00  0.00    +0.000 A 
BRANCH  26  33
ATOM     32  C   UNL     1      -4.276  14.604  23.977  0.00  0.00    +0.000 C 
ATOM     33  O   UNL     1      -4.208  14.126  22.641  0.00  0.00    +0.000 OA
ENDBRANCH  26  33
ENDBRANCH  22  29
ENDBRANCH   1  24
TORSDOF 6
ENDMDL
MODEL 7
REMARK VINA RESULT:      -7.8      1.230      1.362
REMARK  Name = 
REMARK  8 active torsions:
REMARK  status: ('A' for Active; 'I' for Inactive)
REMARK    1  A    between atoms: C_1  and  O_2
REMARK    2  A    between atoms: O_2  and  C_3
REMARK    3  A    between atoms: C_6  and  C_7
REMARK    4  A    between atoms: N_9  and  C_10
REMARK    5  A    between atoms: C_13  and  C_14
REMARK    6  A    between atoms: C_16  and  N_17
REMARK    7  A    between atoms: N_18  and  C_19
REMARK    8  A    between atoms: C_22  and  C_23
REMARK                            x       y       z     vdW  Elec       q    Type
REMARK                         _______ _______ _______ _____ _____    ______ ____
ROOT
ATOM      1  C   UNL     1       0.853   9.652  19.504  0.00  0.00    +0.000 A 
ATOM      2  C   UNL     1       1.453   9.638  18.244  0.00  0.00    +0.000 A 
ATOM      3  C   UNL     1       2.325   8.616  17.869  0.00  0.00    +0.000 A 
ATOM      4  C   UNL     1       2.642   7.574  18.746  0.00  0.00    +0.000 A 
ATOM      5  C   UNL     1       2.058   7.594  20.021  0.00  0.00    +0.000 A 
ATOM      6  C   UNL     1       1.179   8.629  20.403  0.00  0.00    +0.000 A 
ENDROOT
BRANCH   4   7
ATOM      7  C   UNL     1       3.592   6.533  18.332  0.00  0.00    +0.000 A 
ATOM      8  C   UNL     1       4.037   5.430  19.111  0.00  0.00    +0.000 A 
ATOM      9  C   UNL     1       4.864   4.693  18.304  0.00  0.00    +0.000 A 
ATOM     10  N   UNL     1       4.854   5.336  17.064  0.00  0.00    +0.000 N 
ATOM     11  N   UNL     1       4.176   6.520  17.123  0.00  0.00    +0.000 NA
BRANCH  10  12
ATOM     12  C   UNL     1       5.466   4.910  15.855  0.00  0.00    +0.000 A 
ATOM     13  C   UNL     1       6.800   5.235  15.575  0.00  0.00    +0.000 A 
ATOM     14  C   UNL     1       7.369   4.880  14.352  0.00  0.00    +0.000 A 
ATOM     15  C   UNL     1       6.613   4.198  13.394  0.00  0.00    +0.000 A 
ATOM     16  C   UNL     1       7.202   3.856  12.058  0.00  0.00    +0.000 C 
ATOM     17  C   UNL     1       5.290   3.842  13.691  0.00  0.00    +0.000 A 
ATOM     18  C   UNL     1       4.722   4.177  14.923  0.00  0.00    +0.000 A 
ENDBRANCH  10  12
BRANCH   9  19
ATOM     19  N   UNL     1       5.597   3.596  18.630  0.00  0.00    +0.000 N 
ATOM     20  H   UNL     1       6.184   3.626  19.462  0.00  0.00    +0.000 HD
ATOM     21  H   UNL     1       6.027   3.043  17.890  0.00  0.00    +0.000 HD
ENDBRANCH   9  19
ENDBRANCH   4   7
BRANCH   1  24
ATOM     22  C   UNL     1      -1.311  10.857  19.331  0.00  0.00    +0.000 C 
ATOM     23  O   UNL     1      -1.827  10.159  18.462  0.00  0.00    +0.000 OA
ATOM     24  N   UNL     1      -0.059  10.665  19.899  0.00  0.00    +0.000 N 
ATOM     25  H   UNL     1       0.165  11.181  20.741  0.00  0.00    +0.000 HD
BRANCH  22  29
ATOM     26  C   UNL     1      -3.623  14.004  21.095  0.00  0.00    +0.000 A 
ATOM     27  C   UNL     1      -2.284  13.813  21.429  0.00  0.00    +0.000 A 
ATOM     28  C   UNL     1      -1.544  12.808  20.810  0.00  0.00    +0.000 A 
ATOM     29  C   UNL     1      -2.138  11.973  19.855  0.00  0.00    +0.000 A 
ATOM     30  C   UNL     1      -3.486  12.150  19.527  0.00  0.00    +0.000 A 
ATOM     31  C   UNL     1      -4.226  13.169  20.150  0.00  0.00    +0.000 A 
BRANCH  26  33
ATOM     32  C   UNL     1      -3.403  15.968  22.390  0.00  0.00    +0.000 C 
ATOM     33  O   UNL     1      -4.251  14.991  21.803  0.00  0.00    +0.000 OA
ENDBRANCH  26  33
ENDBRANCH  22  29
ENDBRANCH   1  24
TORSDOF 6
ENDMDL
MODEL 8
REMARK VINA RESULT:      -7.6      1.344      1.655
REMARK  Name = 
REMARK  8 active torsions:
REMARK  status: ('A' for Active; 'I' for Inactive)
REMARK    1  A    between atoms: C_1  and  O_2
REMARK    2  A    between atoms: O_2  and  C_3
REMARK    3  A    between atoms: C_6  and  C_7
REMARK    4  A    between atoms: N_9  and  C_10
REMARK    5  A    between atoms: C_13  and  C_14
REMARK    6  A    between atoms: C_16  and  N_17
REMARK    7  A    between atoms: N_18  and  C_19
REMARK    8  A    between atoms: C_22  and  C_23
REMARK                            x       y       z     vdW  Elec       q    Type
REMARK                         _______ _______ _______ _____ _____    ______ ____
ROOT
ATOM      1  C   UNL     1       0.079   9.867  20.785  0.00  0.00    +0.000 A 
ATOM      2  C   UNL     1       0.764   9.904  19.569  0.00  0.00    +0.000 A 
ATOM      3  C   UNL     1       1.577   8.846  19.164  0.00  0.00    +0.000 A 
ATOM      4  C   UNL     1       1.747   7.713  19.965  0.00  0.00    +0.000 A 
ATOM      5  C   UNL     1       1.078   7.680  21.198  0.00  0.00    +0.000 A 
ATOM      6  C   UNL     1       0.259   8.751  21.611  0.00  0.00    +0.000 A 
ENDROOT
BRANCH   4   7
ATOM      7  C   UNL     1       2.640   6.632  19.525  0.00  0.00    +0.000 A 
ATOM      8  C   UNL     1       2.711   5.318  20.061  0.00  0.00    +0.000 A 
ATOM      9  C   UNL     1       3.632   4.640  19.306  0.00  0.00    +0.000 A 
ATOM     10  N   UNL     1       4.047   5.538  18.319  0.00  0.00    +0.000 N 
ATOM     11  N   UNL     1       3.530   6.784  18.531  0.00  0.00    +0.000 NA
BRANCH  10  12
ATOM     12  C   UNL     1       4.913   5.289  17.220  0.00  0.00    +0.000 A 
ATOM     13  C   UNL     1       6.168   5.907  17.146  0.00  0.00    +0.000 A 
ATOM     14  C   UNL     1       6.979   5.720  16.027  0.00  0.00    +0.000 A 
ATOM     15  C   UNL     1       6.546   4.914  14.969  0.00  0.00    +0.000 A 
ATOM     16  C   UNL     1       7.392   4.746  13.742  0.00  0.00    +0.000 C 
ATOM     17  C   UNL     1       5.306   4.268  15.063  0.00  0.00    +0.000 A 
ATOM     18  C   UNL     1       4.499   4.436  16.191  0.00  0.00    +0.000 A 
ENDBRANCH  10  12
BRANCH   9  19
ATOM     19  N   UNL     1       4.106   3.379  19.489  0.00  0.00    +0.000 N 
ATOM     20  H   UNL     1       5.060   3.256  19.824  0.00  0.00    +0.000 HD
ATOM     21  H   UNL     1       3.843   2.645  18.833  0.00  0.00    +0.000 HD
ENDBRANCH   9  19
ENDBRANCH   4   7
BRANCH   1  24
ATOM     22  C   UNL     1      -0.941  11.311  22.529  0.00  0.00    +0.000 C 
ATOM     23  O   UNL     1      -0.342  10.857  23.500  0.00  0.00    +0.000 OA
ATOM     24  N   UNL     1      -0.776  10.918  21.207  0.00  0.00    +0.000 N 
ATOM     25  H   UNL     1      -1.174  11.503  20.483  0.00  0.00    +0.000 HD
BRANCH  22  29
ATOM     26  C   UNL     1      -3.566  14.537  23.564  0.00  0.00    +0.000 A 
ATOM     27  C   UNL     1      -2.193  14.620  23.784  0.00  0.00    +0.000 A 
ATOM     28  C   UNL     1      -1.356  13.573  23.400  0.00  0.00    +0.000 A 
ATOM     29  C   UNL     1      -1.886  12.423  22.800  0.00  0.00    +0.000 A 
ATOM     30  C   UNL     1      -3.266  12.328  22.591  0.00  0.00    +0.000 A 
ATOM     31  C   UNL     1      -4.104  13.388  22.975  0.00  0.00    +0.000 A 
BRANCH  26  33
ATOM     32  C   UNL     1      -5.614  15.713  23.544  0.00  0.00    +0.000 C 
ATOM     33  O   UNL     1      -4.282  15.606  24.025  0.00  0.00    +0.000 OA
ENDBRANCH  26  33
ENDBRANCH  22  29
ENDBRANCH   1  24
TORSDOF 6
ENDMDL
MODEL 9
REMARK VINA RESULT:      -7.6      1.090      1.090
REMARK  Name = 
REMARK  8 active torsions:
REMARK  status: ('A' for Active; 'I' for Inactive)
REMARK    1  A    between atoms: C_1  and  O_2
REMARK    2  A    between atoms: O_2  and  C_3
REMARK    3  A    between atoms: C_6  and  C_7
REMARK    4  A    between atoms: N_9  and  C_10
REMARK    5  A    between atoms: C_13  and  C_14
REMARK    6  A    between atoms: C_16  and  N_17
REMARK    7  A    between atoms: N_18  and  C_19
REMARK    8  A    between atoms: C_22  and  C_23
REMARK                            x       y       z     vdW  Elec       q    Type
REMARK                         _______ _______ _______ _____ _____    ______ ____
ROOT
ATOM      1  C   UNL     1       1.115   9.189  20.050  0.00  0.00    +0.000 A 
ATOM      2  C   UNL     1       1.556   9.227  18.726  0.00  0.00    +0.000 A 
ATOM      3  C   UNL     1       2.247   8.155  18.162  0.00  0.00    +0.000 A 
ATOM      4  C   UNL     1       2.535   7.005  18.904  0.00  0.00    +0.000 A 
ATOM      5  C   UNL     1       2.111   6.970  20.241  0.00  0.00    +0.000 A 
ATOM      6  C   UNL     1       1.417   8.055  20.814  0.00  0.00    +0.000 A 
ENDROOT
BRANCH   4   7
ATOM      7  C   UNL     1       3.296   5.909  18.290  0.00  0.00    +0.000 A 
ATOM      8  C   UNL     1       3.283   4.543  18.681  0.00  0.00    +0.000 A 
ATOM      9  C   UNL     1       4.089   3.878  17.794  0.00  0.00    +0.000 A 
ATOM     10  N   UNL     1       4.519   4.840  16.878  0.00  0.00    +0.000 N 
ATOM     11  N   UNL     1       4.131   6.094  17.255  0.00  0.00    +0.000 NA
BRANCH  10  12
ATOM     12  C   UNL     1       5.287   4.643  15.699  0.00  0.00    +0.000 A 
ATOM     13  C   UNL     1       6.609   5.100  15.623  0.00  0.00    +0.000 A 
ATOM     14  C   UNL     1       7.330   4.973  14.435  0.00  0.00    +0.000 A 
ATOM     15  C   UNL     1       6.740   4.387  13.311  0.00  0.00    +0.000 A 
ATOM     16  C   UNL     1       7.491   4.289  12.018  0.00  0.00    +0.000 C 
ATOM     17  C   UNL     1       5.429   3.897  13.402  0.00  0.00    +0.000 A 
ATOM     18  C   UNL     1       4.710   4.004  14.596  0.00  0.00    +0.000 A 
ENDBRANCH  10  12
BRANCH   9  19
ATOM     19  N   UNL     1       4.458   2.569  17.811  0.00  0.00    +0.000 N 
ATOM     20  H   UNL     1       3.816   1.882  18.203  0.00  0.00    +0.000 HD
ATOM     21  H   UNL     1       5.428   2.325  18.002  0.00  0.00    +0.000 HD
ENDBRANCH   9  19
ENDBRANCH   4   7
BRANCH   1  24
ATOM     22  C   UNL     1      -0.784  10.787  20.114  0.00  0.00    +0.000 C 
ATOM     23  O   UNL     1      -1.380  10.386  19.117  0.00  0.00    +0.000 OA
ATOM     24  N   UNL     1       0.385  10.254  20.638  0.00  0.00    +0.000 N 
ATOM     25  H   UNL     1       0.663  10.540  21.569  0.00  0.00    +0.000 HD
BRANCH  22  29
ATOM     26  C   UNL     1      -2.653  13.858  22.447  0.00  0.00    +0.000 A 
ATOM     27  C   UNL     1      -1.626  13.074  22.968  0.00  0.00    +0.000 A 
ATOM     28  C   UNL     1      -1.007  12.110  22.175  0.00  0.00    +0.000 A 
ATOM     29  C   UNL     1      -1.416  11.910  20.850  0.00  0.00    +0.000 A 
ATOM     30  C   UNL     1      -2.457  12.684  20.326  0.00  0.00    +0.000 A 
ATOM     31  C   UNL     1      -3.074  13.658  21.129  0.00  0.00    +0.000 A 
BRANCH  26  33
ATOM     32  C   UNL     1      -4.516  15.190  23.024  0.00  0.00    +0.000 C 
ATOM     33  O   UNL     1      -3.207  14.735  23.337  0.00  0.00    +0.000 OA
ENDBRANCH  26  33
ENDBRANCH  22  29
ENDBRANCH   1  24
TORSDOF 6
ENDMDL
