MODEL 1
REMARK VINA RESULT:      -6.8      0.000      0.000
REMARK  Name = 
REMARK  1 active torsions:
REMARK  status: ('A' for Active; 'I' for Inactive)
REMARK    1  A    between atoms: C_1  and  N_2
REMARK                            x       y       z     vdW  Elec       q    Type
REMARK                         _______ _______ _______ _____ _____    ______ ____
ROOT
ATOM      1  C   UNL     1       2.494   2.913  21.517  0.00  0.00    +0.000 C 
ATOM      2  N   UNL     1       2.551   3.345  20.121  0.00  0.00    +0.000 NA
ATOM      3  C   UNL     1       3.205   2.313  19.283  0.00  0.00    +0.000 C 
ATOM      4  C   UNL     1       3.326   2.738  17.797  0.00  0.00    +0.000 C 
ATOM      5  N   UNL     1       4.012   4.024  17.713  0.00  0.00    +0.000 N 
ATOM      6  C   UNL     1       4.867   4.364  16.695  0.00  0.00    +0.000 A 
ATOM      7  C   UNL     1       4.788   3.790  15.427  0.00  0.00    +0.000 A 
ATOM      8  C   UNL     1       5.730   4.112  14.437  0.00  0.00    +0.000 A 
ATOM      9  C   UNL     1       5.670   3.575  13.138  0.00  0.00    +0.000 A 
ATOM     10  C   UNL     1       6.638   3.902  12.187  0.00  0.00    +0.000 A 
ATOM     11  C   UNL     1       7.680   4.765  12.518  0.00  0.00    +0.000 A 
ATOM     12  C   UNL     1       7.749   5.314  13.799  0.00  0.00    +0.000 A 
ATOM     13  C   UNL     1       6.770   5.000  14.757  0.00  0.00    +0.000 A 
ATOM     14  C   UNL     1       6.766   5.536  16.040  0.00  0.00    +0.000 A 
ATOM     15  N   UNL     1       5.840   5.255  16.986  0.00  0.00    +0.000 NA
ATOM     16  C   UNL     1       3.461   5.095  18.547  0.00  0.00    +0.000 C 
ATOM     17  C   UNL     1       3.314   4.612  20.008  0.00  0.00    +0.000 C 
ENDROOT
TORSDOF 0
ENDMDL
MODEL 2
REMARK VINA RESULT:      -6.6      4.079      5.494
REMARK  Name = 
REMARK  1 active torsions:
REMARK  status: ('A' for Active; 'I' for Inactive)
REMARK    1  A    between atoms: C_1  and  N_2
REMARK                            x       y       z     vdW  Elec       q    Type
REMARK                         _______ _______ _______ _____ _____    ______ ____
ROOT
ATOM      1  C   UNL     1      -1.161  11.062  20.149  0.00  0.00    +0.000 C 
ATOM      2  N   UNL     1       0.170  10.499  19.935  0.00  0.00    +0.000 NA
ATOM      3  C   UNL     1       0.428  10.308  18.488  0.00  0.00    +0.000 C 
ATOM      4  C   UNL     1       1.814   9.676  18.206  0.00  0.00    +0.000 C 
ATOM      5  N   UNL     1       1.941   8.427  18.951  0.00  0.00    +0.000 N 
ATOM      6  C   UNL     1       2.613   7.327  18.483  0.00  0.00    +0.000 A 
ATOM      7  C   UNL     1       3.641   7.419  17.545  0.00  0.00    +0.000 A 
ATOM      8  C   UNL     1       4.251   6.261  17.036  0.00  0.00    +0.000 A 
ATOM      9  C   UNL     1       5.307   6.313  16.109  0.00  0.00    +0.000 A 
ATOM     10  C   UNL     1       5.875   5.140  15.609  0.00  0.00    +0.000 A 
ATOM     11  C   UNL     1       5.394   3.900  16.023  0.00  0.00    +0.000 A 
ATOM     12  C   UNL     1       4.353   3.831  16.950  0.00  0.00    +0.000 A 
ATOM     13  C   UNL     1       3.787   5.008  17.468  0.00  0.00    +0.000 A 
ATOM     14  C   UNL     1       2.768   5.007  18.414  0.00  0.00    +0.000 A 
ATOM     15  N   UNL     1       2.202   6.121  18.932  0.00  0.00    +0.000 NA
ATOM     16  C   UNL     1       1.658   8.511  20.387  0.00  0.00    +0.000 C 
ATOM     17  C   UNL     1       0.289   9.190  20.621  0.00  0.00    +0.000 C 
ENDROOT
TORSDOF 0
ENDMDL
MODEL 3
REMARK VINA RESULT:      -6.6      3.873      7.399
REMARK  Name = 
REMARK  1 active torsions:
REMARK  status: ('A' for Active; 'I' for Inactive)
REMARK    1  A    between atoms: C_1  and  N_2
REMARK                            x       y       z     vdW  Elec       q    Type
REMARK                         _______ _______ _______ _____ _____    ______ ____
ROOT
ATOM      1  C   UNL     1       5.654   3.642  15.260  0.00  0.00    +0.000 C 
ATOM      2  N   UNL     1       5.399   4.507  16.410  0.00  0.00    +0.000 NA
ATOM      3  C   UNL     1       4.112   4.154  17.052  0.00  0.00    +0.000 C 
ATOM      4  C   UNL     1       3.773   5.068  18.257  0.00  0.00    +0.000 C 
ATOM      5  N   UNL     1       3.806   6.465  17.833  0.00  0.00    +0.000 N 
ATOM      6  C   UNL     1       2.964   7.429  18.325  0.00  0.00    +0.000 A 
ATOM      7  C   UNL     1       2.372   7.335  19.585  0.00  0.00    +0.000 A 
ATOM      8  C   UNL     1       1.457   8.307  20.019  0.00  0.00    +0.000 A 
ATOM      9  C   UNL     1       0.858   8.262  21.291  0.00  0.00    +0.000 A 
ATOM     10  C   UNL     1      -0.065   9.236  21.679  0.00  0.00    +0.000 A 
ATOM     11  C   UNL     1      -0.405  10.264  20.804  0.00  0.00    +0.000 A 
ATOM     12  C   UNL     1       0.188  10.330  19.542  0.00  0.00    +0.000 A 
ATOM     13  C   UNL     1       1.127   9.360  19.150  0.00  0.00    +0.000 A 
ATOM     14  C   UNL     1       1.774   9.386  17.919  0.00  0.00    +0.000 A 
ATOM     15  N   UNL     1       2.681   8.469  17.511  0.00  0.00    +0.000 NA
ATOM     16  C   UNL     1       5.027   6.893  17.145  0.00  0.00    +0.000 C 
ATOM     17  C   UNL     1       5.351   5.927  15.983  0.00  0.00    +0.000 C 
ENDROOT
TORSDOF 0
ENDMDL
MODEL 4
REMARK VINA RESULT:      -6.6      4.229      7.552
REMARK  Name = 
REMARK  1 active torsions:
REMARK  status: ('A' for Active; 'I' for Inactive)
REMARK    1  A    between atoms: C_1  and  N_2
REMARK                            x       y       z     vdW  Elec       q    Type
REMARK                         _______ _______ _______ _____ _____    ______ ____
ROOT
ATOM      1  C   UNL     1       3.674   1.712  18.599  0.00  0.00    +0.000 C 
ATOM      2  N   UNL     1       3.636   2.948  19.378  0.00  0.00    +0.000 NA
ATOM      3  C   UNL     1       2.261   3.220  19.858  0.00  0.00    +0.000 C 
ATOM      4  C   UNL     1       2.156   4.542  20.658  0.00  0.00    +0.000 C 
ATOM      5  N   UNL     1       2.680   5.642  19.854  0.00  0.00    +0.000 N 
ATOM      6  C   UNL     1       2.170   6.915  19.882  0.00  0.00    +0.000 A 
ATOM      7  C   UNL     1       1.489   7.425  20.987  0.00  0.00    +0.000 A 
ATOM      8  C   UNL     1       0.917   8.707  20.945  0.00  0.00    +0.000 A 
ATOM      9  C   UNL     1       0.246   9.267  22.046  0.00  0.00    +0.000 A 
ATOM     10  C   UNL     1      -0.329  10.537  21.960  0.00  0.00    +0.000 A 
ATOM     11  C   UNL     1      -0.245  11.262  20.774  0.00  0.00    +0.000 A 
ATOM     12  C   UNL     1       0.427  10.725  19.675  0.00  0.00    +0.000 A 
ATOM     13  C   UNL     1       1.019   9.454  19.760  0.00  0.00    +0.000 A 
ATOM     14  C   UNL     1       1.726   8.875  18.711  0.00  0.00    +0.000 A 
ATOM     15  N   UNL     1       2.307   7.655  18.760  0.00  0.00    +0.000 NA
ATOM     16  C   UNL     1       4.021   5.441  19.297  0.00  0.00    +0.000 C 
ATOM     17  C   UNL     1       4.091   4.091  18.549  0.00  0.00    +0.000 C 
ENDROOT
TORSDOF 0
ENDMDL
MODEL 5
REMARK VINA RESULT:      -6.5      1.435      6.510
REMARK  Name = 
REMARK  1 active torsions:
REMARK  status: ('A' for Active; 'I' for Inactive)
REMARK    1  A    between atoms: C_1  and  N_2
REMARK                            x       y       z     vdW  Elec       q    Type
REMARK                         _______ _______ _______ _____ _____    ______ ____
ROOT
ATOM      1  C   UNL     1       7.940   5.519  13.134  0.00  0.00    +0.000 C 
ATOM      2  N   UNL     1       7.542   4.863  14.378  0.00  0.00    +0.000 NA
ATOM      3  C   UNL     1       6.220   4.212  14.223  0.00  0.00    +0.000 C 
ATOM      4  C   UNL     1       5.731   3.533  15.528  0.00  0.00    +0.000 C 
ATOM      5  N   UNL     1       5.735   4.507  16.615  0.00  0.00    +0.000 N 
ATOM      6  C   UNL     1       4.806   4.524  17.625  0.00  0.00    +0.000 A 
ATOM      7  C   UNL     1       4.108   3.383  18.020  0.00  0.00    +0.000 A 
ATOM      8  C   UNL     1       3.112   3.460  19.007  0.00  0.00    +0.000 A 
ATOM      9  C   UNL     1       2.404   2.330  19.451  0.00  0.00    +0.000 A 
ATOM     10  C   UNL     1       1.405   2.449  20.419  0.00  0.00    +0.000 A 
ATOM     11  C   UNL     1       1.096   3.698  20.953  0.00  0.00    +0.000 A 
ATOM     12  C   UNL     1       1.796   4.828  20.531  0.00  0.00    +0.000 A 
ATOM     13  C   UNL     1       2.813   4.713  19.567  0.00  0.00    +0.000 A 
ATOM     14  C   UNL     1       3.566   5.796  19.126  0.00  0.00    +0.000 A 
ATOM     15  N   UNL     1       4.549   5.719  18.200  0.00  0.00    +0.000 NA
ATOM     16  C   UNL     1       6.991   5.236  16.813  0.00  0.00    +0.000 C 
ATOM     17  C   UNL     1       7.464   5.855  15.478  0.00  0.00    +0.000 C 
ENDROOT
TORSDOF 0
ENDMDL
MODEL 6
REMARK VINA RESULT:      -6.4      4.793      8.317
REMARK  Name = 
REMARK  1 active torsions:
REMARK  status: ('A' for Active; 'I' for Inactive)
REMARK    1  A    between atoms: C_1  and  N_2
REMARK                            x       y       z     vdW  Elec       q    Type
REMARK                         _______ _______ _______ _____ _____    ______ ____
ROOT
ATOM      1  C   UNL     1       3.700   3.117  17.327  0.00  0.00    +0.000 C 
ATOM      2  N   UNL     1       3.645   4.148  18.361  0.00  0.00    +0.000 NA
ATOM      3  C   UNL     1       2.342   4.111  19.065  0.00  0.00    +0.000 C 
ATOM      4  C   UNL     1       2.215   5.211  20.148  0.00  0.00    +0.000 C 
ATOM      5  N   UNL     1       2.475   6.517  19.549  0.00  0.00    +0.000 N 
ATOM      6  C   UNL     1       1.833   7.669  19.929  0.00  0.00    +0.000 A 
ATOM      7  C   UNL     1       1.284   7.836  21.199  0.00  0.00    +0.000 A 
ATOM      8  C   UNL     1       0.569   9.002  21.521  0.00  0.00    +0.000 A 
ATOM      9  C   UNL     1       0.022   9.220  22.798  0.00  0.00    +0.000 A 
ATOM     10  C   UNL     1      -0.701  10.383  23.075  0.00  0.00    +0.000 A 
ATOM     11  C   UNL     1      -0.890  11.340  22.081  0.00  0.00    +0.000 A 
ATOM     12  C   UNL     1      -0.345  11.144  20.812  0.00  0.00    +0.000 A 
ATOM     13  C   UNL     1       0.395   9.982  20.531  0.00  0.00    +0.000 A 
ATOM     14  C   UNL     1       0.988   9.741  19.296  0.00  0.00    +0.000 A 
ATOM     15  N   UNL     1       1.705   8.635  18.993  0.00  0.00    +0.000 NA
ATOM     16  C   UNL     1       3.724   6.633  18.792  0.00  0.00    +0.000 C 
ATOM     17  C   UNL     1       3.828   5.490  17.757  0.00  0.00    +0.000 C 
ENDROOT
TORSDOF 0
ENDMDL
MODEL 7
REMARK VINA RESULT:      -6.3      4.438      6.628
REMARK  Name = 
REMARK  1 active torsions:
REMARK  status: ('A' for Active; 'I' for Inactive)
REMARK    1  A    between atoms: C_1  and  N_2
REMARK                            x       y       z     vdW  Elec       q    Type
REMARK                         _______ _______ _______ _____ _____    ______ ____
ROOT
ATOM      1  C   UNL     1      -1.236  11.602  21.787  0.00  0.00    +0.000 C 
ATOM      2  N   UNL     1      -0.026  10.882  21.394  0.00  0.00    +0.000 NA
ATOM      3  C   UNL     1      -0.131  10.414  19.992  0.00  0.00    +0.000 C 
ATOM      4  C   UNL     1       1.112   9.609  19.535  0.00  0.00    +0.000 C 
ATOM      5  N   UNL     1       1.346   8.505  20.462  0.00  0.00    +0.000 N 
ATOM      6  C   UNL     1       1.827   7.279  20.079  0.00  0.00    +0.000 A 
ATOM      7  C   UNL     1       2.605   7.103  18.935  0.00  0.00    +0.000 A 
ATOM      8  C   UNL     1       3.013   5.820  18.539  0.00  0.00    +0.000 A 
ATOM      9  C   UNL     1       3.820   5.603  17.407  0.00  0.00    +0.000 A 
ATOM     10  C   UNL     1       4.188   4.309  17.031  0.00  0.00    +0.000 A 
ATOM     11  C   UNL     1       3.754   3.216  17.776  0.00  0.00    +0.000 A 
ATOM     12  C   UNL     1       2.961   3.414  18.908  0.00  0.00    +0.000 A 
ATOM     13  C   UNL     1       2.599   4.714  19.299  0.00  0.00    +0.000 A 
ATOM     14  C   UNL     1       1.836   4.980  20.431  0.00  0.00    +0.000 A 
ATOM     15  N   UNL     1       1.470   6.218  20.835  0.00  0.00    +0.000 NA
ATOM     16  C   UNL     1       1.417   8.869  21.880  0.00  0.00    +0.000 C 
ATOM     17  C   UNL     1       0.183   9.709  22.278  0.00  0.00    +0.000 C 
ENDROOT
TORSDOF 0
ENDMDL
MODEL 8
REMARK VINA RESULT:      -6.2      4.213      7.548
REMARK  Name = 
REMARK  1 active torsions:
REMARK  status: ('A' for Active; 'I' for Inactive)
REMARK    1  A    between atoms: C_1  and  N_2
REMARK                            x       y       z     vdW  Elec       q    Type
REMARK                         _______ _______ _______ _____ _____    ______ ____
ROOT
ATOM      1  C   UNL     1       7.020   4.423  17.072  0.00  0.00    +0.000 C 
ATOM      2  N   UNL     1       5.693   5.028  16.976  0.00  0.00    +0.000 NA
ATOM      3  C   UNL     1       5.789   6.505  17.025  0.00  0.00    +0.000 C 
ATOM      4  C   UNL     1       4.404   7.198  16.965  0.00  0.00    +0.000 C 
ATOM      5  N   UNL     1       3.550   6.672  18.027  0.00  0.00    +0.000 N 
ATOM      6  C   UNL     1       2.629   7.427  18.706  0.00  0.00    +0.000 A 
ATOM      7  C   UNL     1       2.045   8.569  18.157  0.00  0.00    +0.000 A 
ATOM      8  C   UNL     1       1.163   9.355  18.915  0.00  0.00    +0.000 A 
ATOM      9  C   UNL     1       0.534  10.499  18.391  0.00  0.00    +0.000 A 
ATOM     10  C   UNL     1      -0.321  11.269  19.182  0.00  0.00    +0.000 A 
ATOM     11  C   UNL     1      -0.557  10.911  20.507  0.00  0.00    +0.000 A 
ATOM     12  C   UNL     1       0.051   9.773  21.040  0.00  0.00    +0.000 A 
ATOM     13  C   UNL     1       0.901   8.986  20.245  0.00  0.00    +0.000 A 
ATOM     14  C   UNL     1       1.514   7.827  20.708  0.00  0.00    +0.000 A 
ATOM     15  N   UNL     1       2.338   7.048  19.970  0.00  0.00    +0.000 NA
ATOM     16  C   UNL     1       3.433   5.212  18.085  0.00  0.00    +0.000 C 
ATOM     17  C   UNL     1       4.836   4.564  18.095  0.00  0.00    +0.000 C 
ENDROOT
TORSDOF 0
ENDMDL
MODEL 9
REMARK VINA RESULT:      -6.2      1.534      6.733
REMARK  Name = 
REMARK  1 active torsions:
REMARK  status: ('A' for Active; 'I' for Inactive)
REMARK    1  A    between atoms: C_1  and  N_2
REMARK                            x       y       z     vdW  Elec       q    Type
REMARK                         _______ _______ _______ _____ _____    ______ ____
ROOT
ATOM      1  C   UNL     1       7.118   5.121  13.101  0.00  0.00    +0.000 C 
ATOM      2  N   UNL     1       6.816   5.173  14.530  0.00  0.00    +0.000 NA
ATOM      3  C   UNL     1       6.556   3.812  15.057  0.00  0.00    +0.000 C 
ATOM      4  C   UNL     1       6.191   3.814  16.563  0.00  0.00    +0.000 C 
ATOM      5  N   UNL     1       5.063   4.712  16.791  0.00  0.00    +0.000 N 
ATOM      6  C   UNL     1       4.082   4.480  17.722  0.00  0.00    +0.000 A 
ATOM      7  C   UNL     1       4.297   3.700  18.858  0.00  0.00    +0.000 A 
ATOM      8  C   UNL     1       3.245   3.426  19.747  0.00  0.00    +0.000 A 
ATOM      9  C   UNL     1       3.426   2.666  20.915  0.00  0.00    +0.000 A 
ATOM     10  C   UNL     1       2.350   2.396  21.764  0.00  0.00    +0.000 A 
ATOM     11  C   UNL     1       1.080   2.878  21.457  0.00  0.00    +0.000 A 
ATOM     12  C   UNL     1       0.885   3.643  20.306  0.00  0.00    +0.000 A 
ATOM     13  C   UNL     1       1.966   3.929  19.455  0.00  0.00    +0.000 A 
ATOM     14  C   UNL     1       1.844   4.709  18.310  0.00  0.00    +0.000 A 
ATOM     15  N   UNL     1       2.862   5.003  17.470  0.00  0.00    +0.000 NA
ATOM     16  C   UNL     1       5.212   6.070  16.260  0.00  0.00    +0.000 C 
ATOM     17  C   UNL     1       5.621   6.018  14.771  0.00  0.00    +0.000 C 
ENDROOT
TORSDOF 0
ENDMDL
