MODEL 1
REMARK VINA RESULT:      -5.9      0.000      0.000
REMARK  Name = 
REMARK  10 active torsions:
REMARK  status: ('A' for Active; 'I' for Inactive)
REMARK    1  A    between atoms: C_1  and  C_2
REMARK    2  A    between atoms: C_2  and  C_3
REMARK    3  A    between atoms: C_3  and  O_4
REMARK    4  A    between atoms: O_4  and  C_5
REMARK    5  A    between atoms: C_8  and  C_9
REMARK    6  A    between atoms: N_10  and  N_11
REMARK    7  A    between atoms: N_11  and  C_12
REMARK    8  A    between atoms: C_12  and  C_13
REMARK    9  A    between atoms: C_13  and  C_14
REMARK   10  A    between atoms: C_16  and  S_18
REMARK                            x       y       z     vdW  Elec       q    Type
REMARK                         _______ _______ _______ _____ _____    ______ ____
ROOT
ATOM      1  C   UNL     1       3.097   6.315  18.830  0.00  0.00    +0.000 C 
ATOM      2  N   UNL     1       2.635   5.308  18.143  0.00  0.00    +0.000 NA
ENDROOT
BRANCH   1   6
ATOM      3  C   UNL     1       0.887   9.980  19.043  0.00  0.00    +0.000 A 
ATOM      4  C   UNL     1       1.573   9.617  17.877  0.00  0.00    +0.000 A 
ATOM      5  C   UNL     1       2.313   8.437  17.817  0.00  0.00    +0.000 A 
ATOM      6  C   UNL     1       2.377   7.601  18.926  0.00  0.00    +0.000 A 
ATOM      7  C   UNL     1       1.722   7.960  20.110  0.00  0.00    +0.000 A 
ATOM      8  C   UNL     1       0.985   9.151  20.165  0.00  0.00    +0.000 A 
BRANCH   3   9
ATOM      9  O   UNL     1       0.098  11.099  19.171  0.00  0.00    +0.000 OA
BRANCH   9  10
ATOM     10  C   UNL     1      -1.306  10.836  19.105  0.00  0.00    +0.000 C 
BRANCH  10  12
ATOM     11  C   UNL     1      -2.967   9.757  17.599  0.00  0.00    +0.000 C 
ATOM     12  C   UNL     1      -1.792  10.726  17.667  0.00  0.00    +0.000 C 
ENDBRANCH  10  12
ENDBRANCH   9  10
ENDBRANCH   3   9
ENDBRANCH   1   6
BRANCH   2  13
ATOM     13  N   UNL     1       3.411   4.158  18.157  0.00  0.00    +0.000 N 
ATOM     14  C   UNL     1       3.078   3.040  18.920  0.00  0.00    +0.000 C 
ATOM     15  N   UNL     1       2.362   3.097  19.996  0.00  0.00    +0.000 NA
ATOM     16  H   UNL     1       2.179   4.095  20.153  0.00  0.00    +0.000 HD
BRANCH  14  17
ATOM     17  S   UNL     1       3.592   1.442  18.413  0.00  0.00    +0.000 S 
ATOM     18  H   UNL     1       2.498   1.120  17.718  0.00  0.00    +0.000 HD
ENDBRANCH  14  17
BRANCH  13  19
ATOM     19  C   UNL     1       4.810   4.306  17.671  0.00  0.00    +0.000 C 
BRANCH  19  20
ATOM     20  C   UNL     1       5.035   4.301  16.157  0.00  0.00    +0.000 C 
BRANCH  20  21
ATOM     21  C   UNL     1       6.334   4.992  15.777  0.00  0.00    +0.000 C 
ATOM     22  N   UNL     1       7.413   5.564  15.462  0.00  0.00    +0.000 NA
ENDBRANCH  20  21
ENDBRANCH  19  20
ENDBRANCH  13  19
ENDBRANCH   2  13
TORSDOF 9
ENDMDL
MODEL 2
REMARK VINA RESULT:      -5.8      1.239      1.239
REMARK  Name = 
REMARK  10 active torsions:
REMARK  status: ('A' for Active; 'I' for Inactive)
REMARK    1  A    between atoms: C_1  and  C_2
REMARK    2  A    between atoms: C_2  and  C_3
REMARK    3  A    between atoms: C_3  and  O_4
REMARK    4  A    between atoms: O_4  and  C_5
REMARK    5  A    between atoms: C_8  and  C_9
REMARK    6  A    between atoms: N_10  and  N_11
REMARK    7  A    between atoms: N_11  and  C_12
REMARK    8  A    between atoms: C_12  and  C_13
REMARK    9  A    between atoms: C_13  and  C_14
REMARK   10  A    between atoms: C_16  and  S_18
REMARK                            x       y       z     vdW  Elec       q    Type
REMARK                         _______ _______ _______ _____ _____    ______ ____
ROOT
ATOM      1  C   UNL     1       2.715   6.495  19.465  0.00  0.00    +0.000 C 
ATOM      2  N   UNL     1       2.789   5.747  18.399  0.00  0.00    +0.000 NA
ENDROOT
BRANCH   1   6
ATOM      3  C   UNL     1       0.605  10.223  19.398  0.00  0.00    +0.000 A 
ATOM      4  C   UNL     1       1.302   9.768  18.272  0.00  0.00    +0.000 A 
ATOM      5  C   UNL     1       2.010   8.568  18.302  0.00  0.00    +0.000 A 
ATOM      6  C   UNL     1       2.030   7.802  19.463  0.00  0.00    +0.000 A 
ATOM      7  C   UNL     1       1.363   8.254  20.608  0.00  0.00    +0.000 A 
ATOM      8  C   UNL     1       0.659   9.466  20.573  0.00  0.00    +0.000 A 
BRANCH   3   9
ATOM      9  O   UNL     1      -0.155  11.369  19.438  0.00  0.00    +0.000 OA
BRANCH   9  10
ATOM     10  C   UNL     1      -1.043  11.521  18.327  0.00  0.00    +0.000 C 
BRANCH  10  12
ATOM     11  C   UNL     1      -2.275   9.946  16.847  0.00  0.00    +0.000 C 
ATOM     12  C   UNL     1      -2.088  10.414  18.285  0.00  0.00    +0.000 C 
ENDBRANCH  10  12
ENDBRANCH   9  10
ENDBRANCH   3   9
ENDBRANCH   1   6
BRANCH   2  13
ATOM     13  N   UNL     1       3.451   4.536  18.553  0.00  0.00    +0.000 N 
ATOM     14  C   UNL     1       2.776   3.318  18.610  0.00  0.00    +0.000 C 
ATOM     15  N   UNL     1       1.548   3.198  19.000  0.00  0.00    +0.000 NA
ATOM     16  H   UNL     1       1.257   4.140  19.288  0.00  0.00    +0.000 HD
BRANCH  14  17
ATOM     17  S   UNL     1       3.573   1.845  18.091  0.00  0.00    +0.000 S 
ATOM     18  H   UNL     1       2.737   0.981  18.672  0.00  0.00    +0.000 HD
ENDBRANCH  14  17
BRANCH  13  19
ATOM     19  C   UNL     1       4.843   4.612  19.073  0.00  0.00    +0.000 C 
BRANCH  19  20
ATOM     20  C   UNL     1       5.823   5.527  18.333  0.00  0.00    +0.000 C 
BRANCH  20  21
ATOM     21  C   UNL     1       7.126   4.815  18.010  0.00  0.00    +0.000 C 
ATOM     22  N   UNL     1       8.207   4.224  17.741  0.00  0.00    +0.000 NA
ENDBRANCH  20  21
ENDBRANCH  19  20
ENDBRANCH  13  19
ENDBRANCH   2  13
TORSDOF 9
ENDMDL
MODEL 3
REMARK VINA RESULT:      -5.7      4.312      8.016
REMARK  Name = 
REMARK  10 active torsions:
REMARK  status: ('A' for Active; 'I' for Inactive)
REMARK    1  A    between atoms: C_1  and  C_2
REMARK    2  A    between atoms: C_2  and  C_3
REMARK    3  A    between atoms: C_3  and  O_4
REMARK    4  A    between atoms: O_4  and  C_5
REMARK    5  A    between atoms: C_8  and  C_9
REMARK    6  A    between atoms: N_10  and  N_11
REMARK    7  A    between atoms: N_11  and  C_12
REMARK    8  A    between atoms: C_12  and  C_13
REMARK    9  A    between atoms: C_13  and  C_14
REMARK   10  A    between atoms: C_16  and  S_18
REMARK                            x       y       z     vdW  Elec       q    Type
REMARK                         _______ _______ _______ _____ _____    ______ ____
ROOT
ATOM      1  C   UNL     1       2.919   7.300  18.632  0.00  0.00    +0.000 C 
ATOM      2  N   UNL     1       2.068   8.146  18.122  0.00  0.00    +0.000 NA
ENDROOT
BRANCH   1   6
ATOM      3  C   UNL     1       4.972   4.506  16.115  0.00  0.00    +0.000 A 
ATOM      4  C   UNL     1       3.935   4.090  16.959  0.00  0.00    +0.000 A 
ATOM      5  C   UNL     1       3.285   4.995  17.796  0.00  0.00    +0.000 A 
ATOM      6  C   UNL     1       3.664   6.333  17.801  0.00  0.00    +0.000 A 
ATOM      7  C   UNL     1       4.717   6.762  16.986  0.00  0.00    +0.000 A 
ATOM      8  C   UNL     1       5.372   5.846  16.151  0.00  0.00    +0.000 A 
BRANCH   3   9
ATOM      9  O   UNL     1       5.632   3.690  15.226  0.00  0.00    +0.000 OA
BRANCH   9  10
ATOM     10  C   UNL     1       6.627   4.360  14.446  0.00  0.00    +0.000 C 
BRANCH  10  12
ATOM     11  C   UNL     1       5.185   3.439  12.639  0.00  0.00    +0.000 C 
ATOM     12  C   UNL     1       6.588   3.923  12.988  0.00  0.00    +0.000 C 
ENDBRANCH  10  12
ENDBRANCH   9  10
ENDBRANCH   3   9
ENDBRANCH   1   6
BRANCH   2  13
ATOM     13  N   UNL     1       1.455   9.006  19.022  0.00  0.00    +0.000 N 
ATOM     14  C   UNL     1       1.144  10.327  18.701  0.00  0.00    +0.000 C 
ATOM     15  N   UNL     1       1.776  11.011  17.803  0.00  0.00    +0.000 NA
ATOM     16  H   UNL     1       2.531  10.400  17.471  0.00  0.00    +0.000 HD
BRANCH  14  17
ATOM     17  S   UNL     1      -0.194  11.134  19.494  0.00  0.00    +0.000 S 
ATOM     18  H   UNL     1      -1.173  10.633  18.736  0.00  0.00    +0.000 HD
ENDBRANCH  14  17
BRANCH  13  19
ATOM     19  C   UNL     1       1.521   8.610  20.455  0.00  0.00    +0.000 C 
BRANCH  19  20
ATOM     20  C   UNL     1       0.194   8.407  21.192  0.00  0.00    +0.000 C 
BRANCH  20  21
ATOM     21  C   UNL     1       0.170   9.141  22.523  0.00  0.00    +0.000 C 
ATOM     22  N   UNL     1       0.151   9.750  23.626  0.00  0.00    +0.000 NA
ENDBRANCH  20  21
ENDBRANCH  19  20
ENDBRANCH  13  19
ENDBRANCH   2  13
TORSDOF 9
ENDMDL
MODEL 4
REMARK VINA RESULT:      -5.7      0.794      1.088
REMARK  Name = 
REMARK  10 active torsions:
REMARK  status: ('A' for Active; 'I' for Inactive)
REMARK    1  A    between atoms: C_1  and  C_2
REMARK    2  A    between atoms: C_2  and  C_3
REMARK    3  A    between atoms: C_3  and  O_4
REMARK    4  A    between atoms: O_4  and  C_5
REMARK    5  A    between atoms: C_8  and  C_9
REMARK    6  A    between atoms: N_10  and  N_11
REMARK    7  A    between atoms: N_11  and  C_12
REMARK    8  A    between atoms: C_12  and  C_13
REMARK    9  A    between atoms: C_13  and  C_14
REMARK   10  A    between atoms: C_16  and  S_18
REMARK                            x       y       z     vdW  Elec       q    Type
REMARK                         _______ _______ _______ _____ _____    ______ ____
ROOT
ATOM      1  C   UNL     1       2.991   6.344  19.098  0.00  0.00    +0.000 C 
ATOM      2  N   UNL     1       2.473   5.306  18.503  0.00  0.00    +0.000 NA
ENDROOT
BRANCH   1   6
ATOM      3  C   UNL     1       0.720   9.954  19.505  0.00  0.00    +0.000 A 
ATOM      4  C   UNL     1       1.363   9.638  18.302  0.00  0.00    +0.000 A 
ATOM      5  C   UNL     1       2.123   8.476  18.178  0.00  0.00    +0.000 A 
ATOM      6  C   UNL     1       2.250   7.611  19.260  0.00  0.00    +0.000 A 
ATOM      7  C   UNL     1       1.639   7.924  20.479  0.00  0.00    +0.000 A 
ATOM      8  C   UNL     1       0.882   9.098  20.599  0.00  0.00    +0.000 A 
BRANCH   3   9
ATOM      9  O   UNL     1      -0.085  11.053  19.697  0.00  0.00    +0.000 OA
BRANCH   9  10
ATOM     10  C   UNL     1      -1.364  10.959  19.065  0.00  0.00    +0.000 C 
BRANCH  10  12
ATOM     11  C   UNL     1      -0.573  13.169  18.241  0.00  0.00    +0.000 C 
ATOM     12  C   UNL     1      -1.540  12.019  17.987  0.00  0.00    +0.000 C 
ENDBRANCH  10  12
ENDBRANCH   9  10
ENDBRANCH   3   9
ENDBRANCH   1   6
BRANCH   2  13
ATOM     13  N   UNL     1       3.280   4.179  18.439  0.00  0.00    +0.000 N 
ATOM     14  C   UNL     1       2.948   2.985  19.078  0.00  0.00    +0.000 C 
ATOM     15  N   UNL     1       2.189   2.920  20.123  0.00  0.00    +0.000 NA
ATOM     16  H   UNL     1       1.972   3.894  20.367  0.00  0.00    +0.000 HD
BRANCH  14  17
ATOM     17  S   UNL     1       3.526   1.457  18.442  0.00  0.00    +0.000 S 
ATOM     18  H   UNL     1       3.858   0.897  19.608  0.00  0.00    +0.000 HD
ENDBRANCH  14  17
BRANCH  13  19
ATOM     19  C   UNL     1       4.692   4.406  18.028  0.00  0.00    +0.000 C 
BRANCH  19  20
ATOM     20  C   UNL     1       4.994   4.438  16.528  0.00  0.00    +0.000 C 
BRANCH  20  21
ATOM     21  C   UNL     1       6.486   4.521  16.254  0.00  0.00    +0.000 C 
ATOM     22  N   UNL     1       7.724   4.590  16.026  0.00  0.00    +0.000 NA
ENDBRANCH  20  21
ENDBRANCH  19  20
ENDBRANCH  13  19
ENDBRANCH   2  13
TORSDOF 9
ENDMDL
MODEL 5
REMARK VINA RESULT:      -5.7      0.746      1.356
REMARK  Name = 
REMARK  10 active torsions:
REMARK  status: ('A' for Active; 'I' for Inactive)
REMARK    1  A    between atoms: C_1  and  C_2
REMARK    2  A    between atoms: C_2  and  C_3
REMARK    3  A    between atoms: C_3  and  O_4
REMARK    4  A    between atoms: O_4  and  C_5
REMARK    5  A    between atoms: C_8  and  C_9
REMARK    6  A    between atoms: N_10  and  N_11
REMARK    7  A    between atoms: N_11  and  C_12
REMARK    8  A    between atoms: C_12  and  C_13
REMARK    9  A    between atoms: C_13  and  C_14
REMARK   10  A    between atoms: C_16  and  S_18
REMARK                            x       y       z     vdW  Elec       q    Type
REMARK                         _______ _______ _______ _____ _____    ______ ____
ROOT
ATOM      1  C   UNL     1       2.833   6.146  18.549  0.00  0.00    +0.000 C 
ATOM      2  N   UNL     1       3.399   5.434  19.484  0.00  0.00    +0.000 NA
ENDROOT
BRANCH   1   6
ATOM      3  C   UNL     1       1.189  10.010  19.400  0.00  0.00    +0.000 A 
ATOM      4  C   UNL     1       1.235   9.014  20.382  0.00  0.00    +0.000 A 
ATOM      5  C   UNL     1       1.746   7.748  20.098  0.00  0.00    +0.000 A 
ATOM      6  C   UNL     1       2.221   7.462  18.823  0.00  0.00    +0.000 A 
ATOM      7  C   UNL     1       2.157   8.435  17.819  0.00  0.00    +0.000 A 
ATOM      8  C   UNL     1       1.635   9.704  18.110  0.00  0.00    +0.000 A 
BRANCH   3   9
ATOM      9  O   UNL     1       0.745  11.295  19.609  0.00  0.00    +0.000 OA
BRANCH   9  10
ATOM     10  C   UNL     1      -0.276  11.716  18.700  0.00  0.00    +0.000 C 
BRANCH  10  12
ATOM     11  C   UNL     1      -2.086  10.177  17.962  0.00  0.00    +0.000 C 
ATOM     12  C   UNL     1      -1.632  11.127  19.063  0.00  0.00    +0.000 C 
ENDBRANCH  10  12
ENDBRANCH   9  10
ENDBRANCH   3   9
ENDBRANCH   1   6
BRANCH   2  13
ATOM     13  N   UNL     1       3.946   4.225  19.077  0.00  0.00    +0.000 N 
ATOM     14  C   UNL     1       3.511   3.000  19.581  0.00  0.00    +0.000 C 
ATOM     15  N   UNL     1       2.957   2.861  20.742  0.00  0.00    +0.000 NA
ATOM     16  H   UNL     1       2.982   3.793  21.173  0.00  0.00    +0.000 HD
BRANCH  14  17
ATOM     17  S   UNL     1       3.655   1.548  18.610  0.00  0.00    +0.000 S 
ATOM     18  H   UNL     1       4.045   2.135  17.475  0.00  0.00    +0.000 HD
ENDBRANCH  14  17
BRANCH  13  19
ATOM     19  C   UNL     1       5.277   4.299  18.415  0.00  0.00    +0.000 C 
BRANCH  19  20
ATOM     20  C   UNL     1       5.306   4.267  16.885  0.00  0.00    +0.000 C 
BRANCH  20  21
ATOM     21  C   UNL     1       6.459   5.084  16.325  0.00  0.00    +0.000 C 
ATOM     22  N   UNL     1       7.414   5.763  15.860  0.00  0.00    +0.000 NA
ENDBRANCH  20  21
ENDBRANCH  19  20
ENDBRANCH  13  19
ENDBRANCH   2  13
TORSDOF 9
ENDMDL
MODEL 6
REMARK VINA RESULT:      -5.7      1.458      1.915
REMARK  Name = 
REMARK  10 active torsions:
REMARK  status: ('A' for Active; 'I' for Inactive)
REMARK    1  A    between atoms: C_1  and  C_2
REMARK    2  A    between atoms: C_2  and  C_3
REMARK    3  A    between atoms: C_3  and  O_4
REMARK    4  A    between atoms: O_4  and  C_5
REMARK    5  A    between atoms: C_8  and  C_9
REMARK    6  A    between atoms: N_10  and  N_11
REMARK    7  A    between atoms: N_11  and  C_12
REMARK    8  A    between atoms: C_12  and  C_13
REMARK    9  A    between atoms: C_13  and  C_14
REMARK   10  A    between atoms: C_16  and  S_18
REMARK                            x       y       z     vdW  Elec       q    Type
REMARK                         _______ _______ _______ _____ _____    ______ ____
ROOT
ATOM      1  C   UNL     1       2.706   6.170  18.559  0.00  0.00    +0.000 C 
ATOM      2  N   UNL     1       3.704   5.640  19.211  0.00  0.00    +0.000 NA
ENDROOT
BRANCH   1   6
ATOM      3  C   UNL     1       1.016  10.001  19.464  0.00  0.00    +0.000 A 
ATOM      4  C   UNL     1       1.469   9.699  18.175  0.00  0.00    +0.000 A 
ATOM      5  C   UNL     1       2.043   8.462  17.887  0.00  0.00    +0.000 A 
ATOM      6  C   UNL     1       2.171   7.506  18.888  0.00  0.00    +0.000 A 
ATOM      7  C   UNL     1       1.750   7.799  20.191  0.00  0.00    +0.000 A 
ATOM      8  C   UNL     1       1.181   9.049  20.475  0.00  0.00    +0.000 A 
BRANCH   3   9
ATOM      9  O   UNL     1       0.398  11.177  19.821  0.00  0.00    +0.000 OA
BRANCH   9  10
ATOM     10  C   UNL     1      -0.791  11.000  20.597  0.00  0.00    +0.000 C 
BRANCH  10  12
ATOM     11  C   UNL     1      -1.035  10.742  23.059  0.00  0.00    +0.000 C 
ATOM     12  C   UNL     1      -0.702  11.717  21.937  0.00  0.00    +0.000 C 
ENDBRANCH  10  12
ENDBRANCH   9  10
ENDBRANCH   3   9
ENDBRANCH   1   6
BRANCH   2  13
ATOM     13  N   UNL     1       4.111   4.385  18.780  0.00  0.00    +0.000 N 
ATOM     14  C   UNL     1       3.549   3.208  19.270  0.00  0.00    +0.000 C 
ATOM     15  N   UNL     1       2.995   3.111  20.436  0.00  0.00    +0.000 NA
ATOM     16  H   UNL     1       3.126   4.028  20.880  0.00  0.00    +0.000 HD
BRANCH  14  17
ATOM     17  S   UNL     1       3.523   1.764  18.277  0.00  0.00    +0.000 S 
ATOM     18  H   UNL     1       3.779   0.881  19.246  0.00  0.00    +0.000 HD
ENDBRANCH  14  17
BRANCH  13  19
ATOM     19  C   UNL     1       5.435   4.323  18.103  0.00  0.00    +0.000 C 
BRANCH  19  20
ATOM     20  C   UNL     1       5.585   5.072  16.776  0.00  0.00    +0.000 C 
BRANCH  20  21
ATOM     21  C   UNL     1       6.516   6.266  16.905  0.00  0.00    +0.000 C 
ATOM     22  N   UNL     1       7.288   7.257  17.012  0.00  0.00    +0.000 NA
ENDBRANCH  20  21
ENDBRANCH  19  20
ENDBRANCH  13  19
ENDBRANCH   2  13
TORSDOF 9
ENDMDL
MODEL 7
REMARK VINA RESULT:      -5.6      2.229      3.657
REMARK  Name = 
REMARK  10 active torsions:
REMARK  status: ('A' for Active; 'I' for Inactive)
REMARK    1  A    between atoms: C_1  and  C_2
REMARK    2  A    between atoms: C_2  and  C_3
REMARK    3  A    between atoms: C_3  and  O_4
REMARK    4  A    between atoms: O_4  and  C_5
REMARK    5  A    between atoms: C_8  and  C_9
REMARK    6  A    between atoms: N_10  and  N_11
REMARK    7  A    between atoms: N_11  and  C_12
REMARK    8  A    between atoms: C_12  and  C_13
REMARK    9  A    between atoms: C_13  and  C_14
REMARK   10  A    between atoms: C_16  and  S_18
REMARK                            x       y       z     vdW  Elec       q    Type
REMARK                         _______ _______ _______ _____ _____    ______ ____
ROOT
ATOM      1  C   UNL     1       3.090   6.555  18.091  0.00  0.00    +0.000 C 
ATOM      2  N   UNL     1       4.393   6.495  18.103  0.00  0.00    +0.000 NA
ENDROOT
BRANCH   1   6
ATOM      3  C   UNL     1       0.791   9.478  20.220  0.00  0.00    +0.000 A 
ATOM      4  C   UNL     1       1.146   9.675  18.880  0.00  0.00    +0.000 A 
ATOM      5  C   UNL     1       1.916   8.736  18.195  0.00  0.00    +0.000 A 
ATOM      6  C   UNL     1       2.343   7.582  18.844  0.00  0.00    +0.000 A 
ATOM      7  C   UNL     1       2.023   7.380  20.192  0.00  0.00    +0.000 A 
ATOM      8  C   UNL     1       1.254   8.332  20.876  0.00  0.00    +0.000 A 
BRANCH   3   9
ATOM      9  O   UNL     1      -0.002  10.329  20.954  0.00  0.00    +0.000 OA
BRANCH   9  10
ATOM     10  C   UNL     1      -0.177   9.935  22.318  0.00  0.00    +0.000 C 
BRANCH  10  12
ATOM     11  C   UNL     1      -1.122  12.236  22.395  0.00  0.00    +0.000 C 
ATOM     12  C   UNL     1      -1.137  10.861  23.052  0.00  0.00    +0.000 C 
ENDBRANCH  10  12
ENDBRANCH   9  10
ENDBRANCH   3   9
ENDBRANCH   1   6
BRANCH   2  13
ATOM     13  N   UNL     1       4.959   5.486  17.336  0.00  0.00    +0.000 N 
ATOM     14  C   UNL     1       5.518   5.725  16.081  0.00  0.00    +0.000 C 
ATOM     15  N   UNL     1       5.167   6.710  15.319  0.00  0.00    +0.000 NA
ATOM     16  H   UNL     1       4.399   7.181  15.812  0.00  0.00    +0.000 HD
BRANCH  14  17
ATOM     17  S   UNL     1       6.801   4.695  15.477  0.00  0.00    +0.000 S 
ATOM     18  H   UNL     1       7.562   5.656  14.949  0.00  0.00    +0.000 HD
ENDBRANCH  14  17
BRANCH  13  19
ATOM     19  C   UNL     1       4.581   4.094  17.701  0.00  0.00    +0.000 C 
BRANCH  19  20
ATOM     20  C   UNL     1       3.550   3.389  16.815  0.00  0.00    +0.000 C 
BRANCH  20  21
ATOM     21  C   UNL     1       2.307   2.997  17.598  0.00  0.00    +0.000 C 
ATOM     22  N   UNL     1       1.277   2.671  18.247  0.00  0.00    +0.000 NA
ENDBRANCH  20  21
ENDBRANCH  19  20
ENDBRANCH  13  19
ENDBRANCH   2  13
TORSDOF 9
ENDMDL
MODEL 8
REMARK VINA RESULT:      -5.6      2.159      3.620
REMARK  Name = 
REMARK  10 active torsions:
REMARK  status: ('A' for Active; 'I' for Inactive)
REMARK    1  A    between atoms: C_1  and  C_2
REMARK    2  A    between atoms: C_2  and  C_3
REMARK    3  A    between atoms: C_3  and  O_4
REMARK    4  A    between atoms: O_4  and  C_5
REMARK    5  A    between atoms: C_8  and  C_9
REMARK    6  A    between atoms: N_10  and  N_11
REMARK    7  A    between atoms: N_11  and  C_12
REMARK    8  A    between atoms: C_12  and  C_13
REMARK    9  A    between atoms: C_13  and  C_14
REMARK   10  A    between atoms: C_16  and  S_18
REMARK                            x       y       z     vdW  Elec       q    Type
REMARK                         _______ _______ _______ _____ _____    ______ ____
ROOT
ATOM      1  C   UNL     1       3.196   6.926  17.897  0.00  0.00    +0.000 C 
ATOM      2  N   UNL     1       4.010   6.145  18.549  0.00  0.00    +0.000 NA
ENDROOT
BRANCH   1   6
ATOM      3  C   UNL     1       0.610   9.662  19.944  0.00  0.00    +0.000 A 
ATOM      4  C   UNL     1       1.177   8.569  20.610  0.00  0.00    +0.000 A 
ATOM      5  C   UNL     1       1.997   7.665  19.938  0.00  0.00    +0.000 A 
ATOM      6  C   UNL     1       2.264   7.842  18.585  0.00  0.00    +0.000 A 
ATOM      7  C   UNL     1       1.683   8.912  17.894  0.00  0.00    +0.000 A 
ATOM      8  C   UNL     1       0.853   9.814  18.575  0.00  0.00    +0.000 A 
BRANCH   3   9
ATOM      9  O   UNL     1      -0.170  10.624  20.541  0.00  0.00    +0.000 OA
BRANCH   9  10
ATOM     10  C   UNL     1       0.215  10.941  21.882  0.00  0.00    +0.000 C 
BRANCH  10  12
ATOM     11  C   UNL     1      -1.860  11.685  23.035  0.00  0.00    +0.000 C 
ATOM     12  C   UNL     1      -0.859  10.545  22.885  0.00  0.00    +0.000 C 
ENDBRANCH  10  12
ENDBRANCH   9  10
ENDBRANCH   3   9
ENDBRANCH   1   6
BRANCH   2  13
ATOM     13  N   UNL     1       4.840   5.350  17.770  0.00  0.00    +0.000 N 
ATOM     14  C   UNL     1       6.063   5.803  17.278  0.00  0.00    +0.000 C 
ATOM     15  N   UNL     1       6.331   7.051  17.068  0.00  0.00    +0.000 NA
ATOM     16  H   UNL     1       5.463   7.559  17.281  0.00  0.00    +0.000 HD
BRANCH  14  17
ATOM     17  S   UNL     1       7.358   4.667  16.955  0.00  0.00    +0.000 S 
ATOM     18  H   UNL     1       6.762   4.001  15.962  0.00  0.00    +0.000 HD
ENDBRANCH  14  17
BRANCH  13  19
ATOM     19  C   UNL     1       4.204   4.165  17.134  0.00  0.00    +0.000 C 
BRANCH  19  20
ATOM     20  C   UNL     1       3.346   3.262  18.024  0.00  0.00    +0.000 C 
BRANCH  20  21
ATOM     21  C   UNL     1       4.143   2.692  19.185  0.00  0.00    +0.000 C 
ATOM     22  N   UNL     1       4.804   2.219  20.149  0.00  0.00    +0.000 NA
ENDBRANCH  20  21
ENDBRANCH  19  20
ENDBRANCH  13  19
ENDBRANCH   2  13
TORSDOF 9
ENDMDL
MODEL 9
REMARK VINA RESULT:      -5.6      1.004      1.103
REMARK  Name = 
REMARK  10 active torsions:
REMARK  status: ('A' for Active; 'I' for Inactive)
REMARK    1  A    between atoms: C_1  and  C_2
REMARK    2  A    between atoms: C_2  and  C_3
REMARK    3  A    between atoms: C_3  and  O_4
REMARK    4  A    between atoms: O_4  and  C_5
REMARK    5  A    between atoms: C_8  and  C_9
REMARK    6  A    between atoms: N_10  and  N_11
REMARK    7  A    between atoms: N_11  and  C_12
REMARK    8  A    between atoms: C_12  and  C_13
REMARK    9  A    between atoms: C_13  and  C_14
REMARK   10  A    between atoms: C_16  and  S_18
REMARK                            x       y       z     vdW  Elec       q    Type
REMARK                         _______ _______ _______ _____ _____    ______ ____
ROOT
ATOM      1  C   UNL     1       2.827   6.097  18.570  0.00  0.00    +0.000 C 
ATOM      2  N   UNL     1       3.834   5.603  19.235  0.00  0.00    +0.000 NA
ENDROOT
BRANCH   1   6
ATOM      3  C   UNL     1       1.182   9.995  19.246  0.00  0.00    +0.000 A 
ATOM      4  C   UNL     1       1.728   9.648  18.005  0.00  0.00    +0.000 A 
ATOM      5  C   UNL     1       2.287   8.388  17.793  0.00  0.00    +0.000 A 
ATOM      6  C   UNL     1       2.306   7.455  18.824  0.00  0.00    +0.000 A 
ATOM      7  C   UNL     1       1.790   7.793  20.081  0.00  0.00    +0.000 A 
ATOM      8  C   UNL     1       1.237   9.064  20.288  0.00  0.00    +0.000 A 
BRANCH   3   9
ATOM      9  O   UNL     1       0.571  11.196  19.524  0.00  0.00    +0.000 OA
BRANCH   9  10
ATOM     10  C   UNL     1      -0.739  11.069  20.085  0.00  0.00    +0.000 C 
BRANCH  10  12
ATOM     11  C   UNL     1      -1.357  12.219  17.967  0.00  0.00    +0.000 C 
ATOM     12  C   UNL     1      -1.822  11.227  19.026  0.00  0.00    +0.000 C 
ENDBRANCH  10  12
ENDBRANCH   9  10
ENDBRANCH   3   9
ENDBRANCH   1   6
BRANCH   2  13
ATOM     13  N   UNL     1       4.225   4.320  18.877  0.00  0.00    +0.000 N 
ATOM     14  C   UNL     1       3.564   3.181  19.336  0.00  0.00    +0.000 C 
ATOM     15  N   UNL     1       2.892   3.142  20.441  0.00  0.00    +0.000 NA
ATOM     16  H   UNL     1       3.019   4.064  20.874  0.00  0.00    +0.000 HD
BRANCH  14  17
ATOM     17  S   UNL     1       3.572   1.713  18.379  0.00  0.00    +0.000 S 
ATOM     18  H   UNL     1       4.741   1.912  17.764  0.00  0.00    +0.000 HD
ENDBRANCH  14  17
BRANCH  13  19
ATOM     19  C   UNL     1       5.606   4.182  18.340  0.00  0.00    +0.000 C 
BRANCH  19  20
ATOM     20  C   UNL     1       5.823   4.514  16.861  0.00  0.00    +0.000 C 
BRANCH  20  21
ATOM     21  C   UNL     1       6.707   5.737  16.681  0.00  0.00    +0.000 C 
ATOM     22  N   UNL     1       7.439   6.753  16.531  0.00  0.00    +0.000 NA
ENDBRANCH  20  21
ENDBRANCH  19  20
ENDBRANCH  13  19
ENDBRANCH   2  13
TORSDOF 9
ENDMDL
