MODEL 1
REMARK VINA RESULT:      -7.2      0.000      0.000
REMARK  Name = 
REMARK  4 active torsions:
REMARK  status: ('A' for Active; 'I' for Inactive)
REMARK    1  A    between atoms: C_1  and  C_2
REMARK    2  A    between atoms: C_2  and  C_3
REMARK    3  A    between atoms: C_4  and  C_5
REMARK    4  A    between atoms: N_19  and  O_20
REMARK                            x       y       z     vdW  Elec       q    Type
REMARK                         _______ _______ _______ _____ _____    ______ ____
ROOT
ATOM      1  C   UNL     1       2.450   4.512  19.925  0.00  0.00    +0.000 C 
ATOM      2  C   UNL     1       2.583   4.837  18.426  0.00  0.00    +0.000 C 
ATOM      3  C   UNL     1       1.211   4.679  17.757  0.00  0.00    +0.000 C 
ATOM      4  C   UNL     1       3.147   6.259  18.222  0.00  0.00    +0.000 C 
ATOM      5  N   UNL     1       4.403   6.142  17.810  0.00  0.00    +0.000 N 
ATOM      6  O   UNL     1       5.172   7.127  17.584  0.00  0.00    +0.000 OA
ATOM      7  C   UNL     1       4.838   4.735  17.702  0.00  0.00    +0.000 C 
ATOM      8  C   UNL     1       5.770   4.439  18.892  0.00  0.00    +0.000 C 
ATOM      9  C   UNL     1       7.153   5.073  18.777  0.00  0.00    +0.000 C 
ATOM     10  C   UNL     1       7.819   4.668  17.471  0.00  0.00    +0.000 C 
ATOM     11  C   UNL     1       6.989   5.066  16.261  0.00  0.00    +0.000 C 
ATOM     12  C   UNL     1       5.564   4.548  16.363  0.00  0.00    +0.000 C 
ATOM     13  O   UNL     1       5.036   4.020  15.379  0.00  0.00    +0.000 OA
ATOM     14  N   UNL     1       3.563   3.977  17.704  0.00  0.00    +0.000 NA
ENDROOT
BRANCH   4  15
ATOM     15  C   UNL     1       2.400   7.462  18.474  0.00  0.00    +0.000 A 
ATOM     16  C   UNL     1       2.040   8.463  17.593  0.00  0.00    +0.000 A 
ATOM     17  C   UNL     1       1.309   9.509  18.223  0.00  0.00    +0.000 A 
ATOM     18  C   UNL     1       1.131   9.275  19.563  0.00  0.00    +0.000 A 
ATOM     19  S   UNL     1       1.848   7.810  20.057  0.00  0.00    +0.000 S 
ENDBRANCH   4  15
BRANCH  14  20
ATOM     20  O   UNL     1       3.717   2.681  18.316  0.00  0.00    +0.000 OA
ATOM     21  H   UNL     1       4.186   2.187  17.612  0.00  0.00    +0.000 HD
ENDBRANCH  14  20
TORSDOF 2
ENDMDL
MODEL 2
REMARK VINA RESULT:      -6.9      0.823      1.043
REMARK  Name = 
REMARK  4 active torsions:
REMARK  status: ('A' for Active; 'I' for Inactive)
REMARK    1  A    between atoms: C_1  and  C_2
REMARK    2  A    between atoms: C_2  and  C_3
REMARK    3  A    between atoms: C_4  and  C_5
REMARK    4  A    between atoms: N_19  and  O_20
REMARK                            x       y       z     vdW  Elec       q    Type
REMARK                         _______ _______ _______ _____ _____    ______ ____
ROOT
ATOM      1  C   UNL     1       2.841   4.041  19.819  0.00  0.00    +0.000 C 
ATOM      2  C   UNL     1       2.769   4.568  18.375  0.00  0.00    +0.000 C 
ATOM      3  C   UNL     1       1.326   4.439  17.867  0.00  0.00    +0.000 C 
ATOM      4  C   UNL     1       3.261   6.029  18.299  0.00  0.00    +0.000 C 
ATOM      5  N   UNL     1       4.456   6.026  17.721  0.00  0.00    +0.000 N 
ATOM      6  O   UNL     1       5.161   7.066  17.538  0.00  0.00    +0.000 OA
ATOM      7  C   UNL     1       4.912   4.667  17.367  0.00  0.00    +0.000 C 
ATOM      8  C   UNL     1       5.999   4.258  18.379  0.00  0.00    +0.000 C 
ATOM      9  C   UNL     1       7.337   4.964  18.180  0.00  0.00    +0.000 C 
ATOM     10  C   UNL     1       7.838   4.766  16.757  0.00  0.00    +0.000 C 
ATOM     11  C   UNL     1       6.847   5.283  15.727  0.00  0.00    +0.000 C 
ATOM     12  C   UNL     1       5.462   4.692  15.935  0.00  0.00    +0.000 C 
ATOM     13  O   UNL     1       4.826   4.277  14.961  0.00  0.00    +0.000 OA
ATOM     14  N   UNL     1       3.670   3.858  17.424  0.00  0.00    +0.000 NA
ENDROOT
BRANCH   4  15
ATOM     15  C   UNL     1       2.520   7.153  18.807  0.00  0.00    +0.000 A 
ATOM     16  C   UNL     1       2.054   7.379  20.087  0.00  0.00    +0.000 A 
ATOM     17  C   UNL     1       1.346   8.609  20.201  0.00  0.00    +0.000 A 
ATOM     18  C   UNL     1       1.295   9.285  19.008  0.00  0.00    +0.000 A 
ATOM     19  S   UNL     1       2.088   8.437  17.760  0.00  0.00    +0.000 S 
ENDBRANCH   4  15
BRANCH  14  20
ATOM     20  O   UNL     1       3.939   2.500  17.827  0.00  0.00    +0.000 OA
ATOM     21  H   UNL     1       3.119   2.046  17.545  0.00  0.00    +0.000 HD
ENDBRANCH  14  20
TORSDOF 2
ENDMDL
MODEL 3
REMARK VINA RESULT:      -6.6      2.721      3.340
REMARK  Name = 
REMARK  4 active torsions:
REMARK  status: ('A' for Active; 'I' for Inactive)
REMARK    1  A    between atoms: C_1  and  C_2
REMARK    2  A    between atoms: C_2  and  C_3
REMARK    3  A    between atoms: C_4  and  C_5
REMARK    4  A    between atoms: N_19  and  O_20
REMARK                            x       y       z     vdW  Elec       q    Type
REMARK                         _______ _______ _______ _____ _____    ______ ____
ROOT
ATOM      1  C   UNL     1       4.683   1.948  17.770  0.00  0.00    +0.000 C 
ATOM      2  C   UNL     1       4.039   3.276  17.334  0.00  0.00    +0.000 C 
ATOM      3  C   UNL     1       2.754   2.976  16.551  0.00  0.00    +0.000 C 
ATOM      4  C   UNL     1       3.754   4.175  18.556  0.00  0.00    +0.000 C 
ATOM      5  N   UNL     1       4.640   5.164  18.549  0.00  0.00    +0.000 N 
ATOM      6  O   UNL     1       4.709   6.064  19.442  0.00  0.00    +0.000 OA
ATOM      7  C   UNL     1       5.585   5.072  17.419  0.00  0.00    +0.000 C 
ATOM      8  C   UNL     1       6.937   4.589  17.976  0.00  0.00    +0.000 C 
ATOM      9  C   UNL     1       7.699   5.643  18.773  0.00  0.00    +0.000 C 
ATOM     10  C   UNL     1       7.889   6.905  17.945  0.00  0.00    +0.000 C 
ATOM     11  C   UNL     1       6.563   7.491  17.487  0.00  0.00    +0.000 C 
ATOM     12  C   UNL     1       5.710   6.457  16.771  0.00  0.00    +0.000 C 
ATOM     13  O   UNL     1       5.138   6.763  15.720  0.00  0.00    +0.000 OA
ATOM     14  N   UNL     1       4.921   4.128  16.486  0.00  0.00    +0.000 NA
ENDROOT
BRANCH   4  15
ATOM     15  C   UNL     1       2.713   3.919  19.515  0.00  0.00    +0.000 A 
ATOM     16  C   UNL     1       1.446   4.466  19.589  0.00  0.00    +0.000 A 
ATOM     17  C   UNL     1       0.701   3.970  20.696  0.00  0.00    +0.000 A 
ATOM     18  C   UNL     1       1.417   3.060  21.431  0.00  0.00    +0.000 A 
ATOM     19  S   UNL     1       2.980   2.814  20.795  0.00  0.00    +0.000 S 
ENDBRANCH   4  15
BRANCH  14  20
ATOM     20  O   UNL     1       5.881   3.357  15.738  0.00  0.00    +0.000 OA
ATOM     21  H   UNL     1       5.498   3.387  14.838  0.00  0.00    +0.000 HD
ENDBRANCH  14  20
TORSDOF 2
ENDMDL
MODEL 4
REMARK VINA RESULT:      -6.4      2.027      3.951
REMARK  Name = 
REMARK  4 active torsions:
REMARK  status: ('A' for Active; 'I' for Inactive)
REMARK    1  A    between atoms: C_1  and  C_2
REMARK    2  A    between atoms: C_2  and  C_3
REMARK    3  A    between atoms: C_4  and  C_5
REMARK    4  A    between atoms: N_19  and  O_20
REMARK                            x       y       z     vdW  Elec       q    Type
REMARK                         _______ _______ _______ _____ _____    ______ ____
ROOT
ATOM      1  C   UNL     1       1.845   5.926  17.592  0.00  0.00    +0.000 C 
ATOM      2  C   UNL     1       3.016   6.071  18.580  0.00  0.00    +0.000 C 
ATOM      3  C   UNL     1       2.594   7.006  19.722  0.00  0.00    +0.000 C 
ATOM      4  C   UNL     1       3.454   4.692  19.117  0.00  0.00    +0.000 C 
ATOM      5  N   UNL     1       4.612   4.382  18.546  0.00  0.00    +0.000 N 
ATOM      6  O   UNL     1       5.232   3.292  18.741  0.00  0.00    +0.000 OA
ATOM      7  C   UNL     1       5.076   5.420  17.604  0.00  0.00    +0.000 C 
ATOM      8  C   UNL     1       4.848   4.892  16.175  0.00  0.00    +0.000 C 
ATOM      9  C   UNL     1       5.824   3.800  15.748  0.00  0.00    +0.000 C 
ATOM     10  C   UNL     1       7.260   4.272  15.914  0.00  0.00    +0.000 C 
ATOM     11  C   UNL     1       7.565   4.677  17.348  0.00  0.00    +0.000 C 
ATOM     12  C   UNL     1       6.562   5.693  17.869  0.00  0.00    +0.000 C 
ATOM     13  O   UNL     1       6.965   6.678  18.495  0.00  0.00    +0.000 OA
ATOM     14  N   UNL     1       4.265   6.608  17.968  0.00  0.00    +0.000 NA
ENDROOT
BRANCH   4  15
ATOM     15  C   UNL     1       2.686   3.914  20.052  0.00  0.00    +0.000 A 
ATOM     16  C   UNL     1       2.647   4.002  21.430  0.00  0.00    +0.000 A 
ATOM     17  C   UNL     1       1.770   3.046  22.014  0.00  0.00    +0.000 A 
ATOM     18  C   UNL     1       1.164   2.260  21.068  0.00  0.00    +0.000 A 
ATOM     19  S   UNL     1       1.659   2.667  19.488  0.00  0.00    +0.000 S 
ENDBRANCH   4  15
BRANCH  14  20
ATOM     20  O   UNL     1       4.003   7.443  16.822  0.00  0.00    +0.000 OA
ATOM     21  H   UNL     1       4.523   6.990  16.127  0.00  0.00    +0.000 HD
ENDBRANCH  14  20
TORSDOF 2
ENDMDL
MODEL 5
REMARK VINA RESULT:      -6.3      2.661      3.632
REMARK  Name = 
REMARK  4 active torsions:
REMARK  status: ('A' for Active; 'I' for Inactive)
REMARK    1  A    between atoms: C_1  and  C_2
REMARK    2  A    between atoms: C_2  and  C_3
REMARK    3  A    between atoms: C_4  and  C_5
REMARK    4  A    between atoms: N_19  and  O_20
REMARK                            x       y       z     vdW  Elec       q    Type
REMARK                         _______ _______ _______ _____ _____    ______ ____
ROOT
ATOM      1  C   UNL     1       4.584   1.925  17.532  0.00  0.00    +0.000 C 
ATOM      2  C   UNL     1       3.882   3.291  17.427  0.00  0.00    +0.000 C 
ATOM      3  C   UNL     1       2.467   3.085  16.871  0.00  0.00    +0.000 C 
ATOM      4  C   UNL     1       3.849   3.997  18.799  0.00  0.00    +0.000 C 
ATOM      5  N   UNL     1       4.727   4.991  18.766  0.00  0.00    +0.000 N 
ATOM      6  O   UNL     1       4.978   5.753  19.750  0.00  0.00    +0.000 OA
ATOM      7  C   UNL     1       5.435   5.081  17.473  0.00  0.00    +0.000 C 
ATOM      8  C   UNL     1       6.864   4.546  17.682  0.00  0.00    +0.000 C 
ATOM      9  C   UNL     1       7.777   5.486  18.463  0.00  0.00    +0.000 C 
ATOM     10  C   UNL     1       7.818   6.858  17.807  0.00  0.00    +0.000 C 
ATOM     11  C   UNL     1       6.435   7.482  17.704  0.00  0.00    +0.000 C 
ATOM     12  C   UNL     1       5.448   6.548  17.022  0.00  0.00    +0.000 C 
ATOM     13  O   UNL     1       4.687   6.994  16.158  0.00  0.00    +0.000 OA
ATOM     14  N   UNL     1       4.593   4.272  16.558  0.00  0.00    +0.000 NA
ENDROOT
BRANCH   4  15
ATOM     15  C   UNL     1       3.010   3.586  19.892  0.00  0.00    +0.000 A 
ATOM     16  C   UNL     1       3.229   2.600  20.834  0.00  0.00    +0.000 A 
ATOM     17  C   UNL     1       2.154   2.477  21.758  0.00  0.00    +0.000 A 
ATOM     18  C   UNL     1       1.148   3.373  21.497  0.00  0.00    +0.000 A 
ATOM     19  S   UNL     1       1.496   4.347  20.142  0.00  0.00    +0.000 S 
ENDBRANCH   4  15
BRANCH  14  20
ATOM     20  O   UNL     1       5.382   3.635  15.535  0.00  0.00    +0.000 OA
ATOM     21  H   UNL     1       5.516   2.743  15.917  0.00  0.00    +0.000 HD
ENDBRANCH  14  20
TORSDOF 2
ENDMDL
MODEL 6
REMARK VINA RESULT:      -6.0      1.891      3.942
REMARK  Name = 
REMARK  4 active torsions:
REMARK  status: ('A' for Active; 'I' for Inactive)
REMARK    1  A    between atoms: C_1  and  C_2
REMARK    2  A    between atoms: C_2  and  C_3
REMARK    3  A    between atoms: C_4  and  C_5
REMARK    4  A    between atoms: N_19  and  O_20
REMARK                            x       y       z     vdW  Elec       q    Type
REMARK                         _______ _______ _______ _____ _____    ______ ____
ROOT
ATOM      1  C   UNL     1       2.188   6.787  17.538  0.00  0.00    +0.000 C 
ATOM      2  C   UNL     1       3.310   6.228  18.431  0.00  0.00    +0.000 C 
ATOM      3  C   UNL     1       3.052   6.653  19.883  0.00  0.00    +0.000 C 
ATOM      4  C   UNL     1       3.400   4.693  18.303  0.00  0.00    +0.000 C 
ATOM      5  N   UNL     1       4.485   4.406  17.596  0.00  0.00    +0.000 N 
ATOM      6  O   UNL     1       4.834   3.229  17.273  0.00  0.00    +0.000 OA
ATOM      7  C   UNL     1       5.218   5.614  17.165  0.00  0.00    +0.000 C 
ATOM      8  C   UNL     1       4.950   5.814  15.661  0.00  0.00    +0.000 C 
ATOM      9  C   UNL     1       5.675   4.821  14.759  0.00  0.00    +0.000 C 
ATOM     10  C   UNL     1       7.171   4.841  15.036  0.00  0.00    +0.000 C 
ATOM     11  C   UNL     1       7.486   4.514  16.487  0.00  0.00    +0.000 C 
ATOM     12  C   UNL     1       6.712   5.406  17.444  0.00  0.00    +0.000 C 
ATOM     13  O   UNL     1       7.294   5.910  18.410  0.00  0.00    +0.000 OA
ATOM     14  N   UNL     1       4.677   6.680  18.043  0.00  0.00    +0.000 NA
ENDROOT
BRANCH   4  15
ATOM     15  C   UNL     1       2.430   3.784  18.854  0.00  0.00    +0.000 A 
ATOM     16  C   UNL     1       1.221   3.377  18.325  0.00  0.00    +0.000 A 
ATOM     17  C   UNL     1       0.528   2.472  19.177  0.00  0.00    +0.000 A 
ATOM     18  C   UNL     1       1.228   2.213  20.328  0.00  0.00    +0.000 A 
ATOM     19  S   UNL     1       2.704   3.063  20.383  0.00  0.00    +0.000 S 
ENDBRANCH   4  15
BRANCH  14  20
ATOM     20  O   UNL     1       4.668   7.960  17.380  0.00  0.00    +0.000 OA
ATOM     21  H   UNL     1       4.172   8.509  18.021  0.00  0.00    +0.000 HD
ENDBRANCH  14  20
TORSDOF 2
ENDMDL
MODEL 7
REMARK VINA RESULT:      -6.0      2.835      5.536
REMARK  Name = 
REMARK  4 active torsions:
REMARK  status: ('A' for Active; 'I' for Inactive)
REMARK    1  A    between atoms: C_1  and  C_2
REMARK    2  A    between atoms: C_2  and  C_3
REMARK    3  A    between atoms: C_4  and  C_5
REMARK    4  A    between atoms: N_19  and  O_20
REMARK                            x       y       z     vdW  Elec       q    Type
REMARK                         _______ _______ _______ _____ _____    ______ ____
ROOT
ATOM      1  C   UNL     1       7.719   4.404  17.742  0.00  0.00    +0.000 C 
ATOM      2  C   UNL     1       6.537   5.322  17.387  0.00  0.00    +0.000 C 
ATOM      3  C   UNL     1       7.080   6.636  16.810  0.00  0.00    +0.000 C 
ATOM      4  C   UNL     1       5.580   4.626  16.396  0.00  0.00    +0.000 C 
ATOM      5  N   UNL     1       4.484   4.284  17.060  0.00  0.00    +0.000 N 
ATOM      6  O   UNL     1       3.507   3.656  16.547  0.00  0.00    +0.000 OA
ATOM      7  C   UNL     1       4.546   4.656  18.488  0.00  0.00    +0.000 C 
ATOM      8  C   UNL     1       4.787   3.368  19.299  0.00  0.00    +0.000 C 
ATOM      9  C   UNL     1       3.571   2.452  19.395  0.00  0.00    +0.000 C 
ATOM     10  C   UNL     1       2.375   3.209  19.951  0.00  0.00    +0.000 C 
ATOM     11  C   UNL     1       2.019   4.417  19.098  0.00  0.00    +0.000 C 
ATOM     12  C   UNL     1       3.220   5.322  18.879  0.00  0.00    +0.000 C 
ATOM     13  O   UNL     1       3.091   6.545  19.000  0.00  0.00    +0.000 OA
ATOM     14  N   UNL     1       5.651   5.644  18.542  0.00  0.00    +0.000 NA
ENDROOT
BRANCH   4  15
ATOM     15  C   UNL     1       5.890   4.396  15.010  0.00  0.00    +0.000 A 
ATOM     16  C   UNL     1       5.174   3.687  14.065  0.00  0.00    +0.000 A 
ATOM     17  C   UNL     1       5.813   3.670  12.794  0.00  0.00    +0.000 A 
ATOM     18  C   UNL     1       6.995   4.366  12.804  0.00  0.00    +0.000 A 
ATOM     19  S   UNL     1       7.333   5.026  14.339  0.00  0.00    +0.000 S 
ENDBRANCH   4  15
BRANCH  14  20
ATOM     20  O   UNL     1       6.347   5.593  19.803  0.00  0.00    +0.000 OA
ATOM     21  H   UNL     1       6.916   4.806  19.681  0.00  0.00    +0.000 HD
ENDBRANCH  14  20
TORSDOF 2
ENDMDL
MODEL 8
REMARK VINA RESULT:      -5.9      2.689      4.742
REMARK  Name = 
REMARK  4 active torsions:
REMARK  status: ('A' for Active; 'I' for Inactive)
REMARK    1  A    between atoms: C_1  and  C_2
REMARK    2  A    between atoms: C_2  and  C_3
REMARK    3  A    between atoms: C_4  and  C_5
REMARK    4  A    between atoms: N_19  and  O_20
REMARK                            x       y       z     vdW  Elec       q    Type
REMARK                         _______ _______ _______ _____ _____    ______ ____
ROOT
ATOM      1  C   UNL     1       4.425   5.291  15.591  0.00  0.00    +0.000 C 
ATOM      2  C   UNL     1       5.101   4.418  16.663  0.00  0.00    +0.000 C 
ATOM      3  C   UNL     1       6.377   3.802  16.075  0.00  0.00    +0.000 C 
ATOM      4  C   UNL     1       5.409   5.245  17.929  0.00  0.00    +0.000 C 
ATOM      5  N   UNL     1       4.549   4.882  18.872  0.00  0.00    +0.000 N 
ATOM      6  O   UNL     1       4.503   5.399  20.031  0.00  0.00    +0.000 OA
ATOM      7  C   UNL     1       3.600   3.850  18.408  0.00  0.00    +0.000 C 
ATOM      8  C   UNL     1       2.237   4.532  18.185  0.00  0.00    +0.000 C 
ATOM      9  C   UNL     1       1.503   4.899  19.471  0.00  0.00    +0.000 C 
ATOM     10  C   UNL     1       1.342   3.676  20.362  0.00  0.00    +0.000 C 
ATOM     11  C   UNL     1       2.682   3.051  20.717  0.00  0.00    +0.000 C 
ATOM     12  C   UNL     1       3.508   2.753  19.477  0.00  0.00    +0.000 C 
ATOM     13  O   UNL     1       4.087   1.666  19.378  0.00  0.00    +0.000 OA
ATOM     14  N   UNL     1       4.240   3.317  17.180  0.00  0.00    +0.000 NA
ENDROOT
BRANCH   4  15
ATOM     15  C   UNL     1       6.445   6.240  18.004  0.00  0.00    +0.000 A 
ATOM     16  C   UNL     1       6.575   7.416  17.291  0.00  0.00    +0.000 A 
ATOM     17  C   UNL     1       7.751   8.138  17.637  0.00  0.00    +0.000 A 
ATOM     18  C   UNL     1       8.483   7.496  18.604  0.00  0.00    +0.000 A 
ATOM     19  S   UNL     1       7.759   6.029  19.082  0.00  0.00    +0.000 S 
ENDBRANCH   4  15
BRANCH  14  20
ATOM     20  O   UNL     1       3.259   2.883  16.217  0.00  0.00    +0.000 OA
ATOM     21  H   UNL     1       2.423   3.082  16.685  0.00  0.00    +0.000 HD
ENDBRANCH  14  20
TORSDOF 2
ENDMDL
MODEL 9
REMARK VINA RESULT:      -5.9      2.848      5.621
REMARK  Name = 
REMARK  4 active torsions:
REMARK  status: ('A' for Active; 'I' for Inactive)
REMARK    1  A    between atoms: C_1  and  C_2
REMARK    2  A    between atoms: C_2  and  C_3
REMARK    3  A    between atoms: C_4  and  C_5
REMARK    4  A    between atoms: N_19  and  O_20
REMARK                            x       y       z     vdW  Elec       q    Type
REMARK                         _______ _______ _______ _____ _____    ______ ____
ROOT
ATOM      1  C   UNL     1       7.764   4.518  17.797  0.00  0.00    +0.000 C 
ATOM      2  C   UNL     1       6.666   5.482  17.313  0.00  0.00    +0.000 C 
ATOM      3  C   UNL     1       7.304   6.835  16.969  0.00  0.00    +0.000 C 
ATOM      4  C   UNL     1       5.915   4.892  16.100  0.00  0.00    +0.000 C 
ATOM      5  N   UNL     1       4.715   4.507  16.514  0.00  0.00    +0.000 N 
ATOM      6  O   UNL     1       3.853   3.942  15.772  0.00  0.00    +0.000 OA
ATOM      7  C   UNL     1       4.506   4.748  17.956  0.00  0.00    +0.000 C 
ATOM      8  C   UNL     1       4.595   3.389  18.677  0.00  0.00    +0.000 C 
ATOM      9  C   UNL     1       3.385   2.485  18.459  0.00  0.00    +0.000 C 
ATOM     10  C   UNL     1       2.103   3.206  18.848  0.00  0.00    +0.000 C 
ATOM     11  C   UNL     1       1.911   4.491  18.057  0.00  0.00    +0.000 C 
ATOM     12  C   UNL     1       3.129   5.395  18.151  0.00  0.00    +0.000 C 
ATOM     13  O   UNL     1       2.975   6.603  18.356  0.00  0.00    +0.000 OA
ATOM     14  N   UNL     1       5.579   5.711  18.306  0.00  0.00    +0.000 NA
ENDROOT
BRANCH   4  15
ATOM     15  C   UNL     1       6.480   4.783  14.782  0.00  0.00    +0.000 A 
ATOM     16  C   UNL     1       7.531   5.486  14.226  0.00  0.00    +0.000 A 
ATOM     17  C   UNL     1       7.793   5.104  12.880  0.00  0.00    +0.000 A 
ATOM     18  C   UNL     1       6.939   4.120  12.450  0.00  0.00    +0.000 A 
ATOM     19  S   UNL     1       5.824   3.670  13.659  0.00  0.00    +0.000 S 
ENDBRANCH   4  15
BRANCH  14  20
ATOM     20  O   UNL     1       6.026   5.537  19.665  0.00  0.00    +0.000 OA
ATOM     21  H   UNL     1       5.886   6.433  20.033  0.00  0.00    +0.000 HD
ENDBRANCH  14  20
TORSDOF 2
ENDMDL
