MODEL 1
REMARK VINA RESULT:      -7.5      0.000      0.000
REMARK  Name = 
REMARK  13 active torsions:
REMARK  status: ('A' for Active; 'I' for Inactive)
REMARK    1  A    between atoms: C_1  and  O_2
REMARK    2  A    between atoms: O_2  and  C_3
REMARK    3  A    between atoms: C_3  and  C_4
REMARK    4  A    between atoms: C_4  and  N_5
REMARK    5  A    between atoms: N_5  and  S_6
REMARK    6  A    between atoms: S_6  and  C_9
REMARK    7  A    between atoms: C_12  and  C_13
REMARK    8  A    between atoms: C_14  and  C_15
REMARK    9  A    between atoms: C_16  and  C_17
REMARK   10  A    between atoms: C_23  and  O_24
REMARK   11  A    between atoms: O_24  and  C_25
REMARK   12  A    between atoms: C_25  and  C_26
REMARK   13  A    between atoms: C_26  and  O_28
REMARK                            x       y       z     vdW  Elec       q    Type
REMARK                         _______ _______ _______ _____ _____    ______ ____
ROOT
ATOM      1  C   UNL     1       0.000  11.635  19.567  0.00  0.00    +0.000 A 
ATOM      2  C   UNL     1      -0.410  11.567  20.896  0.00  0.00    +0.000 A 
ATOM      3  C   UNL     1      -0.097  10.440  21.653  0.00  0.00    +0.000 A 
ATOM      4  C   UNL     1       0.643   9.381  21.097  0.00  0.00    +0.000 A 
ATOM      5  C   UNL     1       0.989   8.200  21.963  0.00  0.00    +0.000 C 
ATOM      6  C   UNL     1       1.039   9.449  19.745  0.00  0.00    +0.000 A 
ATOM      7  C   UNL     1       0.705  10.574  18.979  0.00  0.00    +0.000 A 
ENDROOT
BRANCH   1   8
ATOM      8  S   UNL     1      -0.402  13.075  18.604  0.00  0.00    +0.000 S 
ATOM      9  O   UNL     1       0.808  13.523  17.943  0.00  0.00    +0.000 OA
ATOM     10  O   UNL     1      -1.179  13.941  19.460  0.00  0.00    +0.000 OA
BRANCH   8  11
ATOM     11  N   UNL     1      -1.432  12.423  17.426  0.00  0.00    +0.000 NA
ATOM     12  H   UNL     1      -1.615  13.083  16.674  0.00  0.00    +0.000 HD
BRANCH  11  13
ATOM     13  C   UNL     1      -2.664  11.778  17.949  0.00  0.00    +0.000 C 
BRANCH  13  14
ATOM     14  C   UNL     1      -3.001  10.501  17.174  0.00  0.00    +0.000 C 
BRANCH  14  16
ATOM     15  C   UNL     1      -3.161  10.312  14.823  0.00  0.00    +0.000 C 
ATOM     16  O   UNL     1      -2.293  10.476  15.935  0.00  0.00    +0.000 OA
ENDBRANCH  14  16
ENDBRANCH  13  14
ENDBRANCH  11  13
ENDBRANCH   8  11
ENDBRANCH   1   8
BRANCH   6  17
ATOM     17  C   UNL     1       1.778   8.370  19.129  0.00  0.00    +0.000 C 
ATOM     18  C   UNL     1       2.375   7.459  18.628  0.00  0.00    +0.000 C 
BRANCH  18  19
ATOM     19  C   UNL     1       3.101   6.335  18.072  0.00  0.00    +0.000 A 
ATOM     20  C   UNL     1       4.172   6.598  17.194  0.00  0.00    +0.000 A 
ATOM     21  C   UNL     1       4.850   5.546  16.572  0.00  0.00    +0.000 A 
ATOM     22 CL   UNL     1       6.133   5.859  15.469  0.00  0.00    +0.000 Cl
ATOM     23  C   UNL     1       4.481   4.232  16.818  0.00  0.00    +0.000 A 
ATOM     24  C   UNL     1       3.441   3.968  17.701  0.00  0.00    +0.000 A 
ATOM     25  C   UNL     1       2.759   4.998  18.362  0.00  0.00    +0.000 A 
BRANCH  25  26
ATOM     26  O   UNL     1       1.773   4.720  19.287  0.00  0.00    +0.000 OA
BRANCH  26  27
ATOM     27  C   UNL     1       2.261   4.641  20.643  0.00  0.00    +0.000 C 
BRANCH  27  28
ATOM     28  C   UNL     1       1.821   3.372  21.345  0.00  0.00    +0.000 C 
ATOM     29  O   UNL     1       2.469   2.821  22.219  0.00  0.00    +0.000 OA
BRANCH  28  30
ATOM     30  O   UNL     1       0.625   2.911  20.909  0.00  0.00    +0.000 OA
ATOM     31  H   UNL     1       0.674   2.706  19.950  0.00  0.00    +0.000 HD
ENDBRANCH  28  30
ENDBRANCH  27  28
ENDBRANCH  26  27
ENDBRANCH  25  26
ENDBRANCH  18  19
ENDBRANCH   6  17
TORSDOF 11
ENDMDL
MODEL 2
REMARK VINA RESULT:      -7.2      4.651      8.133
REMARK  Name = 
REMARK  13 active torsions:
REMARK  status: ('A' for Active; 'I' for Inactive)
REMARK    1  A    between atoms: C_1  and  O_2
REMARK    2  A    between atoms: O_2  and  C_3
REMARK    3  A    between atoms: C_3  and  C_4
REMARK    4  A    between atoms: C_4  and  N_5
REMARK    5  A    between atoms: N_5  and  S_6
REMARK    6  A    between atoms: S_6  and  C_9
REMARK    7  A    between atoms: C_12  and  C_13
REMARK    8  A    between atoms: C_14  and  C_15
REMARK    9  A    between atoms: C_16  and  C_17
REMARK   10  A    between atoms: C_23  and  O_24
REMARK   11  A    between atoms: O_24  and  C_25
REMARK   12  A    between atoms: C_25  and  C_26
REMARK   13  A    between atoms: C_26  and  O_28
REMARK                            x       y       z     vdW  Elec       q    Type
REMARK                         _______ _______ _______ _____ _____    ______ ____
ROOT
ATOM      1  C   UNL     1       4.655   6.341  17.574  0.00  0.00    +0.000 A 
ATOM      2  C   UNL     1       4.746   5.426  18.620  0.00  0.00    +0.000 A 
ATOM      3  C   UNL     1       3.787   5.442  19.630  0.00  0.00    +0.000 A 
ATOM      4  C   UNL     1       2.719   6.358  19.595  0.00  0.00    +0.000 A 
ATOM      5  C   UNL     1       1.686   6.314  20.689  0.00  0.00    +0.000 C 
ATOM      6  C   UNL     1       2.643   7.292  18.543  0.00  0.00    +0.000 A 
ATOM      7  C   UNL     1       3.621   7.289  17.539  0.00  0.00    +0.000 A 
ENDROOT
BRANCH   1   8
ATOM      8  S   UNL     1       5.882   6.317  16.287  0.00  0.00    +0.000 S 
ATOM      9  O   UNL     1       7.097   6.906  16.816  0.00  0.00    +0.000 OA
ATOM     10  O   UNL     1       5.241   6.817  15.094  0.00  0.00    +0.000 OA
BRANCH   8  11
ATOM     11  N   UNL     1       6.146   4.654  16.096  0.00  0.00    +0.000 NA
ATOM     12  H   UNL     1       7.084   4.382  16.382  0.00  0.00    +0.000 HD
BRANCH  11  13
ATOM     13  C   UNL     1       5.755   4.098  14.776  0.00  0.00    +0.000 C 
BRANCH  13  14
ATOM     14  C   UNL     1       6.821   4.375  13.712  0.00  0.00    +0.000 C 
BRANCH  14  16
ATOM     15  C   UNL     1       5.258   3.440  12.204  0.00  0.00    +0.000 C 
ATOM     16  O   UNL     1       6.624   3.521  12.585  0.00  0.00    +0.000 OA
ENDBRANCH  14  16
ENDBRANCH  13  14
ENDBRANCH  11  13
ENDBRANCH   8  11
ENDBRANCH   1   8
BRANCH   6  17
ATOM     17  C   UNL     1       1.578   8.267  18.485  0.00  0.00    +0.000 C 
ATOM     18  C   UNL     1       0.700   9.084  18.459  0.00  0.00    +0.000 C 
BRANCH  18  19
ATOM     19  C   UNL     1      -0.377  10.052  18.477  0.00  0.00    +0.000 A 
ATOM     20  C   UNL     1      -1.251  10.103  17.371  0.00  0.00    +0.000 A 
ATOM     21  C   UNL     1      -2.256  11.072  17.308  0.00  0.00    +0.000 A 
ATOM     22 CL   UNL     1      -3.300  11.166  15.945  0.00  0.00    +0.000 Cl
ATOM     23  C   UNL     1      -2.408  11.990  18.336  0.00  0.00    +0.000 A 
ATOM     24  C   UNL     1      -1.565  11.928  19.439  0.00  0.00    +0.000 A 
ATOM     25  C   UNL     1      -0.566  10.952  19.547  0.00  0.00    +0.000 A 
BRANCH  25  26
ATOM     26  O   UNL     1       0.221  10.859  20.677  0.00  0.00    +0.000 OA
BRANCH  26  27
ATOM     27  C   UNL     1      -0.451  10.249  21.798  0.00  0.00    +0.000 C 
BRANCH  27  28
ATOM     28  C   UNL     1       0.516   9.647  22.797  0.00  0.00    +0.000 C 
ATOM     29  O   UNL     1       1.671   9.357  22.533  0.00  0.00    +0.000 OA
BRANCH  28  30
ATOM     30  O   UNL     1      -0.029   9.469  24.023  0.00  0.00    +0.000 OA
ATOM     31  H   UNL     1      -0.964   9.768  24.020  0.00  0.00    +0.000 HD
ENDBRANCH  28  30
ENDBRANCH  27  28
ENDBRANCH  26  27
ENDBRANCH  25  26
ENDBRANCH  18  19
ENDBRANCH   6  17
TORSDOF 11
ENDMDL
MODEL 3
REMARK VINA RESULT:      -7.1      4.601      8.189
REMARK  Name = 
REMARK  13 active torsions:
REMARK  status: ('A' for Active; 'I' for Inactive)
REMARK    1  A    between atoms: C_1  and  O_2
REMARK    2  A    between atoms: O_2  and  C_3
REMARK    3  A    between atoms: C_3  and  C_4
REMARK    4  A    between atoms: C_4  and  N_5
REMARK    5  A    between atoms: N_5  and  S_6
REMARK    6  A    between atoms: S_6  and  C_9
REMARK    7  A    between atoms: C_12  and  C_13
REMARK    8  A    between atoms: C_14  and  C_15
REMARK    9  A    between atoms: C_16  and  C_17
REMARK   10  A    between atoms: C_23  and  O_24
REMARK   11  A    between atoms: O_24  and  C_25
REMARK   12  A    between atoms: C_25  and  C_26
REMARK   13  A    between atoms: C_26  and  O_28
REMARK                            x       y       z     vdW  Elec       q    Type
REMARK                         _______ _______ _______ _____ _____    ______ ____
ROOT
ATOM      1  C   UNL     1       5.314   5.888  17.621  0.00  0.00    +0.000 A 
ATOM      2  C   UNL     1       5.104   4.658  18.241  0.00  0.00    +0.000 A 
ATOM      3  C   UNL     1       3.893   4.414  18.886  0.00  0.00    +0.000 A 
ATOM      4  C   UNL     1       2.876   5.386  18.901  0.00  0.00    +0.000 A 
ATOM      5  C   UNL     1       1.571   5.063  19.579  0.00  0.00    +0.000 C 
ATOM      6  C   UNL     1       3.102   6.634  18.286  0.00  0.00    +0.000 A 
ATOM      7  C   UNL     1       4.329   6.886  17.657  0.00  0.00    +0.000 A 
ENDROOT
BRANCH   1   8
ATOM      8  S   UNL     1       6.860   6.195  16.799  0.00  0.00    +0.000 S 
ATOM      9  O   UNL     1       7.807   5.188  17.235  0.00  0.00    +0.000 OA
ATOM     10  O   UNL     1       7.125   7.609  16.931  0.00  0.00    +0.000 OA
BRANCH   8  11
ATOM     11  N   UNL     1       6.460   5.875  15.184  0.00  0.00    +0.000 NA
ATOM     12  H   UNL     1       5.497   6.128  14.973  0.00  0.00    +0.000 HD
BRANCH  11  13
ATOM     13  C   UNL     1       6.825   4.520  14.698  0.00  0.00    +0.000 C 
BRANCH  13  14
ATOM     14  C   UNL     1       5.745   3.943  13.777  0.00  0.00    +0.000 C 
BRANCH  14  16
ATOM     15  C   UNL     1       5.389   2.768  11.757  0.00  0.00    +0.000 C 
ATOM     16  O   UNL     1       6.342   3.398  12.600  0.00  0.00    +0.000 OA
ENDBRANCH  14  16
ENDBRANCH  13  14
ENDBRANCH  11  13
ENDBRANCH   8  11
ENDBRANCH   1   8
BRANCH   6  17
ATOM     17  C   UNL     1       2.093   7.668  18.303  0.00  0.00    +0.000 C 
ATOM     18  C   UNL     1       1.264   8.534  18.296  0.00  0.00    +0.000 C 
BRANCH  18  19
ATOM     19  C   UNL     1       0.302   9.618  18.278  0.00  0.00    +0.000 A 
ATOM     20  C   UNL     1      -0.700   9.609  17.286  0.00  0.00    +0.000 A 
ATOM     21  C   UNL     1      -1.601  10.672  17.182  0.00  0.00    +0.000 A 
ATOM     22 CL   UNL     1      -2.800  10.687  15.949  0.00  0.00    +0.000 Cl
ATOM     23  C   UNL     1      -1.523  11.744  18.057  0.00  0.00    +0.000 A 
ATOM     24  C   UNL     1      -0.552  11.746  19.052  0.00  0.00    +0.000 A 
ATOM     25  C   UNL     1       0.348  10.683  19.203  0.00  0.00    +0.000 A 
BRANCH  25  26
ATOM     26  O   UNL     1       1.264  10.665  20.235  0.00  0.00    +0.000 OA
BRANCH  26  27
ATOM     27  C   UNL     1       0.665  10.827  21.538  0.00  0.00    +0.000 C 
BRANCH  27  28
ATOM     28  C   UNL     1       0.902   9.631  22.438  0.00  0.00    +0.000 C 
ATOM     29  O   UNL     1       0.542   9.577  23.602  0.00  0.00    +0.000 OA
BRANCH  28  30
ATOM     30  O   UNL     1       1.549   8.618  21.816  0.00  0.00    +0.000 OA
ATOM     31  H   UNL     1       2.293   8.974  21.283  0.00  0.00    +0.000 HD
ENDBRANCH  28  30
ENDBRANCH  27  28
ENDBRANCH  26  27
ENDBRANCH  25  26
ENDBRANCH  18  19
ENDBRANCH   6  17
TORSDOF 11
ENDMDL
MODEL 4
REMARK VINA RESULT:      -7.1      4.546      8.729
REMARK  Name = 
REMARK  13 active torsions:
REMARK  status: ('A' for Active; 'I' for Inactive)
REMARK    1  A    between atoms: C_1  and  O_2
REMARK    2  A    between atoms: O_2  and  C_3
REMARK    3  A    between atoms: C_3  and  C_4
REMARK    4  A    between atoms: C_4  and  N_5
REMARK    5  A    between atoms: N_5  and  S_6
REMARK    6  A    between atoms: S_6  and  C_9
REMARK    7  A    between atoms: C_12  and  C_13
REMARK    8  A    between atoms: C_14  and  C_15
REMARK    9  A    between atoms: C_16  and  C_17
REMARK   10  A    between atoms: C_23  and  O_24
REMARK   11  A    between atoms: O_24  and  C_25
REMARK   12  A    between atoms: C_25  and  C_26
REMARK   13  A    between atoms: C_26  and  O_28
REMARK                            x       y       z     vdW  Elec       q    Type
REMARK                         _______ _______ _______ _____ _____    ______ ____
ROOT
ATOM      1  C   UNL     1       5.217   6.005  17.668  0.00  0.00    +0.000 A 
ATOM      2  C   UNL     1       5.110   5.007  18.634  0.00  0.00    +0.000 A 
ATOM      3  C   UNL     1       4.025   5.012  19.508  0.00  0.00    +0.000 A 
ATOM      4  C   UNL     1       3.029   6.001  19.414  0.00  0.00    +0.000 A 
ATOM      5  C   UNL     1       1.857   5.945  20.356  0.00  0.00    +0.000 C 
ATOM      6  C   UNL     1       3.153   7.019  18.446  0.00  0.00    +0.000 A 
ATOM      7  C   UNL     1       4.256   7.024  17.581  0.00  0.00    +0.000 A 
ENDROOT
BRANCH   1   8
ATOM      8  S   UNL     1       6.604   5.995  16.555  0.00  0.00    +0.000 S 
ATOM      9  O   UNL     1       7.349   4.773  16.781  0.00  0.00    +0.000 OA
ATOM     10  O   UNL     1       7.216   7.300  16.646  0.00  0.00    +0.000 OA
BRANCH   8  11
ATOM     11  N   UNL     1       5.834   5.869  15.050  0.00  0.00    +0.000 NA
ATOM     12  H   UNL     1       4.950   6.373  15.032  0.00  0.00    +0.000 HD
BRANCH  11  13
ATOM     13  C   UNL     1       5.730   4.492  14.505  0.00  0.00    +0.000 C 
BRANCH  13  14
ATOM     14  C   UNL     1       6.790   4.232  13.430  0.00  0.00    +0.000 C 
BRANCH  14  16
ATOM     15  C   UNL     1       4.968   3.440  12.149  0.00  0.00    +0.000 C 
ATOM     16  O   UNL     1       6.326   3.242  12.512  0.00  0.00    +0.000 OA
ENDBRANCH  14  16
ENDBRANCH  13  14
ENDBRANCH  11  13
ENDBRANCH   8  11
ENDBRANCH   1   8
BRANCH   6  17
ATOM     17  C   UNL     1       2.165   8.068  18.335  0.00  0.00    +0.000 C 
ATOM     18  C   UNL     1       1.346   8.941  18.267  0.00  0.00    +0.000 C 
BRANCH  18  19
ATOM     19  C   UNL     1       0.326   9.968  18.222  0.00  0.00    +0.000 A 
ATOM     20  C   UNL     1      -0.912   9.658  17.623  0.00  0.00    +0.000 A 
ATOM     21  C   UNL     1      -1.898  10.639  17.486  0.00  0.00    +0.000 A 
ATOM     22 CL   UNL     1      -3.395  10.278  16.722  0.00  0.00    +0.000 Cl
ATOM     23  C   UNL     1      -1.670  11.928  17.944  0.00  0.00    +0.000 A 
ATOM     24  C   UNL     1      -0.460  12.233  18.557  0.00  0.00    +0.000 A 
ATOM     25  C   UNL     1       0.537  11.265  18.735  0.00  0.00    +0.000 A 
BRANCH  25  26
ATOM     26  O   UNL     1       1.707  11.563  19.404  0.00  0.00    +0.000 OA
BRANCH  26  27
ATOM     27  C   UNL     1       2.276  12.835  19.029  0.00  0.00    +0.000 C 
BRANCH  27  28
ATOM     28  C   UNL     1       2.659  13.677  20.230  0.00  0.00    +0.000 C 
ATOM     29  O   UNL     1       2.281  13.448  21.367  0.00  0.00    +0.000 OA
BRANCH  28  30
ATOM     30  O   UNL     1       3.474  14.710  19.915  0.00  0.00    +0.000 OA
ATOM     31  H   UNL     1       4.041  14.936  20.685  0.00  0.00    +0.000 HD
ENDBRANCH  28  30
ENDBRANCH  27  28
ENDBRANCH  26  27
ENDBRANCH  25  26
ENDBRANCH  18  19
ENDBRANCH   6  17
TORSDOF 11
ENDMDL
MODEL 5
REMARK VINA RESULT:      -7.1      4.478      8.714
REMARK  Name = 
REMARK  13 active torsions:
REMARK  status: ('A' for Active; 'I' for Inactive)
REMARK    1  A    between atoms: C_1  and  O_2
REMARK    2  A    between atoms: O_2  and  C_3
REMARK    3  A    between atoms: C_3  and  C_4
REMARK    4  A    between atoms: C_4  and  N_5
REMARK    5  A    between atoms: N_5  and  S_6
REMARK    6  A    between atoms: S_6  and  C_9
REMARK    7  A    between atoms: C_12  and  C_13
REMARK    8  A    between atoms: C_14  and  C_15
REMARK    9  A    between atoms: C_16  and  C_17
REMARK   10  A    between atoms: C_23  and  O_24
REMARK   11  A    between atoms: O_24  and  C_25
REMARK   12  A    between atoms: C_25  and  C_26
REMARK   13  A    between atoms: C_26  and  O_28
REMARK                            x       y       z     vdW  Elec       q    Type
REMARK                         _______ _______ _______ _____ _____    ______ ____
ROOT
ATOM      1  C   UNL     1       4.367   6.116  17.387  0.00  0.00    +0.000 A 
ATOM      2  C   UNL     1       4.283   5.072  18.305  0.00  0.00    +0.000 A 
ATOM      3  C   UNL     1       3.371   5.155  19.355  0.00  0.00    +0.000 A 
ATOM      4  C   UNL     1       2.524   6.270  19.487  0.00  0.00    +0.000 A 
ATOM      5  C   UNL     1       1.530   6.299  20.617  0.00  0.00    +0.000 C 
ATOM      6  C   UNL     1       2.627   7.331  18.565  0.00  0.00    +0.000 A 
ATOM      7  C   UNL     1       3.560   7.256  17.521  0.00  0.00    +0.000 A 
ENDROOT
BRANCH   1   8
ATOM      8  S   UNL     1       5.532   6.007  16.048  0.00  0.00    +0.000 S 
ATOM      9  O   UNL     1       6.865   5.975  16.617  0.00  0.00    +0.000 OA
ATOM     10  O   UNL     1       5.135   6.993  15.071  0.00  0.00    +0.000 OA
BRANCH   8  11
ATOM     11  N   UNL     1       5.192   4.468  15.423  0.00  0.00    +0.000 NA
ATOM     12  H   UNL     1       4.741   3.870  16.112  0.00  0.00    +0.000 HD
BRANCH  11  13
ATOM     13  C   UNL     1       6.322   3.804  14.725  0.00  0.00    +0.000 C 
BRANCH  13  14
ATOM     14  C   UNL     1       6.340   4.147  13.232  0.00  0.00    +0.000 C 
BRANCH  14  16
ATOM     15  C   UNL     1       4.807   3.228  11.686  0.00  0.00    +0.000 C 
ATOM     16  O   UNL     1       5.975   3.003  12.461  0.00  0.00    +0.000 OA
ENDBRANCH  14  16
ENDBRANCH  13  14
ENDBRANCH  11  13
ENDBRANCH   8  11
ENDBRANCH   1   8
BRANCH   6  17
ATOM     17  C   UNL     1       1.793   8.506  18.681  0.00  0.00    +0.000 C 
ATOM     18  C   UNL     1       1.111   9.485  18.801  0.00  0.00    +0.000 C 
BRANCH  18  19
ATOM     19  C   UNL     1       0.267  10.646  18.992  0.00  0.00    +0.000 A 
ATOM     20  C   UNL     1       0.673  11.624  19.924  0.00  0.00    +0.000 A 
ATOM     21  C   UNL     1      -0.146  12.722  20.199  0.00  0.00    +0.000 A 
ATOM     22 CL   UNL     1       0.326  13.897  21.363  0.00  0.00    +0.000 Cl
ATOM     23  C   UNL     1      -1.365  12.865  19.554  0.00  0.00    +0.000 A 
ATOM     24  C   UNL     1      -1.759  11.917  18.618  0.00  0.00    +0.000 A 
ATOM     25  C   UNL     1      -0.949  10.820  18.297  0.00  0.00    +0.000 A 
BRANCH  25  26
ATOM     26  O   UNL     1      -1.321   9.921  17.318  0.00  0.00    +0.000 OA
BRANCH  26  27
ATOM     27  C   UNL     1      -2.750   9.791  17.170  0.00  0.00    +0.000 C 
BRANCH  27  28
ATOM     28  C   UNL     1      -3.256  10.388  15.872  0.00  0.00    +0.000 C 
ATOM     29  O   UNL     1      -2.591  10.455  14.851  0.00  0.00    +0.000 OA
BRANCH  28  30
ATOM     30  O   UNL     1      -4.530  10.837  15.955  0.00  0.00    +0.000 OA
ATOM     31  H   UNL     1      -4.746  11.061  16.886  0.00  0.00    +0.000 HD
ENDBRANCH  28  30
ENDBRANCH  27  28
ENDBRANCH  26  27
ENDBRANCH  25  26
ENDBRANCH  18  19
ENDBRANCH   6  17
TORSDOF 11
ENDMDL
MODEL 6
REMARK VINA RESULT:      -7.0      4.341      8.694
REMARK  Name = 
REMARK  13 active torsions:
REMARK  status: ('A' for Active; 'I' for Inactive)
REMARK    1  A    between atoms: C_1  and  O_2
REMARK    2  A    between atoms: O_2  and  C_3
REMARK    3  A    between atoms: C_3  and  C_4
REMARK    4  A    between atoms: C_4  and  N_5
REMARK    5  A    between atoms: N_5  and  S_6
REMARK    6  A    between atoms: S_6  and  C_9
REMARK    7  A    between atoms: C_12  and  C_13
REMARK    8  A    between atoms: C_14  and  C_15
REMARK    9  A    between atoms: C_16  and  C_17
REMARK   10  A    between atoms: C_23  and  O_24
REMARK   11  A    between atoms: O_24  and  C_25
REMARK   12  A    between atoms: C_25  and  C_26
REMARK   13  A    between atoms: C_26  and  O_28
REMARK                            x       y       z     vdW  Elec       q    Type
REMARK                         _______ _______ _______ _____ _____    ______ ____
ROOT
ATOM      1  C   UNL     1       4.464   6.165  17.433  0.00  0.00    +0.000 A 
ATOM      2  C   UNL     1       4.374   5.073  18.293  0.00  0.00    +0.000 A 
ATOM      3  C   UNL     1       3.435   5.087  19.322  0.00  0.00    +0.000 A 
ATOM      4  C   UNL     1       2.566   6.181  19.489  0.00  0.00    +0.000 A 
ATOM      5  C   UNL     1       1.543   6.136  20.592  0.00  0.00    +0.000 C 
ATOM      6  C   UNL     1       2.676   7.290  18.626  0.00  0.00    +0.000 A 
ATOM      7  C   UNL     1       3.636   7.284  17.604  0.00  0.00    +0.000 A 
ENDROOT
BRANCH   1   8
ATOM      8  S   UNL     1       5.665   6.142  16.121  0.00  0.00    +0.000 S 
ATOM      9  O   UNL     1       5.072   6.778  14.961  0.00  0.00    +0.000 OA
ATOM     10  O   UNL     1       6.203   4.803  16.075  0.00  0.00    +0.000 OA
BRANCH   8  11
ATOM     11  N   UNL     1       6.860   7.178  16.733  0.00  0.00    +0.000 NA
ATOM     12  H   UNL     1       7.450   7.555  15.995  0.00  0.00    +0.000 HD
BRANCH  11  13
ATOM     13  C   UNL     1       7.633   6.643  17.882  0.00  0.00    +0.000 C 
BRANCH  13  14
ATOM     14  C   UNL     1       8.343   7.762  18.650  0.00  0.00    +0.000 C 
BRANCH  14  16
ATOM     15  C   UNL     1       8.864  10.068  18.603  0.00  0.00    +0.000 C 
ATOM     16  O   UNL     1       8.353   8.961  17.875  0.00  0.00    +0.000 OA
ENDBRANCH  14  16
ENDBRANCH  13  14
ENDBRANCH  11  13
ENDBRANCH   8  11
ENDBRANCH   1   8
BRANCH   6  17
ATOM     17  C   UNL     1       1.820   8.445  18.782  0.00  0.00    +0.000 C 
ATOM     18  C   UNL     1       1.130   9.418  18.907  0.00  0.00    +0.000 C 
BRANCH  18  19
ATOM     19  C   UNL     1       0.332  10.612  19.095  0.00  0.00    +0.000 A 
ATOM     20  C   UNL     1       0.768  11.569  20.033  0.00  0.00    +0.000 A 
ATOM     21  C   UNL     1      -0.009  12.698  20.306  0.00  0.00    +0.000 A 
ATOM     22 CL   UNL     1       0.498  13.850  21.478  0.00  0.00    +0.000 Cl
ATOM     23  C   UNL     1      -1.215  12.892  19.650  0.00  0.00    +0.000 A 
ATOM     24  C   UNL     1      -1.638  11.964  18.706  0.00  0.00    +0.000 A 
ATOM     25  C   UNL     1      -0.869  10.836  18.389  0.00  0.00    +0.000 A 
BRANCH  25  26
ATOM     26  O   UNL     1      -1.267   9.957  17.403  0.00  0.00    +0.000 OA
BRANCH  26  27
ATOM     27  C   UNL     1      -2.700   9.868  17.256  0.00  0.00    +0.000 C 
BRANCH  27  28
ATOM     28  C   UNL     1      -3.182  10.408  15.924  0.00  0.00    +0.000 C 
ATOM     29  O   UNL     1      -2.489  10.458  14.922  0.00  0.00    +0.000 OA
BRANCH  28  30
ATOM     30  O   UNL     1      -4.469  10.825  15.955  0.00  0.00    +0.000 OA
ATOM     31  H   UNL     1      -4.806  10.804  16.877  0.00  0.00    +0.000 HD
ENDBRANCH  28  30
ENDBRANCH  27  28
ENDBRANCH  26  27
ENDBRANCH  25  26
ENDBRANCH  18  19
ENDBRANCH   6  17
TORSDOF 11
ENDMDL
MODEL 7
REMARK VINA RESULT:      -7.0      4.719      8.174
REMARK  Name = 
REMARK  13 active torsions:
REMARK  status: ('A' for Active; 'I' for Inactive)
REMARK    1  A    between atoms: C_1  and  O_2
REMARK    2  A    between atoms: O_2  and  C_3
REMARK    3  A    between atoms: C_3  and  C_4
REMARK    4  A    between atoms: C_4  and  N_5
REMARK    5  A    between atoms: N_5  and  S_6
REMARK    6  A    between atoms: S_6  and  C_9
REMARK    7  A    between atoms: C_12  and  C_13
REMARK    8  A    between atoms: C_14  and  C_15
REMARK    9  A    between atoms: C_16  and  C_17
REMARK   10  A    between atoms: C_23  and  O_24
REMARK   11  A    between atoms: O_24  and  C_25
REMARK   12  A    between atoms: C_25  and  C_26
REMARK   13  A    between atoms: C_26  and  O_28
REMARK                            x       y       z     vdW  Elec       q    Type
REMARK                         _______ _______ _______ _____ _____    ______ ____
ROOT
ATOM      1  C   UNL     1       4.886   6.252  17.848  0.00  0.00    +0.000 A 
ATOM      2  C   UNL     1       4.850   5.211  18.773  0.00  0.00    +0.000 A 
ATOM      3  C   UNL     1       3.791   5.132  19.674  0.00  0.00    +0.000 A 
ATOM      4  C   UNL     1       2.750   6.079  19.648  0.00  0.00    +0.000 A 
ATOM      5  C   UNL     1       1.609   5.933  20.617  0.00  0.00    +0.000 C 
ATOM      6  C   UNL     1       2.803   7.140  18.721  0.00  0.00    +0.000 A 
ATOM      7  C   UNL     1       3.881   7.230  17.829  0.00  0.00    +0.000 A 
ENDROOT
BRANCH   1   8
ATOM      8  S   UNL     1       6.240   6.348  16.699  0.00  0.00    +0.000 S 
ATOM      9  O   UNL     1       5.696   6.272  15.358  0.00  0.00    +0.000 OA
ATOM     10  O   UNL     1       7.252   5.433  17.173  0.00  0.00    +0.000 OA
BRANCH   8  11
ATOM     11  N   UNL     1       6.791   7.932  16.952  0.00  0.00    +0.000 NA
ATOM     12  H   UNL     1       6.854   8.456  16.082  0.00  0.00    +0.000 HD
BRANCH  11  13
ATOM     13  C   UNL     1       8.008   8.052  17.794  0.00  0.00    +0.000 C 
BRANCH  13  14
ATOM     14  C   UNL     1       8.388   9.518  18.026  0.00  0.00    +0.000 C 
BRANCH  14  16
ATOM     15  C   UNL     1       9.765  10.849  19.411  0.00  0.00    +0.000 C 
ATOM     16  O   UNL     1       8.970   9.676  19.320  0.00  0.00    +0.000 OA
ENDBRANCH  14  16
ENDBRANCH  13  14
ENDBRANCH  11  13
ENDBRANCH   8  11
ENDBRANCH   1   8
BRANCH   6  17
ATOM     17  C   UNL     1       1.768   8.148  18.680  0.00  0.00    +0.000 C 
ATOM     18  C   UNL     1       0.896   8.970  18.632  0.00  0.00    +0.000 C 
BRANCH  18  19
ATOM     19  C   UNL     1      -0.156   9.959  18.519  0.00  0.00    +0.000 A 
ATOM     20  C   UNL     1      -0.961   9.952  17.362  0.00  0.00    +0.000 A 
ATOM     21  C   UNL     1      -1.936  10.935  17.173  0.00  0.00    +0.000 A 
ATOM     22 CL   UNL     1      -2.895  10.956  15.745  0.00  0.00    +0.000 Cl
ATOM     23  C   UNL     1      -2.127  11.923  18.126  0.00  0.00    +0.000 A 
ATOM     24  C   UNL     1      -1.353  11.920  19.280  0.00  0.00    +0.000 A 
ATOM     25  C   UNL     1      -0.386  10.933  19.513  0.00  0.00    +0.000 A 
BRANCH  25  26
ATOM     26  O   UNL     1       0.330  10.902  20.693  0.00  0.00    +0.000 OA
BRANCH  26  27
ATOM     27  C   UNL     1      -0.285  10.094  21.718  0.00  0.00    +0.000 C 
BRANCH  27  28
ATOM     28  C   UNL     1       0.717   9.584  22.734  0.00  0.00    +0.000 C 
ATOM     29  O   UNL     1       1.855   9.247  22.454  0.00  0.00    +0.000 OA
BRANCH  28  30
ATOM     30  O   UNL     1       0.224   9.547  23.994  0.00  0.00    +0.000 OA
ATOM     31  H   UNL     1      -0.571  10.120  24.059  0.00  0.00    +0.000 HD
ENDBRANCH  28  30
ENDBRANCH  27  28
ENDBRANCH  26  27
ENDBRANCH  25  26
ENDBRANCH  18  19
ENDBRANCH   6  17
TORSDOF 11
ENDMDL
MODEL 8
REMARK VINA RESULT:      -7.0      4.805      8.302
REMARK  Name = 
REMARK  13 active torsions:
REMARK  status: ('A' for Active; 'I' for Inactive)
REMARK    1  A    between atoms: C_1  and  O_2
REMARK    2  A    between atoms: O_2  and  C_3
REMARK    3  A    between atoms: C_3  and  C_4
REMARK    4  A    between atoms: C_4  and  N_5
REMARK    5  A    between atoms: N_5  and  S_6
REMARK    6  A    between atoms: S_6  and  C_9
REMARK    7  A    between atoms: C_12  and  C_13
REMARK    8  A    between atoms: C_14  and  C_15
REMARK    9  A    between atoms: C_16  and  C_17
REMARK   10  A    between atoms: C_23  and  O_24
REMARK   11  A    between atoms: O_24  and  C_25
REMARK   12  A    between atoms: C_25  and  C_26
REMARK   13  A    between atoms: C_26  and  O_28
REMARK                            x       y       z     vdW  Elec       q    Type
REMARK                         _______ _______ _______ _____ _____    ______ ____
ROOT
ATOM      1  C   UNL     1       5.225   5.470  17.426  0.00  0.00    +0.000 A 
ATOM      2  C   UNL     1       5.018   4.275  18.111  0.00  0.00    +0.000 A 
ATOM      3  C   UNL     1       3.840   4.093  18.831  0.00  0.00    +0.000 A 
ATOM      4  C   UNL     1       2.850   5.093  18.858  0.00  0.00    +0.000 A 
ATOM      5  C   UNL     1       1.577   4.837  19.619  0.00  0.00    +0.000 C 
ATOM      6  C   UNL     1       3.073   6.307  18.177  0.00  0.00    +0.000 A 
ATOM      7  C   UNL     1       4.269   6.497  17.470  0.00  0.00    +0.000 A 
ENDROOT
BRANCH   1   8
ATOM      8  S   UNL     1       6.731   5.699  16.508  0.00  0.00    +0.000 S 
ATOM      9  O   UNL     1       6.434   5.499  15.104  0.00  0.00    +0.000 OA
ATOM     10  O   UNL     1       7.752   4.943  17.195  0.00  0.00    +0.000 OA
BRANCH   8  11
ATOM     11  N   UNL     1       7.032   7.349  16.751  0.00  0.00    +0.000 NA
ATOM     12  H   UNL     1       7.261   7.826  15.882  0.00  0.00    +0.000 HD
BRANCH  11  13
ATOM     13  C   UNL     1       7.974   7.665  17.855  0.00  0.00    +0.000 C 
BRANCH  13  14
ATOM     14  C   UNL     1       8.158   9.177  18.021  0.00  0.00    +0.000 C 
BRANCH  14  16
ATOM     15  C   UNL     1       9.726  10.707  18.908  0.00  0.00    +0.000 C 
ATOM     16  O   UNL     1       9.091   9.447  19.067  0.00  0.00    +0.000 OA
ENDBRANCH  14  16
ENDBRANCH  13  14
ENDBRANCH  11  13
ENDBRANCH   8  11
ENDBRANCH   1   8
BRANCH   6  17
ATOM     17  C   UNL     1       2.093   7.369  18.202  0.00  0.00    +0.000 C 
ATOM     18  C   UNL     1       1.288   8.256  18.246  0.00  0.00    +0.000 C 
BRANCH  18  19
ATOM     19  C   UNL     1       0.299   9.309  18.346  0.00  0.00    +0.000 A 
ATOM     20  C   UNL     1      -0.599   9.490  17.275  0.00  0.00    +0.000 A 
ATOM     21  C   UNL     1      -1.519  10.542  17.293  0.00  0.00    +0.000 A 
ATOM     22 CL   UNL     1      -2.590  10.793  15.971  0.00  0.00    +0.000 Cl
ATOM     23  C   UNL     1      -1.563  11.415  18.369  0.00  0.00    +0.000 A 
ATOM     24  C   UNL     1      -0.696  11.227  19.439  0.00  0.00    +0.000 A 
ATOM     25  C   UNL     1       0.218  10.165  19.465  0.00  0.00    +0.000 A 
BRANCH  25  26
ATOM     26  O   UNL     1       1.027   9.949  20.562  0.00  0.00    +0.000 OA
BRANCH  26  27
ATOM     27  C   UNL     1       0.496  10.499  21.786  0.00  0.00    +0.000 C 
BRANCH  27  28
ATOM     28  C   UNL     1      -0.001   9.428  22.735  0.00  0.00    +0.000 C 
ATOM     29  O   UNL     1      -0.738   8.514  22.402  0.00  0.00    +0.000 OA
BRANCH  28  30
ATOM     30  O   UNL     1       0.463   9.580  23.998  0.00  0.00    +0.000 OA
ATOM     31  H   UNL     1       1.389   9.259  24.056  0.00  0.00    +0.000 HD
ENDBRANCH  28  30
ENDBRANCH  27  28
ENDBRANCH  26  27
ENDBRANCH  25  26
ENDBRANCH  18  19
ENDBRANCH   6  17
TORSDOF 11
ENDMDL
MODEL 9
REMARK VINA RESULT:      -6.9      1.053      1.241
REMARK  Name = 
REMARK  13 active torsions:
REMARK  status: ('A' for Active; 'I' for Inactive)
REMARK    1  A    between atoms: C_1  and  O_2
REMARK    2  A    between atoms: O_2  and  C_3
REMARK    3  A    between atoms: C_3  and  C_4
REMARK    4  A    between atoms: C_4  and  N_5
REMARK    5  A    between atoms: N_5  and  S_6
REMARK    6  A    between atoms: S_6  and  C_9
REMARK    7  A    between atoms: C_12  and  C_13
REMARK    8  A    between atoms: C_14  and  C_15
REMARK    9  A    between atoms: C_16  and  C_17
REMARK   10  A    between atoms: C_23  and  O_24
REMARK   11  A    between atoms: O_24  and  C_25
REMARK   12  A    between atoms: C_25  and  C_26
REMARK   13  A    between atoms: C_26  and  O_28
REMARK                            x       y       z     vdW  Elec       q    Type
REMARK                         _______ _______ _______ _____ _____    ______ ____
ROOT
ATOM      1  C   UNL     1      -0.517  11.070  19.400  0.00  0.00    +0.000 A 
ATOM      2  C   UNL     1      -0.568  11.329  20.768  0.00  0.00    +0.000 A 
ATOM      3  C   UNL     1       0.165  10.532  21.644  0.00  0.00    +0.000 A 
ATOM      4  C   UNL     1       0.968   9.481  21.162  0.00  0.00    +0.000 A 
ATOM      5  C   UNL     1       1.771   8.670  22.143  0.00  0.00    +0.000 C 
ATOM      6  C   UNL     1       1.001   9.214  19.778  0.00  0.00    +0.000 A 
ATOM      7  C   UNL     1       0.246  10.004  18.900  0.00  0.00    +0.000 A 
ENDROOT
BRANCH   1   8
ATOM      8  S   UNL     1      -1.454  12.090  18.285  0.00  0.00    +0.000 S 
ATOM      9  O   UNL     1      -0.640  13.238  17.938  0.00  0.00    +0.000 OA
ATOM     10  O   UNL     1      -2.773  12.226  18.857  0.00  0.00    +0.000 OA
BRANCH   8  11
ATOM     11  N   UNL     1      -1.564  11.093  16.919  0.00  0.00    +0.000 NA
ATOM     12  H   UNL     1      -0.769  11.214  16.295  0.00  0.00    +0.000 HD
BRANCH  11  13
ATOM     13  C   UNL     1      -2.870  11.127  16.212  0.00  0.00    +0.000 C 
BRANCH  13  14
ATOM     14  C   UNL     1      -3.211   9.768  15.594  0.00  0.00    +0.000 C 
BRANCH  14  16
ATOM     15  C   UNL     1      -3.258   9.857  13.233  0.00  0.00    +0.000 C 
ATOM     16  O   UNL     1      -4.017   9.946  14.430  0.00  0.00    +0.000 OA
ENDBRANCH  14  16
ENDBRANCH  13  14
ENDBRANCH  11  13
ENDBRANCH   8  11
ENDBRANCH   1   8
BRANCH   6  17
ATOM     17  C   UNL     1       1.792   8.128  19.246  0.00  0.00    +0.000 C 
ATOM     18  C   UNL     1       2.436   7.227  18.784  0.00  0.00    +0.000 C 
BRANCH  18  19
ATOM     19  C   UNL     1       3.166   6.113  18.215  0.00  0.00    +0.000 A 
ATOM     20  C   UNL     1       4.192   6.388  17.288  0.00  0.00    +0.000 A 
ATOM     21  C   UNL     1       4.871   5.344  16.654  0.00  0.00    +0.000 A 
ATOM     22 CL   UNL     1       6.096   5.671  15.493  0.00  0.00    +0.000 Cl
ATOM     23  C   UNL     1       4.547   4.026  16.937  0.00  0.00    +0.000 A 
ATOM     24  C   UNL     1       3.553   3.749  17.868  0.00  0.00    +0.000 A 
ATOM     25  C   UNL     1       2.873   4.772  18.542  0.00  0.00    +0.000 A 
BRANCH  25  26
ATOM     26  O   UNL     1       1.935   4.485  19.513  0.00  0.00    +0.000 OA
BRANCH  26  27
ATOM     27  C   UNL     1       1.911   3.094  19.896  0.00  0.00    +0.000 C 
BRANCH  27  28
ATOM     28  C   UNL     1       2.531   2.856  21.258  0.00  0.00    +0.000 C 
ATOM     29  O   UNL     1       1.980   3.130  22.311  0.00  0.00    +0.000 OA
BRANCH  28  30
ATOM     30  O   UNL     1       3.762   2.298  21.190  0.00  0.00    +0.000 OA
ATOM     31  H   UNL     1       4.098   2.119  22.095  0.00  0.00    +0.000 HD
ENDBRANCH  28  30
ENDBRANCH  27  28
ENDBRANCH  26  27
ENDBRANCH  25  26
ENDBRANCH  18  19
ENDBRANCH   6  17
TORSDOF 11
ENDMDL
