MODEL 1
REMARK VINA RESULT:      -9.3      0.000      0.000
REMARK  Name = 
REMARK  4 active torsions:
REMARK  status: ('A' for Active; 'I' for Inactive)
REMARK    1  A    between atoms: C_1  and  C_2
REMARK    2  A    between atoms: C_5  and  S_6
REMARK    3  A    between atoms: S_6  and  C_9
REMARK    4  A    between atoms: C_19  and  C_20
REMARK                            x       y       z     vdW  Elec       q    Type
REMARK                         _______ _______ _______ _____ _____    ______ ____
ROOT
ATOM      1  C   UNL     1       3.947   5.885  17.877  0.00  0.00    +0.000 A 
ATOM      2  C   UNL     1       4.255   6.962  17.060  0.00  0.00    +0.000 A 
ATOM      3  N   UNL     1       3.642   8.158  17.109  0.00  0.00    +0.000 NA
ATOM      4  C   UNL     1       2.717   8.351  18.046  0.00  0.00    +0.000 A 
ATOM      5  C   UNL     1       2.133   9.607  18.073  0.00  0.00    +0.000 A 
ATOM      6  C   UNL     1       1.185   9.935  19.027  0.00  0.00    +0.000 A 
ATOM      7  F   UNL     1       0.633  11.154  19.027  0.00  0.00    +0.000 F 
ATOM      8  C   UNL     1       0.822   9.020  19.993  0.00  0.00    +0.000 A 
ATOM      9  C   UNL     1       1.411   7.754  19.980  0.00  0.00    +0.000 A 
ATOM     10  C   UNL     1       2.338   7.348  18.978  0.00  0.00    +0.000 A 
ATOM     11  C   UNL     1       2.921   6.022  18.848  0.00  0.00    +0.000 A 
ENDROOT
BRANCH  11  12
ATOM     12  C   UNL     1       2.377   4.877  19.673  0.00  0.00    +0.000 A 
ATOM     13  C   UNL     1       2.721   4.646  21.016  0.00  0.00    +0.000 A 
ATOM     14  C   UNL     1       2.244   3.549  21.749  0.00  0.00    +0.000 A 
ATOM     15  C   UNL     1       1.287   2.714  21.201  0.00  0.00    +0.000 A 
ATOM     16  C   UNL     1       0.874   2.949  19.902  0.00  0.00    +0.000 A 
ATOM     17  F   UNL     1      -0.112   2.207  19.381  0.00  0.00    +0.000 F 
ATOM     18  C   UNL     1       1.450   3.961  19.130  0.00  0.00    +0.000 A 
ENDBRANCH  11  12
BRANCH   1  19
ATOM     19  S   UNL     1       4.901   4.412  17.601  0.00  0.00    +0.000 S 
ATOM     20  O   UNL     1       3.980   3.297  17.579  0.00  0.00    +0.000 OA
ATOM     21  O   UNL     1       6.020   4.455  18.530  0.00  0.00    +0.000 OA
BRANCH  19  26
ATOM     22  C   UNL     1       7.519   4.661  12.135  0.00  0.00    +0.000 C 
ATOM     23  C   UNL     1       6.903   4.578  13.497  0.00  0.00    +0.000 A 
ATOM     24  C   UNL     1       7.587   5.031  14.628  0.00  0.00    +0.000 A 
ATOM     25  C   UNL     1       6.978   4.968  15.883  0.00  0.00    +0.000 A 
ATOM     26  C   UNL     1       5.678   4.452  16.000  0.00  0.00    +0.000 A 
ATOM     27  C   UNL     1       5.003   3.954  14.888  0.00  0.00    +0.000 A 
ATOM     28  C   UNL     1       5.616   4.034  13.647  0.00  0.00    +0.000 A 
ATOM     29  F   UNL     1       4.960   3.590  12.571  0.00  0.00    +0.000 F 
ENDBRANCH  19  26
ENDBRANCH   1  19
TORSDOF 3
ENDMDL
MODEL 2
REMARK VINA RESULT:      -8.8      0.826      1.217
REMARK  Name = 
REMARK  4 active torsions:
REMARK  status: ('A' for Active; 'I' for Inactive)
REMARK    1  A    between atoms: C_1  and  C_2
REMARK    2  A    between atoms: C_5  and  S_6
REMARK    3  A    between atoms: S_6  and  C_9
REMARK    4  A    between atoms: C_19  and  C_20
REMARK                            x       y       z     vdW  Elec       q    Type
REMARK                         _______ _______ _______ _____ _____    ______ ____
ROOT
ATOM      1  C   UNL     1       3.998   5.944  17.788  0.00  0.00    +0.000 A 
ATOM      2  C   UNL     1       4.306   7.024  16.975  0.00  0.00    +0.000 A 
ATOM      3  N   UNL     1       3.682   8.214  17.016  0.00  0.00    +0.000 NA
ATOM      4  C   UNL     1       2.742   8.398  17.939  0.00  0.00    +0.000 A 
ATOM      5  C   UNL     1       2.146   9.648  17.958  0.00  0.00    +0.000 A 
ATOM      6  C   UNL     1       1.181   9.967  18.899  0.00  0.00    +0.000 A 
ATOM      7  F   UNL     1       0.618  11.181  18.891  0.00  0.00    +0.000 F 
ATOM      8  C   UNL     1       0.814   9.049  19.859  0.00  0.00    +0.000 A 
ATOM      9  C   UNL     1       1.414   7.789  19.855  0.00  0.00    +0.000 A 
ATOM     10  C   UNL     1       2.360   7.392  18.866  0.00  0.00    +0.000 A 
ATOM     11  C   UNL     1       2.957   6.071  18.745  0.00  0.00    +0.000 A 
ENDROOT
BRANCH  11  12
ATOM     12  C   UNL     1       2.412   4.921  19.562  0.00  0.00    +0.000 A 
ATOM     13  C   UNL     1       2.744   4.689  20.908  0.00  0.00    +0.000 A 
ATOM     14  C   UNL     1       2.268   3.588  21.634  0.00  0.00    +0.000 A 
ATOM     15  C   UNL     1       1.322   2.747  21.075  0.00  0.00    +0.000 A 
ATOM     16  C   UNL     1       0.919   2.983  19.772  0.00  0.00    +0.000 A 
ATOM     17  F   UNL     1      -0.056   2.235  19.240  0.00  0.00    +0.000 F 
ATOM     18  C   UNL     1       1.497   4.000  19.008  0.00  0.00    +0.000 A 
ENDBRANCH  11  12
BRANCH   1  19
ATOM     19  S   UNL     1       4.969   4.480  17.525  0.00  0.00    +0.000 S 
ATOM     20  O   UNL     1       4.084   3.343  17.656  0.00  0.00    +0.000 OA
ATOM     21  O   UNL     1       6.162   4.613  18.348  0.00  0.00    +0.000 OA
BRANCH  19  26
ATOM     22  C   UNL     1       7.178   4.211  11.882  0.00  0.00    +0.000 C 
ATOM     23  C   UNL     1       6.600   4.294  13.260  0.00  0.00    +0.000 A 
ATOM     24  C   UNL     1       5.371   3.703  13.567  0.00  0.00    +0.000 A 
ATOM     25  C   UNL     1       4.869   3.771  14.867  0.00  0.00    +0.000 A 
ATOM     26  C   UNL     1       5.605   4.432  15.863  0.00  0.00    +0.000 A 
ATOM     27  C   UNL     1       6.807   5.067  15.562  0.00  0.00    +0.000 A 
ATOM     28  C   UNL     1       7.298   4.981  14.268  0.00  0.00    +0.000 A 
ATOM     29  F   UNL     1       8.470   5.557  13.980  0.00  0.00    +0.000 F 
ENDBRANCH  19  26
ENDBRANCH   1  19
TORSDOF 3
ENDMDL
MODEL 3
REMARK VINA RESULT:      -8.7      0.835      1.215
REMARK  Name = 
REMARK  4 active torsions:
REMARK  status: ('A' for Active; 'I' for Inactive)
REMARK    1  A    between atoms: C_1  and  C_2
REMARK    2  A    between atoms: C_5  and  S_6
REMARK    3  A    between atoms: S_6  and  C_9
REMARK    4  A    between atoms: C_19  and  C_20
REMARK                            x       y       z     vdW  Elec       q    Type
REMARK                         _______ _______ _______ _____ _____    ______ ____
ROOT
ATOM      1  C   UNL     1       3.922   5.910  17.745  0.00  0.00    +0.000 A 
ATOM      2  C   UNL     1       4.311   7.000  16.980  0.00  0.00    +0.000 A 
ATOM      3  N   UNL     1       3.732   8.212  17.027  0.00  0.00    +0.000 NA
ATOM      4  C   UNL     1       2.756   8.408  17.909  0.00  0.00    +0.000 A 
ATOM      5  C   UNL     1       2.208   9.680  17.938  0.00  0.00    +0.000 A 
ATOM      6  C   UNL     1       1.212  10.011  18.840  0.00  0.00    +0.000 A 
ATOM      7  F   UNL     1       0.698  11.246  18.842  0.00  0.00    +0.000 F 
ATOM      8  C   UNL     1       0.763   9.082  19.754  0.00  0.00    +0.000 A 
ATOM      9  C   UNL     1       1.314   7.799  19.741  0.00  0.00    +0.000 A 
ATOM     10  C   UNL     1       2.290   7.392  18.786  0.00  0.00    +0.000 A 
ATOM     11  C   UNL     1       2.841   6.052  18.654  0.00  0.00    +0.000 A 
ENDROOT
BRANCH  11  12
ATOM     12  C   UNL     1       2.213   4.902  19.409  0.00  0.00    +0.000 A 
ATOM     13  C   UNL     1       1.300   3.998  18.842  0.00  0.00    +0.000 A 
ATOM     14  C   UNL     1       0.690   2.968  19.573  0.00  0.00    +0.000 A 
ATOM     15  C   UNL     1       1.082   2.718  20.876  0.00  0.00    +0.000 A 
ATOM     16  C   UNL     1       2.029   3.547  21.448  0.00  0.00    +0.000 A 
ATOM     17  F   UNL     1       2.486   3.273  22.678  0.00  0.00    +0.000 F 
ATOM     18  C   UNL     1       2.534   4.654  20.761  0.00  0.00    +0.000 A 
ENDBRANCH  11  12
BRANCH   1  19
ATOM     19  S   UNL     1       4.847   4.417  17.485  0.00  0.00    +0.000 S 
ATOM     20  O   UNL     1       3.908   3.317  17.494  0.00  0.00    +0.000 OA
ATOM     21  O   UNL     1       5.978   4.458  18.400  0.00  0.00    +0.000 OA
BRANCH  19  26
ATOM     22  C   UNL     1       7.410   4.524  11.988  0.00  0.00    +0.000 C 
ATOM     23  C   UNL     1       6.807   4.474  13.357  0.00  0.00    +0.000 A 
ATOM     24  C   UNL     1       7.530   4.882  14.481  0.00  0.00    +0.000 A 
ATOM     25  C   UNL     1       6.933   4.852  15.743  0.00  0.00    +0.000 A 
ATOM     26  C   UNL     1       5.606   4.415  15.875  0.00  0.00    +0.000 A 
ATOM     27  C   UNL     1       4.889   3.961  14.770  0.00  0.00    +0.000 A 
ATOM     28  C   UNL     1       5.492   4.007  13.522  0.00  0.00    +0.000 A 
ATOM     29  F   UNL     1       4.797   3.608  12.452  0.00  0.00    +0.000 F 
ENDBRANCH  19  26
ENDBRANCH   1  19
TORSDOF 3
ENDMDL
MODEL 4
REMARK VINA RESULT:      -8.2      1.179      1.722
REMARK  Name = 
REMARK  4 active torsions:
REMARK  status: ('A' for Active; 'I' for Inactive)
REMARK    1  A    between atoms: C_1  and  C_2
REMARK    2  A    between atoms: C_5  and  S_6
REMARK    3  A    between atoms: S_6  and  C_9
REMARK    4  A    between atoms: C_19  and  C_20
REMARK                            x       y       z     vdW  Elec       q    Type
REMARK                         _______ _______ _______ _____ _____    ______ ____
ROOT
ATOM      1  C   UNL     1       4.048   5.867  17.615  0.00  0.00    +0.000 A 
ATOM      2  C   UNL     1       4.440   6.983  16.892  0.00  0.00    +0.000 A 
ATOM      3  N   UNL     1       3.853   8.191  16.972  0.00  0.00    +0.000 NA
ATOM      4  C   UNL     1       2.866   8.351  17.849  0.00  0.00    +0.000 A 
ATOM      5  C   UNL     1       2.310   9.619  17.913  0.00  0.00    +0.000 A 
ATOM      6  C   UNL     1       1.301   9.913  18.814  0.00  0.00    +0.000 A 
ATOM      7  F   UNL     1       0.779  11.145  18.850  0.00  0.00    +0.000 F 
ATOM      8  C   UNL     1       0.847   8.952  19.691  0.00  0.00    +0.000 A 
ATOM      9  C   UNL     1       1.406   7.673  19.641  0.00  0.00    +0.000 A 
ATOM     10  C   UNL     1       2.396   7.304  18.685  0.00  0.00    +0.000 A 
ATOM     11  C   UNL     1       2.956   5.972  18.515  0.00  0.00    +0.000 A 
ENDROOT
BRANCH  11  12
ATOM     12  C   UNL     1       2.326   4.794  19.224  0.00  0.00    +0.000 A 
ATOM     13  C   UNL     1       1.342   3.970  18.652  0.00  0.00    +0.000 A 
ATOM     14  C   UNL     1       0.734   2.913  19.345  0.00  0.00    +0.000 A 
ATOM     15  C   UNL     1       1.193   2.552  20.598  0.00  0.00    +0.000 A 
ATOM     16  C   UNL     1       2.208   3.299  21.168  0.00  0.00    +0.000 A 
ATOM     17  F   UNL     1       2.726   2.917  22.343  0.00  0.00    +0.000 F 
ATOM     18  C   UNL     1       2.718   4.434  20.531  0.00  0.00    +0.000 A 
ENDBRANCH  11  12
BRANCH   1  19
ATOM     19  S   UNL     1       4.985   4.388  17.317  0.00  0.00    +0.000 S 
ATOM     20  O   UNL     1       4.071   3.270  17.401  0.00  0.00    +0.000 OA
ATOM     21  O   UNL     1       6.172   4.465  18.156  0.00  0.00    +0.000 OA
BRANCH  19  26
ATOM     22  C   UNL     1       7.258   4.243  11.694  0.00  0.00    +0.000 C 
ATOM     23  C   UNL     1       6.664   4.295  13.067  0.00  0.00    +0.000 A 
ATOM     24  C   UNL     1       5.443   3.678  13.351  0.00  0.00    +0.000 A 
ATOM     25  C   UNL     1       4.926   3.718  14.647  0.00  0.00    +0.000 A 
ATOM     26  C   UNL     1       5.639   4.376  15.661  0.00  0.00    +0.000 A 
ATOM     27  C   UNL     1       6.834   5.036  15.383  0.00  0.00    +0.000 A 
ATOM     28  C   UNL     1       7.340   4.978  14.093  0.00  0.00    +0.000 A 
ATOM     29  F   UNL     1       8.504   5.578  13.826  0.00  0.00    +0.000 F 
ENDBRANCH  19  26
ENDBRANCH   1  19
TORSDOF 3
ENDMDL
MODEL 5
REMARK VINA RESULT:      -7.8      5.925      8.987
REMARK  Name = 
REMARK  4 active torsions:
REMARK  status: ('A' for Active; 'I' for Inactive)
REMARK    1  A    between atoms: C_1  and  C_2
REMARK    2  A    between atoms: C_5  and  S_6
REMARK    3  A    between atoms: S_6  and  C_9
REMARK    4  A    between atoms: C_19  and  C_20
REMARK                            x       y       z     vdW  Elec       q    Type
REMARK                         _______ _______ _______ _____ _____    ______ ____
ROOT
ATOM      1  C   UNL     1      -1.466  11.489  19.607  0.00  0.00    +0.000 A 
ATOM      2  C   UNL     1      -1.709  10.736  18.468  0.00  0.00    +0.000 A 
ATOM      3  N   UNL     1      -2.891  10.674  17.830  0.00  0.00    +0.000 NA
ATOM      4  C   UNL     1      -3.887  11.432  18.281  0.00  0.00    +0.000 A 
ATOM      5  C   UNL     1      -5.077  11.354  17.576  0.00  0.00    +0.000 A 
ATOM      6  C   UNL     1      -6.171  12.124  17.930  0.00  0.00    +0.000 A 
ATOM      7  F   UNL     1      -7.310  12.024  17.234  0.00  0.00    +0.000 F 
ATOM      8  C   UNL     1      -6.087  13.012  18.981  0.00  0.00    +0.000 A 
ATOM      9  C   UNL     1      -4.891  13.106  19.693  0.00  0.00    +0.000 A 
ATOM     10  C   UNL     1      -3.762  12.285  19.410  0.00  0.00    +0.000 A 
ATOM     11  C   UNL     1      -2.518  12.263  20.164  0.00  0.00    +0.000 A 
ENDROOT
BRANCH  11  12
ATOM     12  C   UNL     1      -2.430  12.981  21.492  0.00  0.00    +0.000 A 
ATOM     13  C   UNL     1      -1.753  14.198  21.682  0.00  0.00    +0.000 A 
ATOM     14  C   UNL     1      -1.641  14.823  22.932  0.00  0.00    +0.000 A 
ATOM     15  C   UNL     1      -2.327  14.318  24.022  0.00  0.00    +0.000 A 
ATOM     16  C   UNL     1      -3.059  13.156  23.859  0.00  0.00    +0.000 A 
ATOM     17  F   UNL     1      -3.798  12.696  24.877  0.00  0.00    +0.000 F 
ATOM     18  C   UNL     1      -3.058  12.464  22.645  0.00  0.00    +0.000 A 
ENDBRANCH  11  12
BRANCH   1  19
ATOM     19  S   UNL     1       0.182  11.388  20.260  0.00  0.00    +0.000 S 
ATOM     20  O   UNL     1       0.073  11.194  21.689  0.00  0.00    +0.000 OA
ATOM     21  O   UNL     1       0.925  12.508  19.700  0.00  0.00    +0.000 OA
BRANCH  19  26
ATOM     22  C   UNL     1       2.971   6.483  18.033  0.00  0.00    +0.000 C 
ATOM     23  C   UNL     1       2.315   7.715  18.575  0.00  0.00    +0.000 A 
ATOM     24  C   UNL     1       2.201   8.874  17.803  0.00  0.00    +0.000 A 
ATOM     25  C   UNL     1       1.560   9.999  18.324  0.00  0.00    +0.000 A 
ATOM     26  C   UNL     1       1.029   9.958  19.623  0.00  0.00    +0.000 A 
ATOM     27  C   UNL     1       1.177   8.826  20.421  0.00  0.00    +0.000 A 
ATOM     28  C   UNL     1       1.806   7.713  19.885  0.00  0.00    +0.000 A 
ATOM     29  F   UNL     1       1.920   6.611  20.633  0.00  0.00    +0.000 F 
ENDBRANCH  19  26
ENDBRANCH   1  19
TORSDOF 3
ENDMDL
MODEL 6
REMARK VINA RESULT:      -7.7      5.943      9.030
REMARK  Name = 
REMARK  4 active torsions:
REMARK  status: ('A' for Active; 'I' for Inactive)
REMARK    1  A    between atoms: C_1  and  C_2
REMARK    2  A    between atoms: C_5  and  S_6
REMARK    3  A    between atoms: S_6  and  C_9
REMARK    4  A    between atoms: C_19  and  C_20
REMARK                            x       y       z     vdW  Elec       q    Type
REMARK                         _______ _______ _______ _____ _____    ______ ____
ROOT
ATOM      1  C   UNL     1      -1.480  11.512  19.771  0.00  0.00    +0.000 A 
ATOM      2  C   UNL     1      -1.693  10.767  18.621  0.00  0.00    +0.000 A 
ATOM      3  N   UNL     1      -2.854  10.719  17.946  0.00  0.00    +0.000 NA
ATOM      4  C   UNL     1      -3.858  11.483  18.368  0.00  0.00    +0.000 A 
ATOM      5  C   UNL     1      -5.025  11.418  17.625  0.00  0.00    +0.000 A 
ATOM      6  C   UNL     1      -6.123  12.197  17.947  0.00  0.00    +0.000 A 
ATOM      7  F   UNL     1      -7.240  12.110  17.215  0.00  0.00    +0.000 F 
ATOM      8  C   UNL     1      -6.066  13.080  19.004  0.00  0.00    +0.000 A 
ATOM      9  C   UNL     1      -4.891  13.160  19.755  0.00  0.00    +0.000 A 
ATOM     10  C   UNL     1      -3.761  12.329  19.505  0.00  0.00    +0.000 A 
ATOM     11  C   UNL     1      -2.542  12.293  20.298  0.00  0.00    +0.000 A 
ENDROOT
BRANCH  11  12
ATOM     12  C   UNL     1      -2.491  13.005  21.632  0.00  0.00    +0.000 A 
ATOM     13  C   UNL     1      -1.851  14.238  21.838  0.00  0.00    +0.000 A 
ATOM     14  C   UNL     1      -1.771  14.858  23.094  0.00  0.00    +0.000 A 
ATOM     15  C   UNL     1      -2.456  14.327  24.171  0.00  0.00    +0.000 A 
ATOM     16  C   UNL     1      -3.154  13.146  23.991  0.00  0.00    +0.000 A 
ATOM     17  F   UNL     1      -3.893  12.659  24.997  0.00  0.00    +0.000 F 
ATOM     18  C   UNL     1      -3.119  12.462  22.773  0.00  0.00    +0.000 A 
ENDBRANCH  11  12
BRANCH   1  19
ATOM     19  S   UNL     1       0.146  11.395  20.476  0.00  0.00    +0.000 S 
ATOM     20  O   UNL     1      -0.007  11.330  21.913  0.00  0.00    +0.000 OA
ATOM     21  O   UNL     1       0.954  12.427  19.844  0.00  0.00    +0.000 OA
BRANCH  19  26
ATOM     22  C   UNL     1       2.945   6.261  18.863  0.00  0.00    +0.000 C 
ATOM     23  C   UNL     1       2.222   7.507  19.270  0.00  0.00    +0.000 A 
ATOM     24  C   UNL     1       1.674   7.640  20.548  0.00  0.00    +0.000 A 
ATOM     25  C   UNL     1       1.029   8.824  20.910  0.00  0.00    +0.000 A 
ATOM     26  C   UNL     1       0.939   9.878  19.988  0.00  0.00    +0.000 A 
ATOM     27  C   UNL     1       1.439   9.741  18.695  0.00  0.00    +0.000 A 
ATOM     28  C   UNL     1       2.086   8.563  18.354  0.00  0.00    +0.000 A 
ATOM     29  F   UNL     1       2.600   8.439  17.126  0.00  0.00    +0.000 F 
ENDBRANCH  19  26
ENDBRANCH   1  19
TORSDOF 3
ENDMDL
MODEL 7
REMARK VINA RESULT:      -7.6      5.377      8.601
REMARK  Name = 
REMARK  4 active torsions:
REMARK  status: ('A' for Active; 'I' for Inactive)
REMARK    1  A    between atoms: C_1  and  C_2
REMARK    2  A    between atoms: C_5  and  S_6
REMARK    3  A    between atoms: S_6  and  C_9
REMARK    4  A    between atoms: C_19  and  C_20
REMARK                            x       y       z     vdW  Elec       q    Type
REMARK                         _______ _______ _______ _____ _____    ______ ____
ROOT
ATOM      1  C   UNL     1      -0.981  11.163  19.173  0.00  0.00    +0.000 A 
ATOM      2  C   UNL     1      -1.374  10.327  18.138  0.00  0.00    +0.000 A 
ATOM      3  N   UNL     1      -2.635  10.213  17.685  0.00  0.00    +0.000 NA
ATOM      4  C   UNL     1      -3.567  10.997  18.220  0.00  0.00    +0.000 A 
ATOM      5  C   UNL     1      -4.845  10.861  17.703  0.00  0.00    +0.000 A 
ATOM      6  C   UNL     1      -5.888  11.651  18.156  0.00  0.00    +0.000 A 
ATOM      7  F   UNL     1      -7.114  11.494  17.642  0.00  0.00    +0.000 F 
ATOM      8  C   UNL     1      -5.667  12.614  19.116  0.00  0.00    +0.000 A 
ATOM      9  C   UNL     1      -4.381  12.766  19.638  0.00  0.00    +0.000 A 
ATOM     10  C   UNL     1      -3.293  11.931  19.254  0.00  0.00    +0.000 A 
ATOM     11  C   UNL     1      -1.953  11.971  19.819  0.00  0.00    +0.000 A 
ENDROOT
BRANCH  11  12
ATOM     12  C   UNL     1      -1.684  12.785  21.065  0.00  0.00    +0.000 A 
ATOM     13  C   UNL     1      -1.967  12.340  22.368  0.00  0.00    +0.000 A 
ATOM     14  C   UNL     1      -1.757  13.130  23.507  0.00  0.00    +0.000 A 
ATOM     15  C   UNL     1      -1.121  14.354  23.393  0.00  0.00    +0.000 A 
ATOM     16  C   UNL     1      -0.767  14.797  22.132  0.00  0.00    +0.000 A 
ATOM     17  F   UNL     1      -0.075  15.937  22.006  0.00  0.00    +0.000 F 
ATOM     18  C   UNL     1      -1.100  14.067  20.988  0.00  0.00    +0.000 A 
ENDBRANCH  11  12
BRANCH   1  19
ATOM     19  S   UNL     1       0.746  11.119  19.585  0.00  0.00    +0.000 S 
ATOM     20  O   UNL     1       0.854  11.260  21.020  0.00  0.00    +0.000 OA
ATOM     21  O   UNL     1       1.419  12.038  18.678  0.00  0.00    +0.000 OA
BRANCH  19  26
ATOM     22  C   UNL     1       3.054   5.693  18.157  0.00  0.00    +0.000 C 
ATOM     23  C   UNL     1       2.520   7.049  18.501  0.00  0.00    +0.000 A 
ATOM     24  C   UNL     1       2.559   8.098  17.579  0.00  0.00    +0.000 A 
ATOM     25  C   UNL     1       2.028   9.343  17.916  0.00  0.00    +0.000 A 
ATOM     26  C   UNL     1       1.453   9.535  19.182  0.00  0.00    +0.000 A 
ATOM     27  C   UNL     1       1.448   8.513  20.128  0.00  0.00    +0.000 A 
ATOM     28  C   UNL     1       1.970   7.277  19.774  0.00  0.00    +0.000 A 
ATOM     29  F   UNL     1       1.937   6.281  20.664  0.00  0.00    +0.000 F 
ENDBRANCH  19  26
ENDBRANCH   1  19
TORSDOF 3
ENDMDL
MODEL 8
REMARK VINA RESULT:      -7.6      2.031      4.789
REMARK  Name = 
REMARK  4 active torsions:
REMARK  status: ('A' for Active; 'I' for Inactive)
REMARK    1  A    between atoms: C_1  and  C_2
REMARK    2  A    between atoms: C_5  and  S_6
REMARK    3  A    between atoms: S_6  and  C_9
REMARK    4  A    between atoms: C_19  and  C_20
REMARK                            x       y       z     vdW  Elec       q    Type
REMARK                         _______ _______ _______ _____ _____    ______ ____
ROOT
ATOM      1  C   UNL     1       4.695   5.267  18.528  0.00  0.00    +0.000 A 
ATOM      2  C   UNL     1       5.341   4.094  18.889  0.00  0.00    +0.000 A 
ATOM      3  N   UNL     1       4.836   3.170  19.726  0.00  0.00    +0.000 NA
ATOM      4  C   UNL     1       3.607   3.357  20.198  0.00  0.00    +0.000 A 
ATOM      5  C   UNL     1       3.121   2.365  21.035  0.00  0.00    +0.000 A 
ATOM      6  C   UNL     1       1.841   2.433  21.557  0.00  0.00    +0.000 A 
ATOM      7  F   UNL     1       1.400   1.464  22.368  0.00  0.00    +0.000 F 
ATOM      8  C   UNL     1       1.008   3.481  21.227  0.00  0.00    +0.000 A 
ATOM      9  C   UNL     1       1.484   4.481  20.377  0.00  0.00    +0.000 A 
ATOM     10  C   UNL     1       2.816   4.490  19.872  0.00  0.00    +0.000 A 
ATOM     11  C   UNL     1       3.407   5.541  19.058  0.00  0.00    +0.000 A 
ENDROOT
BRANCH  11  12
ATOM     12  C   UNL     1       2.681   6.856  18.882  0.00  0.00    +0.000 A 
ATOM     13  C   UNL     1       2.293   7.376  17.635  0.00  0.00    +0.000 A 
ATOM     14  C   UNL     1       1.664   8.621  17.489  0.00  0.00    +0.000 A 
ATOM     15  C   UNL     1       1.272   9.334  18.608  0.00  0.00    +0.000 A 
ATOM     16  C   UNL     1       1.577   8.821  19.856  0.00  0.00    +0.000 A 
ATOM     17  F   UNL     1       1.133   9.450  20.952  0.00  0.00    +0.000 F 
ATOM     18  C   UNL     1       2.323   7.647  19.994  0.00  0.00    +0.000 A 
ENDBRANCH  11  12
BRANCH   1  19
ATOM     19  S   UNL     1       5.585   6.324  17.412  0.00  0.00    +0.000 S 
ATOM     20  O   UNL     1       6.883   6.580  17.997  0.00  0.00    +0.000 OA
ATOM     21  O   UNL     1       4.685   7.411  17.055  0.00  0.00    +0.000 OA
BRANCH  19  26
ATOM     22  C   UNL     1       6.657   3.421  12.195  0.00  0.00    +0.000 C 
ATOM     23  C   UNL     1       6.358   4.150  13.467  0.00  0.00    +0.000 A 
ATOM     24  C   UNL     1       5.194   3.889  14.195  0.00  0.00    +0.000 A 
ATOM     25  C   UNL     1       4.954   4.563  15.393  0.00  0.00    +0.000 A 
ATOM     26  C   UNL     1       5.887   5.499  15.864  0.00  0.00    +0.000 A 
ATOM     27  C   UNL     1       7.029   5.804  15.127  0.00  0.00    +0.000 A 
ATOM     28  C   UNL     1       7.259   5.118  13.943  0.00  0.00    +0.000 A 
ATOM     29  F   UNL     1       8.370   5.379  13.249  0.00  0.00    +0.000 F 
ENDBRANCH  19  26
ENDBRANCH   1  19
TORSDOF 3
ENDMDL
MODEL 9
REMARK VINA RESULT:      -7.5      9.451     11.010
REMARK  Name = 
REMARK  4 active torsions:
REMARK  status: ('A' for Active; 'I' for Inactive)
REMARK    1  A    between atoms: C_1  and  C_2
REMARK    2  A    between atoms: C_5  and  S_6
REMARK    3  A    between atoms: S_6  and  C_9
REMARK    4  A    between atoms: C_19  and  C_20
REMARK                            x       y       z     vdW  Elec       q    Type
REMARK                         _______ _______ _______ _____ _____    ______ ____
ROOT
ATOM      1  C   UNL     1       6.419  14.515  21.667  0.00  0.00    +0.000 A 
ATOM      2  C   UNL     1       5.306  14.123  22.397  0.00  0.00    +0.000 A 
ATOM      3  N   UNL     1       4.046  14.122  21.927  0.00  0.00    +0.000 NA
ATOM      4  C   UNL     1       3.851  14.460  20.655  0.00  0.00    +0.000 A 
ATOM      5  C   UNL     1       2.539  14.419  20.211  0.00  0.00    +0.000 A 
ATOM      6  C   UNL     1       2.219  14.714  18.896  0.00  0.00    +0.000 A 
ATOM      7  F   UNL     1       0.943  14.671  18.496  0.00  0.00    +0.000 F 
ATOM      8  C   UNL     1       3.210  15.029  17.992  0.00  0.00    +0.000 A 
ATOM      9  C   UNL     1       4.536  15.065  18.426  0.00  0.00    +0.000 A 
ATOM     10  C   UNL     1       4.906  14.837  19.783  0.00  0.00    +0.000 A 
ATOM     11  C   UNL     1       6.252  14.947  20.325  0.00  0.00    +0.000 A 
ENDROOT
BRANCH  11  12
ATOM     12  C   UNL     1       7.353  15.560  19.489  0.00  0.00    +0.000 A 
ATOM     13  C   UNL     1       7.691  16.924  19.518  0.00  0.00    +0.000 A 
ATOM     14  C   UNL     1       8.683  17.482  18.698  0.00  0.00    +0.000 A 
ATOM     15  C   UNL     1       9.474  16.663  17.913  0.00  0.00    +0.000 A 
ATOM     16  C   UNL     1       9.214  15.304  17.909  0.00  0.00    +0.000 A 
ATOM     17  F   UNL     1      10.020  14.483  17.223  0.00  0.00    +0.000 F 
ATOM     18  C   UNL     1       8.139  14.770  18.623  0.00  0.00    +0.000 A 
ENDBRANCH  11  12
BRANCH   1  19
ATOM     19  S   UNL     1       7.972  14.432  22.526  0.00  0.00    +0.000 S 
ATOM     20  O   UNL     1       7.770  13.628  23.711  0.00  0.00    +0.000 OA
ATOM     21  O   UNL     1       8.480  15.794  22.608  0.00  0.00    +0.000 OA
BRANCH  19  26
ATOM     22  C   UNL     1      12.086  11.591  19.091  0.00  0.00    +0.000 C 
ATOM     23  C   UNL     1      11.099  12.299  19.966  0.00  0.00    +0.000 A 
ATOM     24  C   UNL     1      11.314  13.615  20.382  0.00  0.00    +0.000 A 
ATOM     25  C   UNL     1      10.364  14.261  21.174  0.00  0.00    +0.000 A 
ATOM     26  C   UNL     1       9.192  13.584  21.546  0.00  0.00    +0.000 A 
ATOM     27  C   UNL     1       8.985  12.256  21.178  0.00  0.00    +0.000 A 
ATOM     28  C   UNL     1       9.934  11.632  20.382  0.00  0.00    +0.000 A 
ATOM     29  F   UNL     1       9.725  10.370  19.995  0.00  0.00    +0.000 F 
ENDBRANCH  19  26
ENDBRANCH   1  19
TORSDOF 3
ENDMDL
