MODEL 1
REMARK VINA RESULT:      -7.6      0.000      0.000
REMARK  Name = 
REMARK  9 active torsions:
REMARK  status: ('A' for Active; 'I' for Inactive)
REMARK    1  A    between atoms: C_1  and  N_2
REMARK    2  A    between atoms: N_2  and  C_3
REMARK    3  A    between atoms: N_2  and  S_4
REMARK    4  A    between atoms: S_4  and  C_7
REMARK    5  A    between atoms: C_11  and  C_12
REMARK    6  A    between atoms: C_12  and  O_13
REMARK    7  A    between atoms: O_13  and  C_14
REMARK    8  A    between atoms: C_14  and  C_16
REMARK    9  A    between atoms: C_16  and  C_17
REMARK                            x       y       z     vdW  Elec       q    Type
REMARK                         _______ _______ _______ _____ _____    ______ ____
ROOT
ATOM      1  O   UNL     1       4.340   7.563  17.483  0.00  0.00    +0.000 OA
ENDROOT
BRANCH   1   2
ATOM      2  C   UNL     1       4.946   6.708  16.609  0.00  0.00    +0.000 C 
ATOM      3  O   UNL     1       4.969   6.858  15.392  0.00  0.00    +0.000 OA
BRANCH   2   4
ATOM      4  C   UNL     1       5.683   5.576  17.349  0.00  0.00    +0.000 C 
ATOM      5  C   UNL     1       6.836   5.026  16.478  0.00  0.00    +0.000 C 
ATOM      6  C   UNL     1       7.834   4.422  17.462  0.00  0.00    +0.000 C 
ATOM      7  C   UNL     1       7.687   5.236  18.741  0.00  0.00    +0.000 C 
ATOM      8  C   UNL     1       6.511   6.185  18.508  0.00  0.00    +0.000 C 
BRANCH   4   9
ATOM      9  C   UNL     1       4.656   4.544  17.847  0.00  0.00    +0.000 A 
ATOM     10  C   UNL     1       3.758   3.880  16.991  0.00  0.00    +0.000 A 
ATOM     11  C   UNL     1       2.769   3.032  17.496  0.00  0.00    +0.000 A 
ATOM     12  C   UNL     1       2.660   2.842  18.865  0.00  0.00    +0.000 A 
ATOM     13  F   UNL     1       1.681   2.067  19.349  0.00  0.00    +0.000 F 
ATOM     14  C   UNL     1       3.545   3.456  19.738  0.00  0.00    +0.000 A 
ATOM     15  C   UNL     1       4.545   4.291  19.232  0.00  0.00    +0.000 A 
ENDBRANCH   4   9
ENDBRANCH   2   4
ENDBRANCH   1   2
BRANCH   1  16
ATOM     16  C   UNL     1       2.929   7.734  17.290  0.00  0.00    +0.000 C 
BRANCH  16  21
ATOM     17  C   UNL     1       1.037   9.436  20.112  0.00  0.00    +0.000 A 
ATOM     18  C   UNL     1       1.022   8.454  21.102  0.00  0.00    +0.000 A 
ATOM     19  C   UNL     1       1.626   7.223  20.848  0.00  0.00    +0.000 A 
ATOM     20  C   UNL     1       2.236   6.980  19.613  0.00  0.00    +0.000 A 
ATOM     21  C   UNL     1       2.233   7.959  18.609  0.00  0.00    +0.000 A 
ATOM     22  C   UNL     1       1.607   9.183  18.861  0.00  0.00    +0.000 A 
BRANCH  17  23
ATOM     23  S   UNL     1       0.364  11.052  20.424  0.00  0.00    +0.000 S 
ATOM     24  O   UNL     1       1.310  11.771  21.256  0.00  0.00    +0.000 OA
ATOM     25  O   UNL     1      -1.015  10.880  20.841  0.00  0.00    +0.000 OA
BRANCH  23  27
ATOM     26  C   UNL     1      -0.950  12.154  18.338  0.00  0.00    +0.000 C 
ATOM     27  N   UNL     1       0.367  11.762  18.868  0.00  0.00    +0.000 NA
ATOM     28  C   UNL     1       1.413  12.778  18.620  0.00  0.00    +0.000 C 
ENDBRANCH  23  27
ENDBRANCH  17  23
ENDBRANCH  16  21
ENDBRANCH   1  16
TORSDOF 7
ENDMDL
MODEL 2
REMARK VINA RESULT:      -7.6      2.643      4.105
REMARK  Name = 
REMARK  9 active torsions:
REMARK  status: ('A' for Active; 'I' for Inactive)
REMARK    1  A    between atoms: C_1  and  N_2
REMARK    2  A    between atoms: N_2  and  C_3
REMARK    3  A    between atoms: N_2  and  S_4
REMARK    4  A    between atoms: S_4  and  C_7
REMARK    5  A    between atoms: C_11  and  C_12
REMARK    6  A    between atoms: C_12  and  O_13
REMARK    7  A    between atoms: O_13  and  C_14
REMARK    8  A    between atoms: C_14  and  C_16
REMARK    9  A    between atoms: C_16  and  C_17
REMARK                            x       y       z     vdW  Elec       q    Type
REMARK                         _______ _______ _______ _____ _____    ______ ____
ROOT
ATOM      1  O   UNL     1       2.125   7.953  19.628  0.00  0.00    +0.000 OA
ENDROOT
BRANCH   1   2
ATOM      2  C   UNL     1       2.637   7.305  18.542  0.00  0.00    +0.000 C 
ATOM      3  O   UNL     1       3.045   7.862  17.528  0.00  0.00    +0.000 OA
BRANCH   2   4
ATOM      4  C   UNL     1       2.728   5.787  18.784  0.00  0.00    +0.000 C 
ATOM      5  C   UNL     1       2.181   5.433  20.187  0.00  0.00    +0.000 C 
ATOM      6  C   UNL     1       1.734   3.976  20.091  0.00  0.00    +0.000 C 
ATOM      7  C   UNL     1       1.313   3.775  18.641  0.00  0.00    +0.000 C 
ATOM      8  C   UNL     1       1.666   5.071  17.911  0.00  0.00    +0.000 C 
BRANCH   4   9
ATOM      9  C   UNL     1       4.157   5.308  18.472  0.00  0.00    +0.000 A 
ATOM     10  C   UNL     1       5.241   5.511  19.345  0.00  0.00    +0.000 A 
ATOM     11  C   UNL     1       6.542   5.158  18.978  0.00  0.00    +0.000 A 
ATOM     12  C   UNL     1       6.777   4.605  17.728  0.00  0.00    +0.000 A 
ATOM     13  F   UNL     1       8.031   4.312  17.360  0.00  0.00    +0.000 F 
ATOM     14  C   UNL     1       5.730   4.363  16.853  0.00  0.00    +0.000 A 
ATOM     15  C   UNL     1       4.427   4.700  17.227  0.00  0.00    +0.000 A 
ENDBRANCH   4   9
ENDBRANCH   2   4
ENDBRANCH   1   2
BRANCH   1  16
ATOM     16  C   UNL     1       1.269   9.065  19.328  0.00  0.00    +0.000 C 
BRANCH  16  21
ATOM     17  C   UNL     1      -0.444  11.311  21.870  0.00  0.00    +0.000 A 
ATOM     18  C   UNL     1      -0.745  10.424  22.903  0.00  0.00    +0.000 A 
ATOM     19  C   UNL     1      -0.394   9.081  22.771  0.00  0.00    +0.000 A 
ATOM     20  C   UNL     1       0.249   8.632  21.612  0.00  0.00    +0.000 A 
ATOM     21  C   UNL     1       0.533   9.519  20.563  0.00  0.00    +0.000 A 
ATOM     22  C   UNL     1       0.159  10.860  20.692  0.00  0.00    +0.000 A 
BRANCH  17  23
ATOM     23  S   UNL     1      -0.786  13.047  22.034  0.00  0.00    +0.000 S 
ATOM     24  O   UNL     1      -0.175  13.726  20.906  0.00  0.00    +0.000 OA
ATOM     25  O   UNL     1      -0.467  13.432  23.396  0.00  0.00    +0.000 OA
BRANCH  23  27
ATOM     26  C   UNL     1      -3.184  14.123  22.654  0.00  0.00    +0.000 C 
ATOM     27  N   UNL     1      -2.485  13.110  21.845  0.00  0.00    +0.000 NA
ATOM     28  C   UNL     1      -2.987  13.038  20.455  0.00  0.00    +0.000 C 
ENDBRANCH  23  27
ENDBRANCH  17  23
ENDBRANCH  16  21
ENDBRANCH   1  16
TORSDOF 7
ENDMDL
MODEL 3
REMARK VINA RESULT:      -7.6      0.563      1.126
REMARK  Name = 
REMARK  9 active torsions:
REMARK  status: ('A' for Active; 'I' for Inactive)
REMARK    1  A    between atoms: C_1  and  N_2
REMARK    2  A    between atoms: N_2  and  C_3
REMARK    3  A    between atoms: N_2  and  S_4
REMARK    4  A    between atoms: S_4  and  C_7
REMARK    5  A    between atoms: C_11  and  C_12
REMARK    6  A    between atoms: C_12  and  O_13
REMARK    7  A    between atoms: O_13  and  C_14
REMARK    8  A    between atoms: C_14  and  C_16
REMARK    9  A    between atoms: C_16  and  C_17
REMARK                            x       y       z     vdW  Elec       q    Type
REMARK                         _______ _______ _______ _____ _____    ______ ____
ROOT
ATOM      1  O   UNL     1       4.391   7.564  17.400  0.00  0.00    +0.000 OA
ENDROOT
BRANCH   1   2
ATOM      2  C   UNL     1       5.005   6.680  16.560  0.00  0.00    +0.000 C 
ATOM      3  O   UNL     1       5.044   6.794  15.339  0.00  0.00    +0.000 OA
BRANCH   2   4
ATOM      4  C   UNL     1       5.726   5.568  17.343  0.00  0.00    +0.000 C 
ATOM      5  C   UNL     1       6.856   4.953  16.485  0.00  0.00    +0.000 C 
ATOM      6  C   UNL     1       7.854   4.373  17.484  0.00  0.00    +0.000 C 
ATOM      7  C   UNL     1       7.740   5.249  18.725  0.00  0.00    +0.000 C 
ATOM      8  C   UNL     1       6.582   6.211  18.463  0.00  0.00    +0.000 C 
BRANCH   4   9
ATOM      9  C   UNL     1       4.684   4.582  17.901  0.00  0.00    +0.000 A 
ATOM     10  C   UNL     1       4.602   4.242  19.263  0.00  0.00    +0.000 A 
ATOM     11  C   UNL     1       3.714   3.262  19.713  0.00  0.00    +0.000 A 
ATOM     12  C   UNL     1       2.902   2.601  18.803  0.00  0.00    +0.000 A 
ATOM     13  F   UNL     1       2.087   1.629  19.229  0.00  0.00    +0.000 F 
ATOM     14  C   UNL     1       2.934   2.929  17.457  0.00  0.00    +0.000 A 
ATOM     15  C   UNL     1       3.810   3.922  17.010  0.00  0.00    +0.000 A 
ENDBRANCH   4   9
ENDBRANCH   2   4
ENDBRANCH   1   2
BRANCH   1  16
ATOM     16  C   UNL     1       2.984   7.738  17.180  0.00  0.00    +0.000 C 
BRANCH  16  21
ATOM     17  C   UNL     1       0.975   9.446  19.917  0.00  0.00    +0.000 A 
ATOM     18  C   UNL     1       1.009   8.509  20.948  0.00  0.00    +0.000 A 
ATOM     19  C   UNL     1       1.687   7.305  20.751  0.00  0.00    +0.000 A 
ATOM     20  C   UNL     1       2.319   7.045  19.530  0.00  0.00    +0.000 A 
ATOM     21  C   UNL     1       2.267   7.978  18.485  0.00  0.00    +0.000 A 
ATOM     22  C   UNL     1       1.568   9.173  18.680  0.00  0.00    +0.000 A 
BRANCH  17  23
ATOM     23  S   UNL     1       0.205  11.031  20.154  0.00  0.00    +0.000 S 
ATOM     24  O   UNL     1       1.260  12.022  20.258  0.00  0.00    +0.000 OA
ATOM     25  O   UNL     1      -0.786  10.885  21.202  0.00  0.00    +0.000 OA
BRANCH  23  27
ATOM     26  C   UNL     1      -1.799  10.425  18.449  0.00  0.00    +0.000 C 
ATOM     27  N   UNL     1      -0.615  11.271  18.672  0.00  0.00    +0.000 NA
ATOM     28  C   UNL     1      -0.828  12.678  18.268  0.00  0.00    +0.000 C 
ENDBRANCH  23  27
ENDBRANCH  17  23
ENDBRANCH  16  21
ENDBRANCH   1  16
TORSDOF 7
ENDMDL
MODEL 4
REMARK VINA RESULT:      -7.6      2.284      3.918
REMARK  Name = 
REMARK  9 active torsions:
REMARK  status: ('A' for Active; 'I' for Inactive)
REMARK    1  A    between atoms: C_1  and  N_2
REMARK    2  A    between atoms: N_2  and  C_3
REMARK    3  A    between atoms: N_2  and  S_4
REMARK    4  A    between atoms: S_4  and  C_7
REMARK    5  A    between atoms: C_11  and  C_12
REMARK    6  A    between atoms: C_12  and  O_13
REMARK    7  A    between atoms: O_13  and  C_14
REMARK    8  A    between atoms: C_14  and  C_16
REMARK    9  A    between atoms: C_16  and  C_17
REMARK                            x       y       z     vdW  Elec       q    Type
REMARK                         _______ _______ _______ _____ _____    ______ ____
ROOT
ATOM      1  O   UNL     1       2.814   6.154  20.179  0.00  0.00    +0.000 OA
ENDROOT
BRANCH   1   2
ATOM      2  C   UNL     1       2.726   4.805  20.368  0.00  0.00    +0.000 C 
ATOM      3  O   UNL     1       2.201   4.271  21.339  0.00  0.00    +0.000 OA
BRANCH   2   4
ATOM      4  C   UNL     1       3.285   4.031  19.159  0.00  0.00    +0.000 C 
ATOM      5  C   UNL     1       3.572   2.562  19.549  0.00  0.00    +0.000 C 
ATOM      6  C   UNL     1       3.501   1.776  18.242  0.00  0.00    +0.000 C 
ATOM      7  C   UNL     1       2.506   2.530  17.369  0.00  0.00    +0.000 C 
ATOM      8  C   UNL     1       2.146   3.803  18.135  0.00  0.00    +0.000 C 
BRANCH   4   9
ATOM      9  C   UNL     1       4.463   4.816  18.555  0.00  0.00    +0.000 A 
ATOM     10  C   UNL     1       5.737   4.864  19.150  0.00  0.00    +0.000 A 
ATOM     11  C   UNL     1       6.749   5.675  18.629  0.00  0.00    +0.000 A 
ATOM     12  C   UNL     1       6.496   6.455  17.511  0.00  0.00    +0.000 A 
ATOM     13  F   UNL     1       7.452   7.268  17.043  0.00  0.00    +0.000 F 
ATOM     14  C   UNL     1       5.262   6.412  16.881  0.00  0.00    +0.000 A 
ATOM     15  C   UNL     1       4.256   5.588  17.392  0.00  0.00    +0.000 A 
ENDBRANCH   4   9
ENDBRANCH   2   4
ENDBRANCH   1   2
BRANCH   1  16
ATOM     16  C   UNL     1       1.679   6.908  20.629  0.00  0.00    +0.000 C 
BRANCH  16  21
ATOM     17  C   UNL     1       0.790  10.505  19.785  0.00  0.00    +0.000 A 
ATOM     18  C   UNL     1       1.279  10.642  18.487  0.00  0.00    +0.000 A 
ATOM     19  C   UNL     1       1.911   9.556  17.880  0.00  0.00    +0.000 A 
ATOM     20  C   UNL     1       2.053   8.348  18.572  0.00  0.00    +0.000 A 
ATOM     21  C   UNL     1       1.580   8.217  19.886  0.00  0.00    +0.000 A 
ATOM     22  C   UNL     1       0.967   9.315  20.496  0.00  0.00    +0.000 A 
BRANCH  17  23
ATOM     23  S   UNL     1      -0.105  11.830  20.564  0.00  0.00    +0.000 S 
ATOM     24  O   UNL     1       0.240  11.827  21.973  0.00  0.00    +0.000 OA
ATOM     25  O   UNL     1      -1.487  11.738  20.135  0.00  0.00    +0.000 OA
BRANCH  23  27
ATOM     26  C   UNL     1      -0.322  14.037  19.024  0.00  0.00    +0.000 C 
ATOM     27  N   UNL     1       0.587  13.219  19.844  0.00  0.00    +0.000 NA
ATOM     28  C   UNL     1       1.468  14.030  20.712  0.00  0.00    +0.000 C 
ENDBRANCH  23  27
ENDBRANCH  17  23
ENDBRANCH  16  21
ENDBRANCH   1  16
TORSDOF 7
ENDMDL
MODEL 5
REMARK VINA RESULT:      -7.6      2.525      4.006
REMARK  Name = 
REMARK  9 active torsions:
REMARK  status: ('A' for Active; 'I' for Inactive)
REMARK    1  A    between atoms: C_1  and  N_2
REMARK    2  A    between atoms: N_2  and  C_3
REMARK    3  A    between atoms: N_2  and  S_4
REMARK    4  A    between atoms: S_4  and  C_7
REMARK    5  A    between atoms: C_11  and  C_12
REMARK    6  A    between atoms: C_12  and  O_13
REMARK    7  A    between atoms: O_13  and  C_14
REMARK    8  A    between atoms: C_14  and  C_16
REMARK    9  A    between atoms: C_16  and  C_17
REMARK                            x       y       z     vdW  Elec       q    Type
REMARK                         _______ _______ _______ _____ _____    ______ ____
ROOT
ATOM      1  O   UNL     1       2.006   7.834  19.660  0.00  0.00    +0.000 OA
ENDROOT
BRANCH   1   2
ATOM      2  C   UNL     1       2.556   7.222  18.571  0.00  0.00    +0.000 C 
ATOM      3  O   UNL     1       2.972   7.810  17.579  0.00  0.00    +0.000 OA
BRANCH   2   4
ATOM      4  C   UNL     1       2.675   5.701  18.782  0.00  0.00    +0.000 C 
ATOM      5  C   UNL     1       2.138   5.308  20.179  0.00  0.00    +0.000 C 
ATOM      6  C   UNL     1       1.718   3.846  20.054  0.00  0.00    +0.000 C 
ATOM      7  C   UNL     1       1.299   3.666  18.601  0.00  0.00    +0.000 C 
ATOM      8  C   UNL     1       1.626   4.983  17.897  0.00  0.00    +0.000 C 
BRANCH   4   9
ATOM      9  C   UNL     1       4.112   5.255  18.459  0.00  0.00    +0.000 A 
ATOM     10  C   UNL     1       5.195   5.462  19.333  0.00  0.00    +0.000 A 
ATOM     11  C   UNL     1       6.502   5.141  18.956  0.00  0.00    +0.000 A 
ATOM     12  C   UNL     1       6.744   4.618  17.696  0.00  0.00    +0.000 A 
ATOM     13  F   UNL     1       8.002   4.356  17.319  0.00  0.00    +0.000 F 
ATOM     14  C   UNL     1       5.700   4.373  16.817  0.00  0.00    +0.000 A 
ATOM     15  C   UNL     1       4.391   4.677  17.201  0.00  0.00    +0.000 A 
ENDBRANCH   4   9
ENDBRANCH   2   4
ENDBRANCH   1   2
BRANCH   1  16
ATOM     16  C   UNL     1       1.350   9.082  19.391  0.00  0.00    +0.000 C 
BRANCH  16  21
ATOM     17  C   UNL     1      -0.918  11.149  21.632  0.00  0.00    +0.000 A 
ATOM     18  C   UNL     1      -0.731  10.558  22.881  0.00  0.00    +0.000 A 
ATOM     19  C   UNL     1       0.135   9.471  22.996  0.00  0.00    +0.000 A 
ATOM     20  C   UNL     1       0.804   8.981  21.869  0.00  0.00    +0.000 A 
ATOM     21  C   UNL     1       0.601   9.562  20.609  0.00  0.00    +0.000 A 
ATOM     22  C   UNL     1      -0.286  10.638  20.495  0.00  0.00    +0.000 A 
BRANCH  17  23
ATOM     23  S   UNL     1      -1.938  12.594  21.455  0.00  0.00    +0.000 S 
ATOM     24  O   UNL     1      -2.463  12.928  22.766  0.00  0.00    +0.000 OA
ATOM     25  O   UNL     1      -2.828  12.368  20.332  0.00  0.00    +0.000 OA
BRANCH  23  27
ATOM     26  C   UNL     1      -1.372  15.032  20.442  0.00  0.00    +0.000 C 
ATOM     27  N   UNL     1      -0.806  13.796  21.007  0.00  0.00    +0.000 NA
ATOM     28  C   UNL     1       0.286  14.051  21.971  0.00  0.00    +0.000 C 
ENDBRANCH  23  27
ENDBRANCH  17  23
ENDBRANCH  16  21
ENDBRANCH   1  16
TORSDOF 7
ENDMDL
MODEL 6
REMARK VINA RESULT:      -7.6      2.424      4.128
REMARK  Name = 
REMARK  9 active torsions:
REMARK  status: ('A' for Active; 'I' for Inactive)
REMARK    1  A    between atoms: C_1  and  N_2
REMARK    2  A    between atoms: N_2  and  C_3
REMARK    3  A    between atoms: N_2  and  S_4
REMARK    4  A    between atoms: S_4  and  C_7
REMARK    5  A    between atoms: C_11  and  C_12
REMARK    6  A    between atoms: C_12  and  O_13
REMARK    7  A    between atoms: O_13  and  C_14
REMARK    8  A    between atoms: C_14  and  C_16
REMARK    9  A    between atoms: C_16  and  C_17
REMARK                            x       y       z     vdW  Elec       q    Type
REMARK                         _______ _______ _______ _____ _____    ______ ____
ROOT
ATOM      1  O   UNL     1       1.672   5.755  19.958  0.00  0.00    +0.000 OA
ENDROOT
BRANCH   1   2
ATOM      2  C   UNL     1       2.409   4.710  20.435  0.00  0.00    +0.000 C 
ATOM      3  O   UNL     1       2.494   4.402  21.619  0.00  0.00    +0.000 OA
BRANCH   2   4
ATOM      4  C   UNL     1       3.050   3.904  19.290  0.00  0.00    +0.000 C 
ATOM      5  C   UNL     1       3.425   2.485  19.776  0.00  0.00    +0.000 C 
ATOM      6  C   UNL     1       3.440   1.617  18.520  0.00  0.00    +0.000 C 
ATOM      7  C   UNL     1       2.420   2.247  17.580  0.00  0.00    +0.000 C 
ATOM      8  C   UNL     1       1.955   3.536  18.257  0.00  0.00    +0.000 C 
BRANCH   4   9
ATOM      9  C   UNL     1       4.188   4.729  18.663  0.00  0.00    +0.000 A 
ATOM     10  C   UNL     1       5.444   4.892  19.275  0.00  0.00    +0.000 A 
ATOM     11  C   UNL     1       6.412   5.738  18.727  0.00  0.00    +0.000 A 
ATOM     12  C   UNL     1       6.133   6.438  17.564  0.00  0.00    +0.000 A 
ATOM     13  F   UNL     1       7.045   7.284  17.067  0.00  0.00    +0.000 F 
ATOM     14  C   UNL     1       4.918   6.281  16.916  0.00  0.00    +0.000 A 
ATOM     15  C   UNL     1       3.956   5.422  17.455  0.00  0.00    +0.000 A 
ENDBRANCH   4   9
ENDBRANCH   2   4
ENDBRANCH   1   2
BRANCH   1  16
ATOM     16  C   UNL     1       1.691   6.937  20.771  0.00  0.00    +0.000 C 
BRANCH  16  21
ATOM     17  C   UNL     1       1.141  10.525  19.646  0.00  0.00    +0.000 A 
ATOM     18  C   UNL     1       1.523  10.484  18.306  0.00  0.00    +0.000 A 
ATOM     19  C   UNL     1       1.970   9.280  17.762  0.00  0.00    +0.000 A 
ATOM     20  C   UNL     1       2.037   8.130  18.557  0.00  0.00    +0.000 A 
ATOM     21  C   UNL     1       1.674   8.175  19.911  0.00  0.00    +0.000 A 
ATOM     22  C   UNL     1       1.247   9.390  20.456  0.00  0.00    +0.000 A 
BRANCH  17  23
ATOM     23  S   UNL     1       0.475  12.012  20.356  0.00  0.00    +0.000 S 
ATOM     24  O   UNL     1       0.221  12.943  19.273  0.00  0.00    +0.000 OA
ATOM     25  O   UNL     1       1.323  12.383  21.473  0.00  0.00    +0.000 OA
BRANCH  23  27
ATOM     26  C   UNL     1      -1.102  11.338  22.441  0.00  0.00    +0.000 C 
ATOM     27  N   UNL     1      -1.029  11.486  20.978  0.00  0.00    +0.000 NA
ATOM     28  C   UNL     1      -2.230  12.130  20.404  0.00  0.00    +0.000 C 
ENDBRANCH  23  27
ENDBRANCH  17  23
ENDBRANCH  16  21
ENDBRANCH   1  16
TORSDOF 7
ENDMDL
MODEL 7
REMARK VINA RESULT:      -7.5      0.637      1.174
REMARK  Name = 
REMARK  9 active torsions:
REMARK  status: ('A' for Active; 'I' for Inactive)
REMARK    1  A    between atoms: C_1  and  N_2
REMARK    2  A    between atoms: N_2  and  C_3
REMARK    3  A    between atoms: N_2  and  S_4
REMARK    4  A    between atoms: S_4  and  C_7
REMARK    5  A    between atoms: C_11  and  C_12
REMARK    6  A    between atoms: C_12  and  O_13
REMARK    7  A    between atoms: O_13  and  C_14
REMARK    8  A    between atoms: C_14  and  C_16
REMARK    9  A    between atoms: C_16  and  C_17
REMARK                            x       y       z     vdW  Elec       q    Type
REMARK                         _______ _______ _______ _____ _____    ______ ____
ROOT
ATOM      1  O   UNL     1       4.247   7.598  17.542  0.00  0.00    +0.000 OA
ENDROOT
BRANCH   1   2
ATOM      2  C   UNL     1       4.875   6.788  16.642  0.00  0.00    +0.000 C 
ATOM      3  O   UNL     1       4.913   6.990  15.432  0.00  0.00    +0.000 OA
BRANCH   2   4
ATOM      4  C   UNL     1       5.615   5.634  17.344  0.00  0.00    +0.000 C 
ATOM      5  C   UNL     1       6.680   5.027  16.401  0.00  0.00    +0.000 C 
ATOM      6  C   UNL     1       7.720   4.392  17.321  0.00  0.00    +0.000 C 
ATOM      7  C   UNL     1       7.696   5.225  18.596  0.00  0.00    +0.000 C 
ATOM      8  C   UNL     1       6.547   6.220  18.433  0.00  0.00    +0.000 C 
BRANCH   4   9
ATOM      9  C   UNL     1       4.584   4.651  17.926  0.00  0.00    +0.000 A 
ATOM     10  C   UNL     1       4.495   4.357  19.298  0.00  0.00    +0.000 A 
ATOM     11  C   UNL     1       3.619   3.377  19.774  0.00  0.00    +0.000 A 
ATOM     12  C   UNL     1       2.826   2.673  18.881  0.00  0.00    +0.000 A 
ATOM     13  F   UNL     1       2.023   1.701  19.333  0.00  0.00    +0.000 F 
ATOM     14  C   UNL     1       2.866   2.954  17.524  0.00  0.00    +0.000 A 
ATOM     15  C   UNL     1       3.729   3.946  17.051  0.00  0.00    +0.000 A 
ENDBRANCH   4   9
ENDBRANCH   2   4
ENDBRANCH   1   2
BRANCH   1  16
ATOM     16  C   UNL     1       2.854   7.831  17.287  0.00  0.00    +0.000 C 
BRANCH  16  21
ATOM     17  C   UNL     1       0.705   9.570  19.894  0.00  0.00    +0.000 A 
ATOM     18  C   UNL     1       0.813   8.719  20.993  0.00  0.00    +0.000 A 
ATOM     19  C   UNL     1       1.587   7.563  20.884  0.00  0.00    +0.000 A 
ATOM     20  C   UNL     1       2.242   7.264  19.685  0.00  0.00    +0.000 A 
ATOM     21  C   UNL     1       2.116   8.109  18.572  0.00  0.00    +0.000 A 
ATOM     22  C   UNL     1       1.322   9.255  18.680  0.00  0.00    +0.000 A 
BRANCH  17  23
ATOM     23  S   UNL     1      -0.191  11.100  20.015  0.00  0.00    +0.000 S 
ATOM     24  O   UNL     1      -0.414  11.371  21.423  0.00  0.00    +0.000 OA
ATOM     25  O   UNL     1      -1.302  11.034  19.084  0.00  0.00    +0.000 OA
BRANCH  23  27
ATOM     26  C   UNL     1       0.403  13.246  18.487  0.00  0.00    +0.000 C 
ATOM     27  N   UNL     1       0.937  12.240  19.420  0.00  0.00    +0.000 NA
ATOM     28  C   UNL     1       1.867  12.815  20.417  0.00  0.00    +0.000 C 
ENDBRANCH  23  27
ENDBRANCH  17  23
ENDBRANCH  16  21
ENDBRANCH   1  16
TORSDOF 7
ENDMDL
MODEL 8
REMARK VINA RESULT:      -7.5      2.900      4.217
REMARK  Name = 
REMARK  9 active torsions:
REMARK  status: ('A' for Active; 'I' for Inactive)
REMARK    1  A    between atoms: C_1  and  N_2
REMARK    2  A    between atoms: N_2  and  C_3
REMARK    3  A    between atoms: N_2  and  S_4
REMARK    4  A    between atoms: S_4  and  C_7
REMARK    5  A    between atoms: C_11  and  C_12
REMARK    6  A    between atoms: C_12  and  O_13
REMARK    7  A    between atoms: O_13  and  C_14
REMARK    8  A    between atoms: C_14  and  C_16
REMARK    9  A    between atoms: C_16  and  C_17
REMARK                            x       y       z     vdW  Elec       q    Type
REMARK                         _______ _______ _______ _____ _____    ______ ____
ROOT
ATOM      1  O   UNL     1       1.639   7.726  19.454  0.00  0.00    +0.000 OA
ENDROOT
BRANCH   1   2
ATOM      2  C   UNL     1       2.481   7.239  18.497  0.00  0.00    +0.000 C 
ATOM      3  O   UNL     1       3.030   7.924  17.640  0.00  0.00    +0.000 OA
BRANCH   2   4
ATOM      4  C   UNL     1       2.732   5.731  18.682  0.00  0.00    +0.000 C 
ATOM      5  C   UNL     1       2.281   5.281  20.092  0.00  0.00    +0.000 C 
ATOM      6  C   UNL     1       1.977   3.790  19.963  0.00  0.00    +0.000 C 
ATOM      7  C   UNL     1       1.520   3.593  18.523  0.00  0.00    +0.000 C 
ATOM      8  C   UNL     1       1.712   4.940  17.826  0.00  0.00    +0.000 C 
BRANCH   4   9
ATOM      9  C   UNL     1       4.187   5.409  18.301  0.00  0.00    +0.000 A 
ATOM     10  C   UNL     1       4.549   4.844  17.064  0.00  0.00    +0.000 A 
ATOM     11  C   UNL     1       5.867   4.466  16.798  0.00  0.00    +0.000 A 
ATOM     12  C   UNL     1       6.841   4.639  17.770  0.00  0.00    +0.000 A 
ATOM     13  F   UNL     1       8.093   4.231  17.531  0.00  0.00    +0.000 F 
ATOM     14  C   UNL     1       6.528   5.218  18.990  0.00  0.00    +0.000 A 
ATOM     15  C   UNL     1       5.213   5.612  19.249  0.00  0.00    +0.000 A 
ENDBRANCH   4   9
ENDBRANCH   2   4
ENDBRANCH   1   2
BRANCH   1  16
ATOM     16  C   UNL     1       1.500   9.154  19.476  0.00  0.00    +0.000 C 
BRANCH  16  21
ATOM     17  C   UNL     1      -0.737  11.198  21.769  0.00  0.00    +0.000 A 
ATOM     18  C   UNL     1      -0.636  10.514  22.980  0.00  0.00    +0.000 A 
ATOM     19  C   UNL     1       0.162   9.372  23.052  0.00  0.00    +0.000 A 
ATOM     20  C   UNL     1       0.848   8.920  21.919  0.00  0.00    +0.000 A 
ATOM     21  C   UNL     1       0.730   9.595  20.695  0.00  0.00    +0.000 A 
ATOM     22  C   UNL     1      -0.089  10.727  20.624  0.00  0.00    +0.000 A 
BRANCH  17  23
ATOM     23  S   UNL     1      -1.666  12.710  21.654  0.00  0.00    +0.000 S 
ATOM     24  O   UNL     1      -2.900  12.417  20.949  0.00  0.00    +0.000 OA
ATOM     25  O   UNL     1      -0.765  13.744  21.182  0.00  0.00    +0.000 OA
BRANCH  23  27
ATOM     26  C   UNL     1      -1.441  14.254  23.857  0.00  0.00    +0.000 C 
ATOM     27  N   UNL     1      -2.045  13.038  23.290  0.00  0.00    +0.000 NA
ATOM     28  C   UNL     1      -3.463  12.866  23.674  0.00  0.00    +0.000 C 
ENDBRANCH  23  27
ENDBRANCH  17  23
ENDBRANCH  16  21
ENDBRANCH   1  16
TORSDOF 7
ENDMDL
MODEL 9
REMARK VINA RESULT:      -7.5      3.543      7.904
REMARK  Name = 
REMARK  9 active torsions:
REMARK  status: ('A' for Active; 'I' for Inactive)
REMARK    1  A    between atoms: C_1  and  N_2
REMARK    2  A    between atoms: N_2  and  C_3
REMARK    3  A    between atoms: N_2  and  S_4
REMARK    4  A    between atoms: S_4  and  C_7
REMARK    5  A    between atoms: C_11  and  C_12
REMARK    6  A    between atoms: C_12  and  O_13
REMARK    7  A    between atoms: O_13  and  C_14
REMARK    8  A    between atoms: C_14  and  C_16
REMARK    9  A    between atoms: C_16  and  C_17
REMARK                            x       y       z     vdW  Elec       q    Type
REMARK                         _______ _______ _______ _____ _____    ______ ____
ROOT
ATOM      1  O   UNL     1       1.723   8.312  19.309  0.00  0.00    +0.000 OA
ENDROOT
BRANCH   1   2
ATOM      2  C   UNL     1       0.976   9.168  20.065  0.00  0.00    +0.000 C 
ATOM      3  O   UNL     1       0.555   8.917  21.189  0.00  0.00    +0.000 OA
BRANCH   2   4
ATOM      4  C   UNL     1       0.805  10.531  19.367  0.00  0.00    +0.000 C 
ATOM      5  C   UNL     1       1.191  11.679  20.329  0.00  0.00    +0.000 C 
ATOM      6  C   UNL     1       1.591  12.844  19.428  0.00  0.00    +0.000 C 
ATOM      7  C   UNL     1       2.151  12.205  18.163  0.00  0.00    +0.000 C 
ATOM      8  C   UNL     1       1.923  10.701  18.309  0.00  0.00    +0.000 C 
BRANCH   4   9
ATOM      9  C   UNL     1      -0.602  10.610  18.747  0.00  0.00    +0.000 A 
ATOM     10  C   UNL     1      -0.966   9.913  17.580  0.00  0.00    +0.000 A 
ATOM     11  C   UNL     1      -2.218  10.096  16.988  0.00  0.00    +0.000 A 
ATOM     12  C   UNL     1      -3.120  10.986  17.550  0.00  0.00    +0.000 A 
ATOM     13  F   UNL     1      -4.300  11.197  16.954  0.00  0.00    +0.000 F 
ATOM     14  C   UNL     1      -2.808  11.670  18.715  0.00  0.00    +0.000 A 
ATOM     15  C   UNL     1      -1.562  11.473  19.317  0.00  0.00    +0.000 A 
ENDBRANCH   4   9
ENDBRANCH   2   4
ENDBRANCH   1   2
BRANCH   1  16
ATOM     16  C   UNL     1       2.162   7.125  19.985  0.00  0.00    +0.000 C 
BRANCH  16  21
ATOM     17  C   UNL     1       4.389   5.421  17.421  0.00  0.00    +0.000 A 
ATOM     18  C   UNL     1       3.641   4.299  17.068  0.00  0.00    +0.000 A 
ATOM     19  C   UNL     1       2.402   4.089  17.674  0.00  0.00    +0.000 A 
ATOM     20  C   UNL     1       1.922   4.994  18.626  0.00  0.00    +0.000 A 
ATOM     21  C   UNL     1       2.683   6.112  18.998  0.00  0.00    +0.000 A 
ATOM     22  C   UNL     1       3.934   6.305  18.403  0.00  0.00    +0.000 A 
BRANCH  17  23
ATOM     23  S   UNL     1       5.928   5.780  16.607  0.00  0.00    +0.000 S 
ATOM     24  O   UNL     1       5.662   6.761  15.571  0.00  0.00    +0.000 OA
ATOM     25  O   UNL     1       6.563   4.515  16.290  0.00  0.00    +0.000 OA
BRANCH  23  27
ATOM     26  C   UNL     1       7.595   5.636  18.726  0.00  0.00    +0.000 C 
ATOM     27  N   UNL     1       6.834   6.537  17.845  0.00  0.00    +0.000 NA
ATOM     28  C   UNL     1       7.603   7.737  17.446  0.00  0.00    +0.000 C 
ENDBRANCH  23  27
ENDBRANCH  17  23
ENDBRANCH  16  21
ENDBRANCH   1  16
TORSDOF 7
ENDMDL
