MODEL 1
REMARK VINA RESULT:     -10.0      0.000      0.000
REMARK  Name = 
REMARK  8 active torsions:
REMARK  status: ('A' for Active; 'I' for Inactive)
REMARK    1  A    between atoms: C_1  and  C_2
REMARK    2  A    between atoms: C_4  and  O_5
REMARK    3  A    between atoms: O_5  and  C_6
REMARK    4  A    between atoms: C_11  and  N_12
REMARK    5  A    between atoms: N_15  and  C_16
REMARK    6  A    between atoms: C_19  and  O_20
REMARK    7  A    between atoms: O_20  and  C_21
REMARK    8  A    between atoms: N_27  and  C_28
REMARK                            x       y       z     vdW  Elec       q    Type
REMARK                         _______ _______ _______ _____ _____    ______ ____
ROOT
ATOM      1  C   UNL     1       5.584   5.080  17.190  0.00  0.00    +0.000 A 
ATOM      2  C   UNL     1       4.946   4.264  16.234  0.00  0.00    +0.000 A 
ATOM      3  C   UNL     1       5.542   3.999  15.007  0.00  0.00    +0.000 A 
ATOM      4  C   UNL     1       6.817   4.475  14.757  0.00  0.00    +0.000 A 
ATOM      5  C   UNL     1       7.494   5.209  15.736  0.00  0.00    +0.000 A 
ATOM      6  C   UNL     1       6.889   5.555  16.959  0.00  0.00    +0.000 A 
ENDROOT
BRANCH   6   7
ATOM      7  N   UNL     1       7.582   6.350  17.927  0.00  0.00    +0.000 N 
ATOM      8  C   UNL     1       7.749   7.730  17.792  0.00  0.00    +0.000 C 
ATOM      9  O   UNL     1       7.168   8.382  16.930  0.00  0.00    +0.000 OA
ATOM     10  N   UNL     1       8.631   8.283  18.708  0.00  0.00    +0.000 N 
ATOM     11  H   UNL     1       7.666   5.954  18.852  0.00  0.00    +0.000 HD
ATOM     12  H   UNL     1       9.206   7.639  19.235  0.00  0.00    +0.000 HD
BRANCH  10  13
ATOM     13  C   UNL     1       8.916   9.678  18.831  0.00  0.00    +0.000 A 
ATOM     14  C   UNL     1       8.722  10.603  17.796  0.00  0.00    +0.000 A 
ATOM     15  C   UNL     1       8.961  11.970  17.982  0.00  0.00    +0.000 A 
ATOM     16  C   UNL     1       9.385  12.457  19.213  0.00  0.00    +0.000 A 
ATOM     17  C   UNL     1       9.651  11.545  20.232  0.00  0.00    +0.000 A 
ATOM     18  C   UNL     1       9.403  10.169  20.047  0.00  0.00    +0.000 A 
BRANCH  16  19
ATOM     19  O   UNL     1       9.579  13.802  19.268  0.00  0.00    +0.000 OA
BRANCH  19  20
ATOM     20  C   UNL     1      10.905  14.313  19.240  0.00  0.00    +0.000 C 
ATOM     21  F   UNL     1      11.790  13.539  18.579  0.00  0.00    +0.000 F 
ATOM     22  F   UNL     1      10.889  15.534  18.659  0.00  0.00    +0.000 F 
ATOM     23  F   UNL     1      11.346  14.461  20.509  0.00  0.00    +0.000 F 
ENDBRANCH  19  20
ENDBRANCH  16  19
ENDBRANCH  10  13
ENDBRANCH   6   7
BRANCH   1  24
ATOM     24  O   UNL     1       4.927   5.400  18.362  0.00  0.00    +0.000 OA
BRANCH  24  28
ATOM     25  C   UNL     1       1.971   9.340  17.704  0.00  0.00    +0.000 C 
ATOM     26  C   UNL     1       2.534   8.004  18.021  0.00  0.00    +0.000 A 
ATOM     27  C   UNL     1       3.862   7.584  17.837  0.00  0.00    +0.000 A 
ATOM     28  C   UNL     1       3.931   6.302  18.347  0.00  0.00    +0.000 A 
ATOM     29  N   UNL     1       2.659   6.025  18.843  0.00  0.00    +0.000 N 
ATOM     30  N   UNL     1       1.778   7.030  18.539  0.00  0.00    +0.000 NA
BRANCH  29  31
ATOM     31  C   UNL     1       2.208   4.859  19.511  0.00  0.00    +0.000 A 
ATOM     32  C   UNL     1       2.491   4.681  20.877  0.00  0.00    +0.000 A 
ATOM     33  C   UNL     1       1.997   3.560  21.554  0.00  0.00    +0.000 A 
ATOM     34  C   UNL     1       1.253   2.598  20.871  0.00  0.00    +0.000 A 
ATOM     35  C   UNL     1       1.011   2.750  19.508  0.00  0.00    +0.000 A 
ATOM     36  C   UNL     1       1.487   3.874  18.834  0.00  0.00    +0.000 A 
ATOM     37  F   UNL     1       1.304   3.915  17.507  0.00  0.00    +0.000 F 
ENDBRANCH  29  31
ENDBRANCH  24  28
ENDBRANCH   1  24
TORSDOF 7
ENDMDL
MODEL 2
REMARK VINA RESULT:      -9.8      0.866      1.333
REMARK  Name = 
REMARK  8 active torsions:
REMARK  status: ('A' for Active; 'I' for Inactive)
REMARK    1  A    between atoms: C_1  and  C_2
REMARK    2  A    between atoms: C_4  and  O_5
REMARK    3  A    between atoms: O_5  and  C_6
REMARK    4  A    between atoms: C_11  and  N_12
REMARK    5  A    between atoms: N_15  and  C_16
REMARK    6  A    between atoms: C_19  and  O_20
REMARK    7  A    between atoms: O_20  and  C_21
REMARK    8  A    between atoms: N_27  and  C_28
REMARK                            x       y       z     vdW  Elec       q    Type
REMARK                         _______ _______ _______ _____ _____    ______ ____
ROOT
ATOM      1  C   UNL     1       5.552   5.214  17.217  0.00  0.00    +0.000 A 
ATOM      2  C   UNL     1       4.872   4.436  16.258  0.00  0.00    +0.000 A 
ATOM      3  C   UNL     1       5.453   4.147  15.029  0.00  0.00    +0.000 A 
ATOM      4  C   UNL     1       6.751   4.558  14.780  0.00  0.00    +0.000 A 
ATOM      5  C   UNL     1       7.464   5.251  15.762  0.00  0.00    +0.000 A 
ATOM      6  C   UNL     1       6.879   5.623  16.987  0.00  0.00    +0.000 A 
ENDROOT
BRANCH   6   7
ATOM      7  N   UNL     1       7.612   6.377  17.958  0.00  0.00    +0.000 N 
ATOM      8  C   UNL     1       7.766   7.762  17.880  0.00  0.00    +0.000 C 
ATOM      9  O   UNL     1       7.140   8.450  17.078  0.00  0.00    +0.000 OA
ATOM     10  N   UNL     1       8.687   8.279  18.779  0.00  0.00    +0.000 N 
ATOM     11  H   UNL     1       7.743   5.938  18.858  0.00  0.00    +0.000 HD
ATOM     12  H   UNL     1       9.289   7.615  19.247  0.00  0.00    +0.000 HD
BRANCH  10  13
ATOM     13  C   UNL     1       8.969   9.669  18.954  0.00  0.00    +0.000 A 
ATOM     14  C   UNL     1       9.209  10.261  20.201  0.00  0.00    +0.000 A 
ATOM     15  C   UNL     1       9.539  11.617  20.316  0.00  0.00    +0.000 A 
ATOM     16  C   UNL     1       9.656  12.418  19.186  0.00  0.00    +0.000 A 
ATOM     17  C   UNL     1       9.352  11.866  17.944  0.00  0.00    +0.000 A 
ATOM     18  C   UNL     1       9.027  10.498  17.828  0.00  0.00    +0.000 A 
BRANCH  16  19
ATOM     19  O   UNL     1       9.984  13.717  19.429  0.00  0.00    +0.000 OA
BRANCH  19  20
ATOM     20  C   UNL     1       8.980  14.717  19.321  0.00  0.00    +0.000 C 
ATOM     21  F   UNL     1       7.724  14.277  19.543  0.00  0.00    +0.000 F 
ATOM     22  F   UNL     1       9.249  15.701  20.208  0.00  0.00    +0.000 F 
ATOM     23  F   UNL     1       9.022  15.251  18.080  0.00  0.00    +0.000 F 
ENDBRANCH  19  20
ENDBRANCH  16  19
ENDBRANCH  10  13
ENDBRANCH   6   7
BRANCH   1  24
ATOM     24  O   UNL     1       4.913   5.562  18.390  0.00  0.00    +0.000 OA
BRANCH  24  28
ATOM     25  C   UNL     1       1.863   9.427  17.709  0.00  0.00    +0.000 C 
ATOM     26  C   UNL     1       2.457   8.104  18.026  0.00  0.00    +0.000 A 
ATOM     27  C   UNL     1       3.799   7.721  17.862  0.00  0.00    +0.000 A 
ATOM     28  C   UNL     1       3.894   6.437  18.364  0.00  0.00    +0.000 A 
ATOM     29  N   UNL     1       2.621   6.122  18.836  0.00  0.00    +0.000 N 
ATOM     30  N   UNL     1       1.719   7.106  18.525  0.00  0.00    +0.000 NA
BRANCH  29  31
ATOM     31  C   UNL     1       2.190   4.940  19.489  0.00  0.00    +0.000 A 
ATOM     32  C   UNL     1       2.479   4.747  20.852  0.00  0.00    +0.000 A 
ATOM     33  C   UNL     1       2.004   3.609  21.514  0.00  0.00    +0.000 A 
ATOM     34  C   UNL     1       1.274   2.645  20.818  0.00  0.00    +0.000 A 
ATOM     35  C   UNL     1       1.026   2.813  19.458  0.00  0.00    +0.000 A 
ATOM     36  C   UNL     1       1.483   3.954  18.800  0.00  0.00    +0.000 A 
ATOM     37  F   UNL     1       1.297   4.011  17.474  0.00  0.00    +0.000 F 
ENDBRANCH  29  31
ENDBRANCH  24  28
ENDBRANCH   1  24
TORSDOF 7
ENDMDL
MODEL 3
REMARK VINA RESULT:      -9.8      0.872      1.581
REMARK  Name = 
REMARK  8 active torsions:
REMARK  status: ('A' for Active; 'I' for Inactive)
REMARK    1  A    between atoms: C_1  and  C_2
REMARK    2  A    between atoms: C_4  and  O_5
REMARK    3  A    between atoms: O_5  and  C_6
REMARK    4  A    between atoms: C_11  and  N_12
REMARK    5  A    between atoms: N_15  and  C_16
REMARK    6  A    between atoms: C_19  and  O_20
REMARK    7  A    between atoms: O_20  and  C_21
REMARK    8  A    between atoms: N_27  and  C_28
REMARK                            x       y       z     vdW  Elec       q    Type
REMARK                         _______ _______ _______ _____ _____    ______ ____
ROOT
ATOM      1  C   UNL     1       5.511   5.134  17.134  0.00  0.00    +0.000 A 
ATOM      2  C   UNL     1       4.867   4.359  16.149  0.00  0.00    +0.000 A 
ATOM      3  C   UNL     1       5.486   4.086  14.935  0.00  0.00    +0.000 A 
ATOM      4  C   UNL     1       6.787   4.511  14.729  0.00  0.00    +0.000 A 
ATOM      5  C   UNL     1       7.465   5.203  15.737  0.00  0.00    +0.000 A 
ATOM      6  C   UNL     1       6.840   5.557  16.947  0.00  0.00    +0.000 A 
ENDROOT
BRANCH   6   7
ATOM      7  N   UNL     1       7.537   6.310  17.946  0.00  0.00    +0.000 N 
ATOM      8  C   UNL     1       7.736   7.688  17.852  0.00  0.00    +0.000 C 
ATOM      9  O   UNL     1       7.181   8.377  17.001  0.00  0.00    +0.000 OA
ATOM     10  N   UNL     1       8.618   8.196  18.795  0.00  0.00    +0.000 N 
ATOM     11  H   UNL     1       7.600   5.886  18.861  0.00  0.00    +0.000 HD
ATOM     12  H   UNL     1       9.171   7.525  19.310  0.00  0.00    +0.000 HD
BRANCH  10  13
ATOM     13  C   UNL     1       8.932   9.581  18.960  0.00  0.00    +0.000 A 
ATOM     14  C   UNL     1       9.207  10.172  20.201  0.00  0.00    +0.000 A 
ATOM     15  C   UNL     1       9.565  11.521  20.305  0.00  0.00    +0.000 A 
ATOM     16  C   UNL     1       9.678  12.316  19.171  0.00  0.00    +0.000 A 
ATOM     17  C   UNL     1       9.339  11.766  17.936  0.00  0.00    +0.000 A 
ATOM     18  C   UNL     1       8.985  10.406  17.830  0.00  0.00    +0.000 A 
BRANCH  16  19
ATOM     19  O   UNL     1      10.036  13.608  19.404  0.00  0.00    +0.000 OA
BRANCH  19  20
ATOM     20  C   UNL     1      11.329  14.050  19.013  0.00  0.00    +0.000 C 
ATOM     21  F   UNL     1      11.779  15.130  19.685  0.00  0.00    +0.000 F 
ATOM     22  F   UNL     1      12.208  13.039  19.194  0.00  0.00    +0.000 F 
ATOM     23  F   UNL     1      11.310  14.355  17.696  0.00  0.00    +0.000 F 
ENDBRANCH  19  20
ENDBRANCH  16  19
ENDBRANCH  10  13
ENDBRANCH   6   7
BRANCH   1  24
ATOM     24  O   UNL     1       4.834   5.465  18.292  0.00  0.00    +0.000 OA
BRANCH  24  28
ATOM     25  C   UNL     1       1.968   9.485  17.721  0.00  0.00    +0.000 C 
ATOM     26  C   UNL     1       2.492   8.115  17.949  0.00  0.00    +0.000 A 
ATOM     27  C   UNL     1       3.835   7.707  17.893  0.00  0.00    +0.000 A 
ATOM     28  C   UNL     1       3.844   6.373  18.252  0.00  0.00    +0.000 A 
ATOM     29  N   UNL     1       2.519   6.052  18.541  0.00  0.00    +0.000 N 
ATOM     30  N   UNL     1       1.680   7.094  18.245  0.00  0.00    +0.000 NA
BRANCH  29  31
ATOM     31  C   UNL     1       1.990   4.820  19.002  0.00  0.00    +0.000 A 
ATOM     32  C   UNL     1       1.675   3.805  18.081  0.00  0.00    +0.000 A 
ATOM     33  C   UNL     1       1.209   2.567  18.537  0.00  0.00    +0.000 A 
ATOM     34  C   UNL     1       1.019   2.346  19.901  0.00  0.00    +0.000 A 
ATOM     35  C   UNL     1       1.287   3.366  20.810  0.00  0.00    +0.000 A 
ATOM     36  C   UNL     1       1.768   4.595  20.361  0.00  0.00    +0.000 A 
ATOM     37  F   UNL     1       1.914   5.565  21.274  0.00  0.00    +0.000 F 
ENDBRANCH  29  31
ENDBRANCH  24  28
ENDBRANCH   1  24
TORSDOF 7
ENDMDL
MODEL 4
REMARK VINA RESULT:      -9.7      0.842      1.229
REMARK  Name = 
REMARK  8 active torsions:
REMARK  status: ('A' for Active; 'I' for Inactive)
REMARK    1  A    between atoms: C_1  and  C_2
REMARK    2  A    between atoms: C_4  and  O_5
REMARK    3  A    between atoms: O_5  and  C_6
REMARK    4  A    between atoms: C_11  and  N_12
REMARK    5  A    between atoms: N_15  and  C_16
REMARK    6  A    between atoms: C_19  and  O_20
REMARK    7  A    between atoms: O_20  and  C_21
REMARK    8  A    between atoms: N_27  and  C_28
REMARK                            x       y       z     vdW  Elec       q    Type
REMARK                         _______ _______ _______ _____ _____    ______ ____
ROOT
ATOM      1  C   UNL     1       5.534   5.086  17.111  0.00  0.00    +0.000 A 
ATOM      2  C   UNL     1       4.913   4.277  16.137  0.00  0.00    +0.000 A 
ATOM      3  C   UNL     1       5.539   4.008  14.926  0.00  0.00    +0.000 A 
ATOM      4  C   UNL     1       6.826   4.470  14.712  0.00  0.00    +0.000 A 
ATOM      5  C   UNL     1       7.483   5.196  15.709  0.00  0.00    +0.000 A 
ATOM      6  C   UNL     1       6.849   5.548  16.916  0.00  0.00    +0.000 A 
ENDROOT
BRANCH   6   7
ATOM      7  N   UNL     1       7.524   6.335  17.903  0.00  0.00    +0.000 N 
ATOM      8  C   UNL     1       7.717   7.711  17.770  0.00  0.00    +0.000 C 
ATOM      9  O   UNL     1       7.173   8.370  16.888  0.00  0.00    +0.000 OA
ATOM     10  N   UNL     1       8.579   8.253  18.712  0.00  0.00    +0.000 N 
ATOM     11  H   UNL     1       7.574   5.940  18.831  0.00  0.00    +0.000 HD
ATOM     12  H   UNL     1       9.127   7.602  19.257  0.00  0.00    +0.000 HD
BRANCH  10  13
ATOM     13  C   UNL     1       8.881   9.644  18.839  0.00  0.00    +0.000 A 
ATOM     14  C   UNL     1       8.765  10.563  17.788  0.00  0.00    +0.000 A 
ATOM     15  C   UNL     1       9.018  11.927  17.976  0.00  0.00    +0.000 A 
ATOM     16  C   UNL     1       9.377  12.417  19.227  0.00  0.00    +0.000 A 
ATOM     17  C   UNL     1       9.567  11.510  20.267  0.00  0.00    +0.000 A 
ATOM     18  C   UNL     1       9.305  10.137  20.079  0.00  0.00    +0.000 A 
BRANCH  16  19
ATOM     19  O   UNL     1       9.592  13.759  19.282  0.00  0.00    +0.000 OA
BRANCH  19  20
ATOM     20  C   UNL     1      10.801  14.290  18.755  0.00  0.00    +0.000 C 
ATOM     21  F   UNL     1      10.726  14.679  17.465  0.00  0.00    +0.000 F 
ATOM     22  F   UNL     1      11.171  15.355  19.501  0.00  0.00    +0.000 F 
ATOM     23  F   UNL     1      11.772  13.355  18.853  0.00  0.00    +0.000 F 
ENDBRANCH  19  20
ENDBRANCH  16  19
ENDBRANCH  10  13
ENDBRANCH   6   7
BRANCH   1  24
ATOM     24  O   UNL     1       4.849   5.412  18.265  0.00  0.00    +0.000 OA
BRANCH  24  28
ATOM     25  C   UNL     1       2.090   9.508  17.703  0.00  0.00    +0.000 C 
ATOM     26  C   UNL     1       2.579   8.125  17.931  0.00  0.00    +0.000 A 
ATOM     27  C   UNL     1       3.909   7.680  17.867  0.00  0.00    +0.000 A 
ATOM     28  C   UNL     1       3.884   6.347  18.230  0.00  0.00    +0.000 A 
ATOM     29  N   UNL     1       2.552   6.063  18.527  0.00  0.00    +0.000 N 
ATOM     30  N   UNL     1       1.740   7.127  18.234  0.00  0.00    +0.000 NA
BRANCH  29  31
ATOM     31  C   UNL     1       1.993   4.847  18.994  0.00  0.00    +0.000 A 
ATOM     32  C   UNL     1       1.695   3.817  18.083  0.00  0.00    +0.000 A 
ATOM     33  C   UNL     1       1.197   2.594  18.547  0.00  0.00    +0.000 A 
ATOM     34  C   UNL     1       0.961   2.403  19.909  0.00  0.00    +0.000 A 
ATOM     35  C   UNL     1       1.213   3.437  20.806  0.00  0.00    +0.000 A 
ATOM     36  C   UNL     1       1.725   4.651  20.350  0.00  0.00    +0.000 A 
ATOM     37  F   UNL     1       1.854   5.637  21.248  0.00  0.00    +0.000 F 
ENDBRANCH  29  31
ENDBRANCH  24  28
ENDBRANCH   1  24
TORSDOF 7
ENDMDL
MODEL 5
REMARK VINA RESULT:      -9.7      0.991      1.125
REMARK  Name = 
REMARK  8 active torsions:
REMARK  status: ('A' for Active; 'I' for Inactive)
REMARK    1  A    between atoms: C_1  and  C_2
REMARK    2  A    between atoms: C_4  and  O_5
REMARK    3  A    between atoms: O_5  and  C_6
REMARK    4  A    between atoms: C_11  and  N_12
REMARK    5  A    between atoms: N_15  and  C_16
REMARK    6  A    between atoms: C_19  and  O_20
REMARK    7  A    between atoms: O_20  and  C_21
REMARK    8  A    between atoms: N_27  and  C_28
REMARK                            x       y       z     vdW  Elec       q    Type
REMARK                         _______ _______ _______ _____ _____    ______ ____
ROOT
ATOM      1  C   UNL     1       5.544   5.214  17.333  0.00  0.00    +0.000 A 
ATOM      2  C   UNL     1       4.861   4.392  16.413  0.00  0.00    +0.000 A 
ATOM      3  C   UNL     1       5.438   4.047  15.197  0.00  0.00    +0.000 A 
ATOM      4  C   UNL     1       6.735   4.447  14.925  0.00  0.00    +0.000 A 
ATOM      5  C   UNL     1       7.451   5.185  15.871  0.00  0.00    +0.000 A 
ATOM      6  C   UNL     1       6.870   5.612  17.080  0.00  0.00    +0.000 A 
ENDROOT
BRANCH   6   7
ATOM      7  N   UNL     1       7.606   6.411  18.013  0.00  0.00    +0.000 N 
ATOM      8  C   UNL     1       7.766   7.790  17.866  0.00  0.00    +0.000 C 
ATOM      9  O   UNL     1       7.146   8.439  17.029  0.00  0.00    +0.000 OA
ATOM     10  N   UNL     1       8.689   8.347  18.739  0.00  0.00    +0.000 N 
ATOM     11  H   UNL     1       7.733   6.018  18.934  0.00  0.00    +0.000 HD
ATOM     12  H   UNL     1       9.288   7.704  19.240  0.00  0.00    +0.000 HD
BRANCH  10  13
ATOM     13  C   UNL     1       8.979   9.742  18.843  0.00  0.00    +0.000 A 
ATOM     14  C   UNL     1       8.903  10.633  17.764  0.00  0.00    +0.000 A 
ATOM     15  C   UNL     1       9.140  12.003  17.928  0.00  0.00    +0.000 A 
ATOM     16  C   UNL     1       9.443  12.527  19.180  0.00  0.00    +0.000 A 
ATOM     17  C   UNL     1       9.593  11.648  20.250  0.00  0.00    +0.000 A 
ATOM     18  C   UNL     1       9.347  10.270  20.086  0.00  0.00    +0.000 A 
BRANCH  16  19
ATOM     19  O   UNL     1       9.649  13.872  19.210  0.00  0.00    +0.000 OA
BRANCH  19  20
ATOM     20  C   UNL     1       8.666  14.711  19.801  0.00  0.00    +0.000 C 
ATOM     21  F   UNL     1       8.935  15.082  21.069  0.00  0.00    +0.000 F 
ATOM     22  F   UNL     1       8.537  15.827  19.048  0.00  0.00    +0.000 F 
ATOM     23  F   UNL     1       7.478  14.066  19.797  0.00  0.00    +0.000 F 
ENDBRANCH  19  20
ENDBRANCH  16  19
ENDBRANCH  10  13
ENDBRANCH   6   7
BRANCH   1  24
ATOM     24  O   UNL     1       4.908   5.615  18.492  0.00  0.00    +0.000 OA
BRANCH  24  28
ATOM     25  C   UNL     1       1.814   9.423  17.699  0.00  0.00    +0.000 C 
ATOM     26  C   UNL     1       2.421   8.111  18.036  0.00  0.00    +0.000 A 
ATOM     27  C   UNL     1       3.775   7.755  17.926  0.00  0.00    +0.000 A 
ATOM     28  C   UNL     1       3.874   6.471  18.427  0.00  0.00    +0.000 A 
ATOM     29  N   UNL     1       2.590   6.129  18.845  0.00  0.00    +0.000 N 
ATOM     30  N   UNL     1       1.682   7.096  18.500  0.00  0.00    +0.000 NA
BRANCH  29  31
ATOM     31  C   UNL     1       2.155   4.936  19.475  0.00  0.00    +0.000 A 
ATOM     32  C   UNL     1       2.428   4.724  20.838  0.00  0.00    +0.000 A 
ATOM     33  C   UNL     1       1.950   3.575  21.477  0.00  0.00    +0.000 A 
ATOM     34  C   UNL     1       1.233   2.618  20.759  0.00  0.00    +0.000 A 
ATOM     35  C   UNL     1       1.001   2.805  19.399  0.00  0.00    +0.000 A 
ATOM     36  C   UNL     1       1.461   3.957  18.763  0.00  0.00    +0.000 A 
ATOM     37  F   UNL     1       1.291   4.032  17.436  0.00  0.00    +0.000 F 
ENDBRANCH  29  31
ENDBRANCH  24  28
ENDBRANCH   1  24
TORSDOF 7
ENDMDL
MODEL 6
REMARK VINA RESULT:      -9.6      1.179      1.729
REMARK  Name = 
REMARK  8 active torsions:
REMARK  status: ('A' for Active; 'I' for Inactive)
REMARK    1  A    between atoms: C_1  and  C_2
REMARK    2  A    between atoms: C_4  and  O_5
REMARK    3  A    between atoms: O_5  and  C_6
REMARK    4  A    between atoms: C_11  and  N_12
REMARK    5  A    between atoms: N_15  and  C_16
REMARK    6  A    between atoms: C_19  and  O_20
REMARK    7  A    between atoms: O_20  and  C_21
REMARK    8  A    between atoms: N_27  and  C_28
REMARK                            x       y       z     vdW  Elec       q    Type
REMARK                         _______ _______ _______ _____ _____    ______ ____
ROOT
ATOM      1  C   UNL     1       5.549   5.147  17.188  0.00  0.00    +0.000 A 
ATOM      2  C   UNL     1       4.889   4.355  16.226  0.00  0.00    +0.000 A 
ATOM      3  C   UNL     1       5.496   4.048  15.014  0.00  0.00    +0.000 A 
ATOM      4  C   UNL     1       6.799   4.456  14.787  0.00  0.00    +0.000 A 
ATOM      5  C   UNL     1       7.492   5.164  15.773  0.00  0.00    +0.000 A 
ATOM      6  C   UNL     1       6.881   5.553  16.980  0.00  0.00    +0.000 A 
ENDROOT
BRANCH   6   7
ATOM      7  N   UNL     1       7.593   6.321  17.955  0.00  0.00    +0.000 N 
ATOM      8  C   UNL     1       7.747   7.706  17.861  0.00  0.00    +0.000 C 
ATOM      9  O   UNL     1       7.138   8.382  17.036  0.00  0.00    +0.000 OA
ATOM     10  N   UNL     1       8.650   8.236  18.771  0.00  0.00    +0.000 N 
ATOM     11  H   UNL     1       7.706   5.896  18.863  0.00  0.00    +0.000 HD
ATOM     12  H   UNL     1       9.243   7.580  19.260  0.00  0.00    +0.000 HD
BRANCH  10  13
ATOM     13  C   UNL     1       8.927   9.629  18.932  0.00  0.00    +0.000 A 
ATOM     14  C   UNL     1       9.259  10.218  20.160  0.00  0.00    +0.000 A 
ATOM     15  C   UNL     1       9.579  11.577  20.257  0.00  0.00    +0.000 A 
ATOM     16  C   UNL     1       9.595  12.386  19.127  0.00  0.00    +0.000 A 
ATOM     17  C   UNL     1       9.199  11.836  17.909  0.00  0.00    +0.000 A 
ATOM     18  C   UNL     1       8.884  10.465  17.810  0.00  0.00    +0.000 A 
BRANCH  16  19
ATOM     19  O   UNL     1       9.924  13.687  19.351  0.00  0.00    +0.000 OA
BRANCH  19  20
ATOM     20  C   UNL     1       8.916  14.684  19.254  0.00  0.00    +0.000 C 
ATOM     21  F   UNL     1       9.105  15.752  20.056  0.00  0.00    +0.000 F 
ATOM     22  F   UNL     1       8.853  15.117  17.975  0.00  0.00    +0.000 F 
ATOM     23  F   UNL     1       7.721  14.133  19.567  0.00  0.00    +0.000 F 
ENDBRANCH  19  20
ENDBRANCH  16  19
ENDBRANCH  10  13
ENDBRANCH   6   7
BRANCH   1  24
ATOM     24  O   UNL     1       4.886   5.512  18.342  0.00  0.00    +0.000 OA
BRANCH  24  28
ATOM     25  C   UNL     1       1.897   9.432  17.709  0.00  0.00    +0.000 C 
ATOM     26  C   UNL     1       2.463   8.081  17.950  0.00  0.00    +0.000 A 
ATOM     27  C   UNL     1       3.820   7.718  17.922  0.00  0.00    +0.000 A 
ATOM     28  C   UNL     1       3.866   6.386  18.282  0.00  0.00    +0.000 A 
ATOM     29  N   UNL     1       2.547   6.019  18.543  0.00  0.00    +0.000 N 
ATOM     30  N   UNL     1       1.680   7.033  18.229  0.00  0.00    +0.000 NA
BRANCH  29  31
ATOM     31  C   UNL     1       2.051   4.771  18.994  0.00  0.00    +0.000 A 
ATOM     32  C   UNL     1       1.690   3.782  18.062  0.00  0.00    +0.000 A 
ATOM     33  C   UNL     1       1.255   2.528  18.504  0.00  0.00    +0.000 A 
ATOM     34  C   UNL     1       1.145   2.263  19.869  0.00  0.00    +0.000 A 
ATOM     35  C   UNL     1       1.459   3.256  20.793  0.00  0.00    +0.000 A 
ATOM     36  C   UNL     1       1.908   4.501  20.356  0.00  0.00    +0.000 A 
ATOM     37  F   UNL     1       2.102   5.444  21.289  0.00  0.00    +0.000 F 
ENDBRANCH  29  31
ENDBRANCH  24  28
ENDBRANCH   1  24
TORSDOF 7
ENDMDL
MODEL 7
REMARK VINA RESULT:      -9.5      1.259      1.624
REMARK  Name = 
REMARK  8 active torsions:
REMARK  status: ('A' for Active; 'I' for Inactive)
REMARK    1  A    between atoms: C_1  and  C_2
REMARK    2  A    between atoms: C_4  and  O_5
REMARK    3  A    between atoms: O_5  and  C_6
REMARK    4  A    between atoms: C_11  and  N_12
REMARK    5  A    between atoms: N_15  and  C_16
REMARK    6  A    between atoms: C_19  and  O_20
REMARK    7  A    between atoms: O_20  and  C_21
REMARK    8  A    between atoms: N_27  and  C_28
REMARK                            x       y       z     vdW  Elec       q    Type
REMARK                         _______ _______ _______ _____ _____    ______ ____
ROOT
ATOM      1  C   UNL     1       5.530   5.084  17.206  0.00  0.00    +0.000 A 
ATOM      2  C   UNL     1       4.897   4.256  16.256  0.00  0.00    +0.000 A 
ATOM      3  C   UNL     1       5.516   3.948  15.050  0.00  0.00    +0.000 A 
ATOM      4  C   UNL     1       6.806   4.393  14.819  0.00  0.00    +0.000 A 
ATOM      5  C   UNL     1       7.474   5.139  15.795  0.00  0.00    +0.000 A 
ATOM      6  C   UNL     1       6.848   5.528  16.994  0.00  0.00    +0.000 A 
ENDROOT
BRANCH   6   7
ATOM      7  N   UNL     1       7.534   6.335  17.958  0.00  0.00    +0.000 N 
ATOM      8  C   UNL     1       7.733   7.707  17.791  0.00  0.00    +0.000 C 
ATOM      9  O   UNL     1       7.185   8.347  16.898  0.00  0.00    +0.000 OA
ATOM     10  N   UNL     1       8.604   8.267  18.713  0.00  0.00    +0.000 N 
ATOM     11  H   UNL     1       7.588   5.961  18.894  0.00  0.00    +0.000 HD
ATOM     12  H   UNL     1       9.152   7.625  19.270  0.00  0.00    +0.000 HD
BRANCH  10  13
ATOM     13  C   UNL     1       8.914   9.658  18.806  0.00  0.00    +0.000 A 
ATOM     14  C   UNL     1       8.664  10.579  17.780  0.00  0.00    +0.000 A 
ATOM     15  C   UNL     1       8.933  11.944  17.939  0.00  0.00    +0.000 A 
ATOM     16  C   UNL     1       9.442  12.433  19.137  0.00  0.00    +0.000 A 
ATOM     17  C   UNL     1       9.764  11.525  20.143  0.00  0.00    +0.000 A 
ATOM     18  C   UNL     1       9.486  10.151  19.985  0.00  0.00    +0.000 A 
BRANCH  16  19
ATOM     19  O   UNL     1       9.657  13.776  19.168  0.00  0.00    +0.000 OA
BRANCH  19  20
ATOM     20  C   UNL     1       8.571  14.645  19.459  0.00  0.00    +0.000 C 
ATOM     21  F   UNL     1       7.536  14.057  20.093  0.00  0.00    +0.000 F 
ATOM     22  F   UNL     1       9.022  15.662  20.229  0.00  0.00    +0.000 F 
ATOM     23  F   UNL     1       8.108  15.172  18.303  0.00  0.00    +0.000 F 
ENDBRANCH  19  20
ENDBRANCH  16  19
ENDBRANCH  10  13
ENDBRANCH   6   7
BRANCH   1  24
ATOM     24  O   UNL     1       4.852   5.446  18.353  0.00  0.00    +0.000 OA
BRANCH  24  28
ATOM     25  C   UNL     1       1.958   9.432  17.692  0.00  0.00    +0.000 C 
ATOM     26  C   UNL     1       2.491   8.070  17.942  0.00  0.00    +0.000 A 
ATOM     27  C   UNL     1       3.839   7.675  17.917  0.00  0.00    +0.000 A 
ATOM     28  C   UNL     1       3.854   6.344  18.287  0.00  0.00    +0.000 A 
ATOM     29  N   UNL     1       2.526   6.011  18.551  0.00  0.00    +0.000 N 
ATOM     30  N   UNL     1       1.683   7.043  18.230  0.00  0.00    +0.000 NA
BRANCH  29  31
ATOM     31  C   UNL     1       2.001   4.778  19.011  0.00  0.00    +0.000 A 
ATOM     32  C   UNL     1       1.643   3.781  18.086  0.00  0.00    +0.000 A 
ATOM     33  C   UNL     1       1.179   2.541  18.538  0.00  0.00    +0.000 A 
ATOM     34  C   UNL     1       1.035   2.300  19.905  0.00  0.00    +0.000 A 
ATOM     35  C   UNL     1       1.346   3.302  20.820  0.00  0.00    +0.000 A 
ATOM     36  C   UNL     1       1.825   4.533  20.373  0.00  0.00    +0.000 A 
ATOM     37  F   UNL     1       2.014   5.487  21.295  0.00  0.00    +0.000 F 
ENDBRANCH  29  31
ENDBRANCH  24  28
ENDBRANCH   1  24
TORSDOF 7
ENDMDL
MODEL 8
REMARK VINA RESULT:      -9.3      1.601      3.245
REMARK  Name = 
REMARK  8 active torsions:
REMARK  status: ('A' for Active; 'I' for Inactive)
REMARK    1  A    between atoms: C_1  and  C_2
REMARK    2  A    between atoms: C_4  and  O_5
REMARK    3  A    between atoms: O_5  and  C_6
REMARK    4  A    between atoms: C_11  and  N_12
REMARK    5  A    between atoms: N_15  and  C_16
REMARK    6  A    between atoms: C_19  and  O_20
REMARK    7  A    between atoms: O_20  and  C_21
REMARK    8  A    between atoms: N_27  and  C_28
REMARK                            x       y       z     vdW  Elec       q    Type
REMARK                         _______ _______ _______ _____ _____    ______ ____
ROOT
ATOM      1  C   UNL     1       5.424   5.566  17.617  0.00  0.00    +0.000 A 
ATOM      2  C   UNL     1       4.682   4.745  16.745  0.00  0.00    +0.000 A 
ATOM      3  C   UNL     1       5.268   4.186  15.616  0.00  0.00    +0.000 A 
ATOM      4  C   UNL     1       6.622   4.370  15.395  0.00  0.00    +0.000 A 
ATOM      5  C   UNL     1       7.385   5.108  16.305  0.00  0.00    +0.000 A 
ATOM      6  C   UNL     1       6.806   5.747  17.417  0.00  0.00    +0.000 A 
ENDROOT
BRANCH   6   7
ATOM      7  N   UNL     1       7.597   6.540  18.309  0.00  0.00    +0.000 N 
ATOM      8  C   UNL     1       7.831   7.901  18.104  0.00  0.00    +0.000 C 
ATOM      9  O   UNL     1       7.237   8.550  17.248  0.00  0.00    +0.000 OA
ATOM     10  N   UNL     1       8.795   8.440  18.944  0.00  0.00    +0.000 N 
ATOM     11  H   UNL     1       7.714   6.177  19.244  0.00  0.00    +0.000 HD
ATOM     12  H   UNL     1       9.363   7.786  19.465  0.00  0.00    +0.000 HD
BRANCH  10  13
ATOM     13  C   UNL     1       9.163   9.820  18.989  0.00  0.00    +0.000 A 
ATOM     14  C   UNL     1       9.418  10.592  17.848  0.00  0.00    +0.000 A 
ATOM     15  C   UNL     1       9.719  11.956  17.939  0.00  0.00    +0.000 A 
ATOM     16  C   UNL     1       9.756  12.595  19.174  0.00  0.00    +0.000 A 
ATOM     17  C   UNL     1       9.574  11.830  20.324  0.00  0.00    +0.000 A 
ATOM     18  C   UNL     1       9.264  10.457  20.231  0.00  0.00    +0.000 A 
BRANCH  16  19
ATOM     19  O   UNL     1      10.056  13.921  19.130  0.00  0.00    +0.000 OA
BRANCH  19  20
ATOM     20  C   UNL     1       9.032  14.873  19.384  0.00  0.00    +0.000 C 
ATOM     21  F   UNL     1       9.102  15.988  18.628  0.00  0.00    +0.000 F 
ATOM     22  F   UNL     1       7.832  14.287  19.170  0.00  0.00    +0.000 F 
ATOM     23  F   UNL     1       9.088  15.245  20.682  0.00  0.00    +0.000 F 
ENDBRANCH  19  20
ENDBRANCH  16  19
ENDBRANCH  10  13
ENDBRANCH   6   7
BRANCH   1  24
ATOM     24  O   UNL     1       4.791   6.181  18.679  0.00  0.00    +0.000 OA
BRANCH  24  28
ATOM     25  C   UNL     1       2.011   2.968  21.258  0.00  0.00    +0.000 C 
ATOM     26  C   UNL     1       2.562   4.165  20.574  0.00  0.00    +0.000 A 
ATOM     27  C   UNL     1       3.785   4.256  19.889  0.00  0.00    +0.000 A 
ATOM     28  C   UNL     1       3.829   5.529  19.354  0.00  0.00    +0.000 A 
ATOM     29  N   UNL     1       2.623   6.129  19.711  0.00  0.00    +0.000 N 
ATOM     30  N   UNL     1       1.899   5.327  20.553  0.00  0.00    +0.000 NA
BRANCH  29  31
ATOM     31  C   UNL     1       2.147   7.421  19.373  0.00  0.00    +0.000 A 
ATOM     32  C   UNL     1       2.279   7.894  18.055  0.00  0.00    +0.000 A 
ATOM     33  C   UNL     1       1.758   9.145  17.704  0.00  0.00    +0.000 A 
ATOM     34  C   UNL     1       1.138   9.942  18.666  0.00  0.00    +0.000 A 
ATOM     35  C   UNL     1       1.047   9.495  19.981  0.00  0.00    +0.000 A 
ATOM     36  C   UNL     1       1.549   8.242  20.331  0.00  0.00    +0.000 A 
ATOM     37  F   UNL     1       1.518   7.910  21.629  0.00  0.00    +0.000 F 
ENDBRANCH  29  31
ENDBRANCH  24  28
ENDBRANCH   1  24
TORSDOF 7
ENDMDL
MODEL 9
REMARK VINA RESULT:      -9.2      1.357      3.168
REMARK  Name = 
REMARK  8 active torsions:
REMARK  status: ('A' for Active; 'I' for Inactive)
REMARK    1  A    between atoms: C_1  and  C_2
REMARK    2  A    between atoms: C_4  and  O_5
REMARK    3  A    between atoms: O_5  and  C_6
REMARK    4  A    between atoms: C_11  and  N_12
REMARK    5  A    between atoms: N_15  and  C_16
REMARK    6  A    between atoms: C_19  and  O_20
REMARK    7  A    between atoms: O_20  and  C_21
REMARK    8  A    between atoms: N_27  and  C_28
REMARK                            x       y       z     vdW  Elec       q    Type
REMARK                         _______ _______ _______ _____ _____    ______ ____
ROOT
ATOM      1  C   UNL     1       5.433   5.468  17.435  0.00  0.00    +0.000 A 
ATOM      2  C   UNL     1       4.707   4.661  16.535  0.00  0.00    +0.000 A 
ATOM      3  C   UNL     1       5.292   4.190  15.366  0.00  0.00    +0.000 A 
ATOM      4  C   UNL     1       6.631   4.446  15.127  0.00  0.00    +0.000 A 
ATOM      5  C   UNL     1       7.381   5.168  16.060  0.00  0.00    +0.000 A 
ATOM      6  C   UNL     1       6.800   5.721  17.217  0.00  0.00    +0.000 A 
ENDROOT
BRANCH   6   7
ATOM      7  N   UNL     1       7.576   6.501  18.133  0.00  0.00    +0.000 N 
ATOM      8  C   UNL     1       7.776   7.874  17.977  0.00  0.00    +0.000 C 
ATOM      9  O   UNL     1       7.161   8.538  17.148  0.00  0.00    +0.000 OA
ATOM     10  N   UNL     1       8.730   8.405  18.832  0.00  0.00    +0.000 N 
ATOM     11  H   UNL     1       7.707   6.107  19.054  0.00  0.00    +0.000 HD
ATOM     12  H   UNL     1       9.317   7.747  19.326  0.00  0.00    +0.000 HD
BRANCH  10  13
ATOM     13  C   UNL     1       9.064   9.792  18.925  0.00  0.00    +0.000 A 
ATOM     14  C   UNL     1       9.216  10.473  20.140  0.00  0.00    +0.000 A 
ATOM     15  C   UNL     1       9.600  11.819  20.182  0.00  0.00    +0.000 A 
ATOM     16  C   UNL     1       9.861  12.520  19.010  0.00  0.00    +0.000 A 
ATOM     17  C   UNL     1       9.646  11.881  17.791  0.00  0.00    +0.000 A 
ATOM     18  C   UNL     1       9.266  10.524  17.750  0.00  0.00    +0.000 A 
BRANCH  16  19
ATOM     19  O   UNL     1      10.228  13.819  19.183  0.00  0.00    +0.000 OA
BRANCH  19  20
ATOM     20  C   UNL     1      11.294  14.125  20.071  0.00  0.00    +0.000 C 
ATOM     21  F   UNL     1      12.331  13.264  20.021  0.00  0.00    +0.000 F 
ATOM     22  F   UNL     1      11.755  15.364  19.787  0.00  0.00    +0.000 F 
ATOM     23  F   UNL     1      10.822  14.137  21.338  0.00  0.00    +0.000 F 
ENDBRANCH  19  20
ENDBRANCH  16  19
ENDBRANCH  10  13
ENDBRANCH   6   7
BRANCH   1  24
ATOM     24  O   UNL     1       4.798   5.997  18.541  0.00  0.00    +0.000 OA
BRANCH  24  28
ATOM     25  C   UNL     1       1.779   2.689  20.696  0.00  0.00    +0.000 C 
ATOM     26  C   UNL     1       2.407   3.918  20.149  0.00  0.00    +0.000 A 
ATOM     27  C   UNL     1       3.662   4.016  19.526  0.00  0.00    +0.000 A 
ATOM     28  C   UNL     1       3.781   5.329  19.114  0.00  0.00    +0.000 A 
ATOM     29  N   UNL     1       2.586   5.948  19.474  0.00  0.00    +0.000 N 
ATOM     30  N   UNL     1       1.793   5.104  20.207  0.00  0.00    +0.000 NA
BRANCH  29  31
ATOM     31  C   UNL     1       2.177   7.284  19.237  0.00  0.00    +0.000 A 
ATOM     32  C   UNL     1       2.384   7.867  17.974  0.00  0.00    +0.000 A 
ATOM     33  C   UNL     1       1.929   9.165  17.719  0.00  0.00    +0.000 A 
ATOM     34  C   UNL     1       1.302   9.901  18.725  0.00  0.00    +0.000 A 
ATOM     35  C   UNL     1       1.138   9.342  19.990  0.00  0.00    +0.000 A 
ATOM     36  C   UNL     1       1.574   8.042  20.242  0.00  0.00    +0.000 A 
ATOM     37  F   UNL     1       1.475   7.597  21.502  0.00  0.00    +0.000 F 
ENDBRANCH  29  31
ENDBRANCH  24  28
ENDBRANCH   1  24
TORSDOF 7
ENDMDL
