MODEL 1
REMARK VINA RESULT:      -8.1      0.000      0.000
REMARK  Name = 
REMARK  8 active torsions:
REMARK  status: ('A' for Active; 'I' for Inactive)
REMARK    1  A    between atoms: C_1  and  O_2
REMARK    2  A    between atoms: O_2  and  C_3
REMARK    3  A    between atoms: C_7  and  C_8
REMARK    4  A    between atoms: C_8  and  O_9
REMARK    5  A    between atoms: O_9  and  C_10
REMARK    6  A    between atoms: C_10  and  C_11
REMARK    7  A    between atoms: N_18  and  C_19
REMARK    8  A    between atoms: C_19  and  C_20
REMARK                            x       y       z     vdW  Elec       q    Type
REMARK                         _______ _______ _______ _____ _____    ______ ____
ROOT
ATOM      1  C   UNL     1       5.186   5.449  17.141  0.00  0.00    +0.000 C 
ATOM      2  C   UNL     1       5.596   6.900  16.765  0.00  0.00    +0.000 C 
ATOM      3  O   UNL     1       7.007   7.158  16.812  0.00  0.00    +0.000 OA
ATOM      4  C   UNL     1       7.514   6.995  18.154  0.00  0.00    +0.000 C 
ATOM      5  S   UNL     1       7.320   5.336  18.844  0.00  0.00    +0.000 S 
ATOM      6  O   UNL     1       8.019   4.374  18.013  0.00  0.00    +0.000 OA
ATOM      7  O   UNL     1       7.568   5.401  20.265  0.00  0.00    +0.000 OA
ATOM      8  N   UNL     1       5.647   5.115  18.555  0.00  0.00    +0.000 NA
ENDROOT
BRANCH   1   9
ATOM      9  C   UNL     1       5.603   4.429  16.056  0.00  0.00    +0.000 C 
BRANCH   9  10
ATOM     10  O   UNL     1       5.564   5.068  14.765  0.00  0.00    +0.000 OA
BRANCH  10  11
ATOM     11  C   UNL     1       6.546   4.543  13.867  0.00  0.00    +0.000 C 
BRANCH  11  16
ATOM     12  C   UNL     1       5.927   1.721  11.344  0.00  0.00    +0.000 A 
ATOM     13  C   UNL     1       4.681   2.091  10.836  0.00  0.00    +0.000 A 
ATOM     14  C   UNL     1       4.035   3.232  11.309  0.00  0.00    +0.000 A 
ATOM     15  C   UNL     1       4.636   4.014  12.298  0.00  0.00    +0.000 A 
ATOM     16  C   UNL     1       5.887   3.664  12.824  0.00  0.00    +0.000 A 
ATOM     17  C   UNL     1       6.528   2.508  12.333  0.00  0.00    +0.000 A 
BRANCH  12  19
ATOM     18  C   UNL     1       6.058  -0.656  11.348  0.00  0.00    +0.000 C 
ATOM     19  O   UNL     1       6.450   0.587  10.785  0.00  0.00    +0.000 OA
ENDBRANCH  12  19
ENDBRANCH  11  16
ENDBRANCH  10  11
ENDBRANCH   9  10
ENDBRANCH   1   9
BRANCH   8  20
ATOM     20  C   UNL     1       5.078   3.848  19.090  0.00  0.00    +0.000 C 
BRANCH  20  21
ATOM     21  C   UNL     1       3.601   3.898  19.407  0.00  0.00    +0.000 A 
ATOM     22  C   UNL     1       2.691   3.071  18.731  0.00  0.00    +0.000 A 
ATOM     23  C   UNL     1       1.323   3.142  19.015  0.00  0.00    +0.000 A 
ATOM     24  C   UNL     1       0.852   4.035  19.977  0.00  0.00    +0.000 A 
ATOM     25  C   UNL     1       1.747   4.858  20.656  0.00  0.00    +0.000 A 
ATOM     26  C   UNL     1       3.113   4.790  20.374  0.00  0.00    +0.000 A 
ENDBRANCH  20  21
ENDBRANCH   8  20
TORSDOF 7
ENDMDL
MODEL 2
REMARK VINA RESULT:      -8.0      1.012      1.935
REMARK  Name = 
REMARK  8 active torsions:
REMARK  status: ('A' for Active; 'I' for Inactive)
REMARK    1  A    between atoms: C_1  and  O_2
REMARK    2  A    between atoms: O_2  and  C_3
REMARK    3  A    between atoms: C_7  and  C_8
REMARK    4  A    between atoms: C_8  and  O_9
REMARK    5  A    between atoms: O_9  and  C_10
REMARK    6  A    between atoms: C_10  and  C_11
REMARK    7  A    between atoms: N_18  and  C_19
REMARK    8  A    between atoms: C_19  and  C_20
REMARK                            x       y       z     vdW  Elec       q    Type
REMARK                         _______ _______ _______ _____ _____    ______ ____
ROOT
ATOM      1  C   UNL     1       5.086   5.401  17.006  0.00  0.00    +0.000 C 
ATOM      2  C   UNL     1       5.480   6.844  16.586  0.00  0.00    +0.000 C 
ATOM      3  O   UNL     1       6.886   7.126  16.647  0.00  0.00    +0.000 OA
ATOM      4  C   UNL     1       7.374   7.017  18.002  0.00  0.00    +0.000 C 
ATOM      5  S   UNL     1       7.193   5.379  18.746  0.00  0.00    +0.000 S 
ATOM      6  O   UNL     1       7.920   4.400  17.959  0.00  0.00    +0.000 OA
ATOM      7  O   UNL     1       7.417   5.497  20.167  0.00  0.00    +0.000 OA
ATOM      8  N   UNL     1       5.529   5.124  18.438  0.00  0.00    +0.000 NA
ENDROOT
BRANCH   1   9
ATOM      9  C   UNL     1       5.535   4.351  15.964  0.00  0.00    +0.000 C 
BRANCH   9  10
ATOM     10  O   UNL     1       5.745   5.002  14.696  0.00  0.00    +0.000 OA
BRANCH  10  11
ATOM     11  C   UNL     1       6.775   4.374  13.925  0.00  0.00    +0.000 C 
BRANCH  11  16
ATOM     12  C   UNL     1       4.286   3.047  11.326  0.00  0.00    +0.000 A 
ATOM     13  C   UNL     1       5.031   2.018  10.749  0.00  0.00    +0.000 A 
ATOM     14  C   UNL     1       6.331   1.759  11.181  0.00  0.00    +0.000 A 
ATOM     15  C   UNL     1       6.895   2.531  12.199  0.00  0.00    +0.000 A 
ATOM     16  C   UNL     1       6.167   3.571  12.794  0.00  0.00    +0.000 A 
ATOM     17  C   UNL     1       4.852   3.818  12.347  0.00  0.00    +0.000 A 
BRANCH  12  19
ATOM     18  C   UNL     1       2.913   3.625   9.468  0.00  0.00    +0.000 C 
ATOM     19  O   UNL     1       3.024   3.186  10.814  0.00  0.00    +0.000 OA
ENDBRANCH  12  19
ENDBRANCH  11  16
ENDBRANCH  10  11
ENDBRANCH   9  10
ENDBRANCH   1   9
BRANCH   8  20
ATOM     20  C   UNL     1       4.970   3.867  19.008  0.00  0.00    +0.000 C 
BRANCH  20  21
ATOM     21  C   UNL     1       3.520   3.949  19.429  0.00  0.00    +0.000 A 
ATOM     22  C   UNL     1       3.022   5.086  20.083  0.00  0.00    +0.000 A 
ATOM     23  C   UNL     1       1.686   5.141  20.490  0.00  0.00    +0.000 A 
ATOM     24  C   UNL     1       0.832   4.066  20.244  0.00  0.00    +0.000 A 
ATOM     25  C   UNL     1       1.315   2.934  19.591  0.00  0.00    +0.000 A 
ATOM     26  C   UNL     1       2.649   2.875  19.185  0.00  0.00    +0.000 A 
ENDBRANCH  20  21
ENDBRANCH   8  20
TORSDOF 7
ENDMDL
MODEL 3
REMARK VINA RESULT:      -7.8      1.021      1.793
REMARK  Name = 
REMARK  8 active torsions:
REMARK  status: ('A' for Active; 'I' for Inactive)
REMARK    1  A    between atoms: C_1  and  O_2
REMARK    2  A    between atoms: O_2  and  C_3
REMARK    3  A    between atoms: C_7  and  C_8
REMARK    4  A    between atoms: C_8  and  O_9
REMARK    5  A    between atoms: O_9  and  C_10
REMARK    6  A    between atoms: C_10  and  C_11
REMARK    7  A    between atoms: N_18  and  C_19
REMARK    8  A    between atoms: C_19  and  C_20
REMARK                            x       y       z     vdW  Elec       q    Type
REMARK                         _______ _______ _______ _____ _____    ______ ____
ROOT
ATOM      1  C   UNL     1       5.228   5.271  17.155  0.00  0.00    +0.000 C 
ATOM      2  C   UNL     1       5.609   6.691  16.656  0.00  0.00    +0.000 C 
ATOM      3  O   UNL     1       7.009   6.999  16.727  0.00  0.00    +0.000 OA
ATOM      4  C   UNL     1       7.470   6.981  18.095  0.00  0.00    +0.000 C 
ATOM      5  S   UNL     1       7.299   5.389  18.934  0.00  0.00    +0.000 S 
ATOM      6  O   UNL     1       8.057   4.376  18.223  0.00  0.00    +0.000 OA
ATOM      7  O   UNL     1       7.491   5.597  20.350  0.00  0.00    +0.000 OA
ATOM      8  N   UNL     1       5.646   5.088  18.610  0.00  0.00    +0.000 NA
ENDROOT
BRANCH   1   9
ATOM      9  C   UNL     1       5.715   4.166  16.188  0.00  0.00    +0.000 C 
BRANCH   9  10
ATOM     10  O   UNL     1       5.221   4.445  14.864  0.00  0.00    +0.000 OA
BRANCH  10  11
ATOM     11  C   UNL     1       6.246   4.351  13.869  0.00  0.00    +0.000 C 
BRANCH  11  16
ATOM     12  C   UNL     1       4.090   3.017  10.990  0.00  0.00    +0.000 A 
ATOM     13  C   UNL     1       4.850   1.922  10.577  0.00  0.00    +0.000 A 
ATOM     14  C   UNL     1       6.055   1.621  11.209  0.00  0.00    +0.000 A 
ATOM     15  C   UNL     1       6.509   2.415  12.264  0.00  0.00    +0.000 A 
ATOM     16  C   UNL     1       5.764   3.521  12.697  0.00  0.00    +0.000 A 
ATOM     17  C   UNL     1       4.545   3.812  12.049  0.00  0.00    +0.000 A 
BRANCH  12  19
ATOM     18  C   UNL     1       2.812   4.372   9.506  0.00  0.00    +0.000 C 
ATOM     19  O   UNL     1       2.927   3.194  10.290  0.00  0.00    +0.000 OA
ENDBRANCH  12  19
ENDBRANCH  11  16
ENDBRANCH  10  11
ENDBRANCH   9  10
ENDBRANCH   1   9
BRANCH   8  20
ATOM     20  C   UNL     1       5.094   3.859  19.244  0.00  0.00    +0.000 C 
BRANCH  20  21
ATOM     21  C   UNL     1       3.607   3.895  19.514  0.00  0.00    +0.000 A 
ATOM     22  C   UNL     1       2.741   2.975  18.906  0.00  0.00    +0.000 A 
ATOM     23  C   UNL     1       1.364   3.033  19.144  0.00  0.00    +0.000 A 
ATOM     24  C   UNL     1       0.840   4.005  19.995  0.00  0.00    +0.000 A 
ATOM     25  C   UNL     1       1.691   4.922  20.607  0.00  0.00    +0.000 A 
ATOM     26  C   UNL     1       3.066   4.868  20.370  0.00  0.00    +0.000 A 
ENDBRANCH  20  21
ENDBRANCH   8  20
TORSDOF 7
ENDMDL
MODEL 4
REMARK VINA RESULT:      -7.7      3.018      5.028
REMARK  Name = 
REMARK  8 active torsions:
REMARK  status: ('A' for Active; 'I' for Inactive)
REMARK    1  A    between atoms: C_1  and  O_2
REMARK    2  A    between atoms: O_2  and  C_3
REMARK    3  A    between atoms: C_7  and  C_8
REMARK    4  A    between atoms: C_8  and  O_9
REMARK    5  A    between atoms: O_9  and  C_10
REMARK    6  A    between atoms: C_10  and  C_11
REMARK    7  A    between atoms: N_18  and  C_19
REMARK    8  A    between atoms: C_19  and  C_20
REMARK                            x       y       z     vdW  Elec       q    Type
REMARK                         _______ _______ _______ _____ _____    ______ ____
ROOT
ATOM      1  C   UNL     1       3.848   4.263  19.829  0.00  0.00    +0.000 C 
ATOM      2  C   UNL     1       3.273   3.008  20.542  0.00  0.00    +0.000 C 
ATOM      3  O   UNL     1       2.852   1.955  19.663  0.00  0.00    +0.000 OA
ATOM      4  C   UNL     1       1.769   2.396  18.816  0.00  0.00    +0.000 C 
ATOM      5  S   UNL     1       2.170   3.781  17.727  0.00  0.00    +0.000 S 
ATOM      6  O   UNL     1       3.265   3.414  16.849  0.00  0.00    +0.000 OA
ATOM      7  O   UNL     1       0.939   4.310  17.190  0.00  0.00    +0.000 OA
ATOM      8  N   UNL     1       2.809   4.864  18.889  0.00  0.00    +0.000 NA
ENDROOT
BRANCH   1   9
ATOM      9  C   UNL     1       5.230   3.985  19.191  0.00  0.00    +0.000 C 
BRANCH   9  10
ATOM     10  O   UNL     1       6.140   5.040  19.555  0.00  0.00    +0.000 OA
BRANCH  10  11
ATOM     11  C   UNL     1       7.191   5.207  18.598  0.00  0.00    +0.000 C 
BRANCH  11  16
ATOM     12  C   UNL     1       6.329   4.421  14.944  0.00  0.00    +0.000 A 
ATOM     13  C   UNL     1       5.606   5.561  14.593  0.00  0.00    +0.000 A 
ATOM     14  C   UNL     1       5.383   6.571  15.526  0.00  0.00    +0.000 A 
ATOM     15  C   UNL     1       5.886   6.447  16.823  0.00  0.00    +0.000 A 
ATOM     16  C   UNL     1       6.615   5.311  17.200  0.00  0.00    +0.000 A 
ATOM     17  C   UNL     1       6.834   4.299  16.243  0.00  0.00    +0.000 A 
BRANCH  12  19
ATOM     18  C   UNL     1       5.557   3.581  12.853  0.00  0.00    +0.000 C 
ATOM     19  O   UNL     1       6.480   3.513  13.930  0.00  0.00    +0.000 OA
ENDBRANCH  12  19
ENDBRANCH  11  16
ENDBRANCH  10  11
ENDBRANCH   9  10
ENDBRANCH   1   9
BRANCH   8  20
ATOM     20  C   UNL     1       3.180   6.205  18.362  0.00  0.00    +0.000 C 
BRANCH  20  21
ATOM     21  C   UNL     1       2.355   7.352  18.901  0.00  0.00    +0.000 A 
ATOM     22  C   UNL     1       1.985   8.424  18.077  0.00  0.00    +0.000 A 
ATOM     23  C   UNL     1       1.242   9.490  18.592  0.00  0.00    +0.000 A 
ATOM     24  C   UNL     1       0.858   9.495  19.933  0.00  0.00    +0.000 A 
ATOM     25  C   UNL     1       1.217   8.433  20.760  0.00  0.00    +0.000 A 
ATOM     26  C   UNL     1       1.960   7.368  20.249  0.00  0.00    +0.000 A 
ENDBRANCH  20  21
ENDBRANCH   8  20
TORSDOF 7
ENDMDL
MODEL 5
REMARK VINA RESULT:      -7.6      3.583      7.589
REMARK  Name = 
REMARK  8 active torsions:
REMARK  status: ('A' for Active; 'I' for Inactive)
REMARK    1  A    between atoms: C_1  and  O_2
REMARK    2  A    between atoms: O_2  and  C_3
REMARK    3  A    between atoms: C_7  and  C_8
REMARK    4  A    between atoms: C_8  and  O_9
REMARK    5  A    between atoms: O_9  and  C_10
REMARK    6  A    between atoms: C_10  and  C_11
REMARK    7  A    between atoms: N_18  and  C_19
REMARK    8  A    between atoms: C_19  and  C_20
REMARK                            x       y       z     vdW  Elec       q    Type
REMARK                         _______ _______ _______ _____ _____    ______ ____
ROOT
ATOM      1  C   UNL     1       5.181   5.543  18.329  0.00  0.00    +0.000 C 
ATOM      2  C   UNL     1       6.704   5.696  18.594  0.00  0.00    +0.000 C 
ATOM      3  O   UNL     1       7.507   5.859  17.416  0.00  0.00    +0.000 OA
ATOM      4  C   UNL     1       7.421   4.692  16.571  0.00  0.00    +0.000 C 
ATOM      5  S   UNL     1       5.763   4.317  15.957  0.00  0.00    +0.000 S 
ATOM      6  O   UNL     1       5.264   5.435  15.179  0.00  0.00    +0.000 OA
ATOM      7  O   UNL     1       5.771   2.981  15.410  0.00  0.00    +0.000 OA
ATOM      8  N   UNL     1       4.914   4.331  17.444  0.00  0.00    +0.000 NA
ENDROOT
BRANCH   1   9
ATOM      9  C   UNL     1       4.541   6.865  17.844  0.00  0.00    +0.000 C 
BRANCH   9  10
ATOM     10  O   UNL     1       3.370   7.142  18.635  0.00  0.00    +0.000 OA
BRANCH  10  11
ATOM     11  C   UNL     1       2.369   7.850  17.897  0.00  0.00    +0.000 C 
BRANCH  11  16
ATOM     12  C   UNL     1       0.688   9.232  21.056  0.00  0.00    +0.000 A 
ATOM     13  C   UNL     1      -0.042  10.295  20.523  0.00  0.00    +0.000 A 
ATOM     14  C   UNL     1       0.015  10.577  19.159  0.00  0.00    +0.000 A 
ATOM     15  C   UNL     1       0.804   9.792  18.316  0.00  0.00    +0.000 A 
ATOM     16  C   UNL     1       1.548   8.719  18.828  0.00  0.00    +0.000 A 
ATOM     17  C   UNL     1       1.478   8.446  20.210  0.00  0.00    +0.000 A 
BRANCH  12  19
ATOM     18  C   UNL     1      -0.450   9.855  23.054  0.00  0.00    +0.000 C 
ATOM     19  O   UNL     1       0.535   9.063  22.406  0.00  0.00    +0.000 OA
ENDBRANCH  12  19
ENDBRANCH  11  16
ENDBRANCH  10  11
ENDBRANCH   9  10
ENDBRANCH   1   9
BRANCH   8  20
ATOM     20  C   UNL     1       3.476   3.960  17.350  0.00  0.00    +0.000 C 
BRANCH  20  21
ATOM     21  C   UNL     1       2.802   3.685  18.676  0.00  0.00    +0.000 A 
ATOM     22  C   UNL     1       1.536   4.213  18.964  0.00  0.00    +0.000 A 
ATOM     23  C   UNL     1       0.932   3.972  20.202  0.00  0.00    +0.000 A 
ATOM     24  C   UNL     1       1.584   3.199  21.162  0.00  0.00    +0.000 A 
ATOM     25  C   UNL     1       2.841   2.666  20.885  0.00  0.00    +0.000 A 
ATOM     26  C   UNL     1       3.447   2.906  19.650  0.00  0.00    +0.000 A 
ENDBRANCH  20  21
ENDBRANCH   8  20
TORSDOF 7
ENDMDL
MODEL 6
REMARK VINA RESULT:      -7.6      3.732      7.574
REMARK  Name = 
REMARK  8 active torsions:
REMARK  status: ('A' for Active; 'I' for Inactive)
REMARK    1  A    between atoms: C_1  and  O_2
REMARK    2  A    between atoms: O_2  and  C_3
REMARK    3  A    between atoms: C_7  and  C_8
REMARK    4  A    between atoms: C_8  and  O_9
REMARK    5  A    between atoms: O_9  and  C_10
REMARK    6  A    between atoms: C_10  and  C_11
REMARK    7  A    between atoms: N_18  and  C_19
REMARK    8  A    between atoms: C_19  and  C_20
REMARK                            x       y       z     vdW  Elec       q    Type
REMARK                         _______ _______ _______ _____ _____    ______ ____
ROOT
ATOM      1  C   UNL     1       5.156   5.709  18.168  0.00  0.00    +0.000 C 
ATOM      2  C   UNL     1       6.673   5.932  18.418  0.00  0.00    +0.000 C 
ATOM      3  O   UNL     1       7.468   6.053  17.230  0.00  0.00    +0.000 OA
ATOM      4  C   UNL     1       7.423   4.835  16.456  0.00  0.00    +0.000 C 
ATOM      5  S   UNL     1       5.778   4.365  15.871  0.00  0.00    +0.000 S 
ATOM      6  O   UNL     1       5.238   5.416  15.029  0.00  0.00    +0.000 OA
ATOM      7  O   UNL     1       5.833   3.000  15.404  0.00  0.00    +0.000 OA
ATOM      8  N   UNL     1       4.931   4.438  17.357  0.00  0.00    +0.000 NA
ENDROOT
BRANCH   1   9
ATOM      9  C   UNL     1       4.468   6.976  17.608  0.00  0.00    +0.000 C 
BRANCH   9  10
ATOM     10  O   UNL     1       3.211   7.171  18.284  0.00  0.00    +0.000 OA
BRANCH  10  11
ATOM     11  C   UNL     1       2.561   8.382  17.887  0.00  0.00    +0.000 C 
BRANCH  11  16
ATOM     12  C   UNL     1      -0.254  10.262  19.692  0.00  0.00    +0.000 A 
ATOM     13  C   UNL     1      -0.215   9.653  20.947  0.00  0.00    +0.000 A 
ATOM     14  C   UNL     1       0.700   8.635  21.210  0.00  0.00    +0.000 A 
ATOM     15  C   UNL     1       1.587   8.219  20.215  0.00  0.00    +0.000 A 
ATOM     16  C   UNL     1       1.566   8.814  18.946  0.00  0.00    +0.000 A 
ATOM     17  C   UNL     1       0.636   9.844  18.696  0.00  0.00    +0.000 A 
BRANCH  12  19
ATOM     18  C   UNL     1      -1.748  11.469  18.284  0.00  0.00    +0.000 C 
ATOM     19  O   UNL     1      -1.194  11.250  19.573  0.00  0.00    +0.000 OA
ENDBRANCH  12  19
ENDBRANCH  11  16
ENDBRANCH  10  11
ENDBRANCH   9  10
ENDBRANCH   1   9
BRANCH   8  20
ATOM     20  C   UNL     1       3.507   4.010  17.291  0.00  0.00    +0.000 C 
BRANCH  20  21
ATOM     21  C   UNL     1       2.862   3.735  18.631  0.00  0.00    +0.000 A 
ATOM     22  C   UNL     1       3.499   2.928  19.585  0.00  0.00    +0.000 A 
ATOM     23  C   UNL     1       2.883   2.661  20.811  0.00  0.00    +0.000 A 
ATOM     24  C   UNL     1       1.629   3.199  21.099  0.00  0.00    +0.000 A 
ATOM     25  C   UNL     1       0.989   4.004  20.160  0.00  0.00    +0.000 A 
ATOM     26  C   UNL     1       1.601   4.272  18.934  0.00  0.00    +0.000 A 
ENDBRANCH  20  21
ENDBRANCH   8  20
TORSDOF 7
ENDMDL
MODEL 7
REMARK VINA RESULT:      -7.4      4.818      8.706
REMARK  Name = 
REMARK  8 active torsions:
REMARK  status: ('A' for Active; 'I' for Inactive)
REMARK    1  A    between atoms: C_1  and  O_2
REMARK    2  A    between atoms: O_2  and  C_3
REMARK    3  A    between atoms: C_7  and  C_8
REMARK    4  A    between atoms: C_8  and  O_9
REMARK    5  A    between atoms: O_9  and  C_10
REMARK    6  A    between atoms: C_10  and  C_11
REMARK    7  A    between atoms: N_18  and  C_19
REMARK    8  A    between atoms: C_19  and  C_20
REMARK                            x       y       z     vdW  Elec       q    Type
REMARK                         _______ _______ _______ _____ _____    ______ ____
ROOT
ATOM      1  C   UNL     1       2.752   4.984  18.623  0.00  0.00    +0.000 C 
ATOM      2  C   UNL     1       1.691   4.465  17.613  0.00  0.00    +0.000 C 
ATOM      3  O   UNL     1       1.003   3.274  18.021  0.00  0.00    +0.000 OA
ATOM      4  C   UNL     1       1.922   2.169  18.152  0.00  0.00    +0.000 C 
ATOM      5  S   UNL     1       3.222   2.402  19.386  0.00  0.00    +0.000 S 
ATOM      6  O   UNL     1       2.627   2.608  20.693  0.00  0.00    +0.000 OA
ATOM      7  O   UNL     1       4.229   1.387  19.185  0.00  0.00    +0.000 OA
ATOM      8  N   UNL     1       3.817   3.922  18.868  0.00  0.00    +0.000 NA
ENDROOT
BRANCH   1   9
ATOM      9  C   UNL     1       2.100   5.569  19.898  0.00  0.00    +0.000 C 
BRANCH   9  10
ATOM     10  O   UNL     1       2.507   6.942  20.050  0.00  0.00    +0.000 OA
BRANCH  10  11
ATOM     11  C   UNL     1       2.189   7.735  18.903  0.00  0.00    +0.000 C 
BRANCH  11  16
ATOM     12  C   UNL     1       0.432  10.385  21.049  0.00  0.00    +0.000 A 
ATOM     13  C   UNL     1      -0.118  11.203  20.060  0.00  0.00    +0.000 A 
ATOM     14  C   UNL     1       0.086  10.915  18.712  0.00  0.00    +0.000 A 
ATOM     15  C   UNL     1       0.842   9.801  18.342  0.00  0.00    +0.000 A 
ATOM     16  C   UNL     1       1.405   8.964  19.317  0.00  0.00    +0.000 A 
ATOM     17  C   UNL     1       1.188   9.268  20.677  0.00  0.00    +0.000 A 
BRANCH  12  19
ATOM     18  C   UNL     1      -0.478   9.828  23.178  0.00  0.00    +0.000 C 
ATOM     19  O   UNL     1       0.148  10.778  22.329  0.00  0.00    +0.000 OA
ENDBRANCH  12  19
ENDBRANCH  11  16
ENDBRANCH  10  11
ENDBRANCH   9  10
ENDBRANCH   1   9
BRANCH   8  20
ATOM     20  C   UNL     1       5.002   4.421  19.617  0.00  0.00    +0.000 C 
BRANCH  20  21
ATOM     21  C   UNL     1       5.874   5.394  18.855  0.00  0.00    +0.000 A 
ATOM     22  C   UNL     1       7.181   5.675  19.277  0.00  0.00    +0.000 A 
ATOM     23  C   UNL     1       7.969   6.594  18.579  0.00  0.00    +0.000 A 
ATOM     24  C   UNL     1       7.463   7.238  17.450  0.00  0.00    +0.000 A 
ATOM     25  C   UNL     1       6.167   6.964  17.020  0.00  0.00    +0.000 A 
ATOM     26  C   UNL     1       5.377   6.048  17.716  0.00  0.00    +0.000 A 
ENDBRANCH  20  21
ENDBRANCH   8  20
TORSDOF 7
ENDMDL
MODEL 8
REMARK VINA RESULT:      -7.3      4.383      9.221
REMARK  Name = 
REMARK  8 active torsions:
REMARK  status: ('A' for Active; 'I' for Inactive)
REMARK    1  A    between atoms: C_1  and  O_2
REMARK    2  A    between atoms: O_2  and  C_3
REMARK    3  A    between atoms: C_7  and  C_8
REMARK    4  A    between atoms: C_8  and  O_9
REMARK    5  A    between atoms: O_9  and  C_10
REMARK    6  A    between atoms: C_10  and  C_11
REMARK    7  A    between atoms: N_18  and  C_19
REMARK    8  A    between atoms: C_19  and  C_20
REMARK                            x       y       z     vdW  Elec       q    Type
REMARK                         _______ _______ _______ _____ _____    ______ ____
ROOT
ATOM      1  C   UNL     1       3.043   4.918  18.042  0.00  0.00    +0.000 C 
ATOM      2  C   UNL     1       1.543   4.622  17.765  0.00  0.00    +0.000 C 
ATOM      3  O   UNL     1       0.929   3.708  18.685  0.00  0.00    +0.000 OA
ATOM      4  C   UNL     1       1.555   2.409  18.612  0.00  0.00    +0.000 C 
ATOM      5  S   UNL     1       3.312   2.385  19.034  0.00  0.00    +0.000 S 
ATOM      6  O   UNL     1       3.498   2.863  20.391  0.00  0.00    +0.000 OA
ATOM      7  O   UNL     1       3.865   1.119  18.615  0.00  0.00    +0.000 OA
ATOM      8  N   UNL     1       3.857   3.630  17.992  0.00  0.00    +0.000 NA
ENDROOT
BRANCH   1   9
ATOM      9  C   UNL     1       3.240   5.771  19.317  0.00  0.00    +0.000 C 
BRANCH   9  10
ATOM     10  O   UNL     1       2.212   6.779  19.376  0.00  0.00    +0.000 OA
BRANCH  10  11
ATOM     11  C   UNL     1       1.756   7.015  20.711  0.00  0.00    +0.000 C 
BRANCH  11  16
ATOM     12  C   UNL     1       0.132  10.178  22.152  0.00  0.00    +0.000 A 
ATOM     13  C   UNL     1       0.078  10.987  21.016  0.00  0.00    +0.000 A 
ATOM     14  C   UNL     1       0.573  10.527  19.797  0.00  0.00    +0.000 A 
ATOM     15  C   UNL     1       1.125   9.247  19.706  0.00  0.00    +0.000 A 
ATOM     16  C   UNL     1       1.191   8.416  20.832  0.00  0.00    +0.000 A 
ATOM     17  C   UNL     1       0.685   8.895  22.058  0.00  0.00    +0.000 A 
BRANCH  12  19
ATOM     18  C   UNL     1      -1.479  11.650  23.104  0.00  0.00    +0.000 C 
ATOM     19  O   UNL     1      -0.395  10.750  23.278  0.00  0.00    +0.000 OA
ENDBRANCH  12  19
ENDBRANCH  11  16
ENDBRANCH  10  11
ENDBRANCH   9  10
ENDBRANCH   1   9
BRANCH   8  20
ATOM     20  C   UNL     1       5.330   3.849  17.991  0.00  0.00    +0.000 C 
BRANCH  20  21
ATOM     21  C   UNL     1       5.921   4.195  16.643  0.00  0.00    +0.000 A 
ATOM     22  C   UNL     1       7.012   5.070  16.538  0.00  0.00    +0.000 A 
ATOM     23  C   UNL     1       7.535   5.403  15.285  0.00  0.00    +0.000 A 
ATOM     24  C   UNL     1       6.978   4.862  14.126  0.00  0.00    +0.000 A 
ATOM     25  C   UNL     1       5.896   3.990  14.219  0.00  0.00    +0.000 A 
ATOM     26  C   UNL     1       5.371   3.657  15.469  0.00  0.00    +0.000 A 
ENDBRANCH  20  21
ENDBRANCH   8  20
TORSDOF 7
ENDMDL
MODEL 9
REMARK VINA RESULT:      -7.3      3.106      4.142
REMARK  Name = 
REMARK  8 active torsions:
REMARK  status: ('A' for Active; 'I' for Inactive)
REMARK    1  A    between atoms: C_1  and  O_2
REMARK    2  A    between atoms: O_2  and  C_3
REMARK    3  A    between atoms: C_7  and  C_8
REMARK    4  A    between atoms: C_8  and  O_9
REMARK    5  A    between atoms: O_9  and  C_10
REMARK    6  A    between atoms: C_10  and  C_11
REMARK    7  A    between atoms: N_18  and  C_19
REMARK    8  A    between atoms: C_19  and  C_20
REMARK                            x       y       z     vdW  Elec       q    Type
REMARK                         _______ _______ _______ _____ _____    ______ ____
ROOT
ATOM      1  C   UNL     1       4.693   5.948  18.311  0.00  0.00    +0.000 C 
ATOM      2  C   UNL     1       5.562   5.005  19.187  0.00  0.00    +0.000 C 
ATOM      3  O   UNL     1       5.169   3.625  19.157  0.00  0.00    +0.000 OA
ATOM      4  C   UNL     1       3.838   3.458  19.690  0.00  0.00    +0.000 C 
ATOM      5  S   UNL     1       2.541   4.332  18.783  0.00  0.00    +0.000 S 
ATOM      6  O   UNL     1       2.504   3.866  17.409  0.00  0.00    +0.000 OA
ATOM      7  O   UNL     1       1.345   4.341  19.592  0.00  0.00    +0.000 OA
ATOM      8  N   UNL     1       3.236   5.896  18.756  0.00  0.00    +0.000 NA
ENDROOT
BRANCH   1   9
ATOM      9  C   UNL     1       4.928   5.716  16.799  0.00  0.00    +0.000 C 
BRANCH   9  10
ATOM     10  O   UNL     1       5.674   4.498  16.618  0.00  0.00    +0.000 OA
BRANCH  10  11
ATOM     11  C   UNL     1       6.978   4.733  16.076  0.00  0.00    +0.000 C 
BRANCH  11  16
ATOM     12  C   UNL     1       6.135   3.506  12.540  0.00  0.00    +0.000 A 
ATOM     13  C   UNL     1       6.970   4.319  11.773  0.00  0.00    +0.000 A 
ATOM     14  C   UNL     1       7.789   5.266  12.384  0.00  0.00    +0.000 A 
ATOM     15  C   UNL     1       7.780   5.405  13.774  0.00  0.00    +0.000 A 
ATOM     16  C   UNL     1       6.949   4.601  14.566  0.00  0.00    +0.000 A 
ATOM     17  C   UNL     1       6.127   3.645  13.933  0.00  0.00    +0.000 A 
BRANCH  12  19
ATOM     18  C   UNL     1       4.193   3.097  11.224  0.00  0.00    +0.000 C 
ATOM     19  O   UNL     1       5.392   2.615  11.814  0.00  0.00    +0.000 OA
ENDBRANCH  12  19
ENDBRANCH  11  16
ENDBRANCH  10  11
ENDBRANCH   9  10
ENDBRANCH   1   9
BRANCH   8  20
ATOM     20  C   UNL     1       2.383   6.953  18.146  0.00  0.00    +0.000 C 
BRANCH  20  21
ATOM     21  C   UNL     1       1.850   7.980  19.120  0.00  0.00    +0.000 A 
ATOM     22  C   UNL     1       1.739   7.689  20.487  0.00  0.00    +0.000 A 
ATOM     23  C   UNL     1       1.223   8.638  21.374  0.00  0.00    +0.000 A 
ATOM     24  C   UNL     1       0.816   9.887  20.907  0.00  0.00    +0.000 A 
ATOM     25  C   UNL     1       0.925  10.188  19.551  0.00  0.00    +0.000 A 
ATOM     26  C   UNL     1       1.439   9.243  18.663  0.00  0.00    +0.000 A 
ENDBRANCH  20  21
ENDBRANCH   8  20
TORSDOF 7
ENDMDL
