MODEL 1
REMARK VINA RESULT:      -7.5      0.000      0.000
REMARK  Name = 
REMARK  6 active torsions:
REMARK  status: ('A' for Active; 'I' for Inactive)
REMARK    1  A    between atoms: C_1  and  O_2
REMARK    2  A    between atoms: O_2  and  C_3
REMARK    3  A    between atoms: C_6  and  O_7
REMARK    4  A    between atoms: O_7  and  C_8
REMARK    5  A    between atoms: C_9  and  N_10
REMARK    6  A    between atoms: C_14  and  C_15
REMARK                            x       y       z     vdW  Elec       q    Type
REMARK                         _______ _______ _______ _____ _____    ______ ____
ROOT
ATOM      1  N   UNL     1       0.939   9.323  19.467  0.00  0.00    +0.000 N 
ATOM      2  C   UNL     1       1.831   8.855  18.490  0.00  0.00    +0.000 C 
ATOM      3  O   UNL     1       2.118   9.474  17.463  0.00  0.00    +0.000 OA
ATOM      4  C   UNL     1       2.432   7.516  18.748  0.00  0.00    +0.000 C 
ATOM      5  C   UNL     1       3.114   6.959  17.727  0.00  0.00    +0.000 C 
ATOM      6  C   UNL     1       2.243   6.878  20.068  0.00  0.00    +0.000 C 
ATOM      7  O   UNL     1       2.595   5.748  20.367  0.00  0.00    +0.000 OA
ATOM      8  N   UNL     1       1.574   7.640  20.977  0.00  0.00    +0.000 N 
ATOM      9  C   UNL     1       0.876   8.799  20.762  0.00  0.00    +0.000 C 
ATOM     10  S   UNL     1       0.072   9.417  22.103  0.00  0.00    +0.000 S 
ATOM     11  H   UNL     1       1.479   7.219  21.895  0.00  0.00    +0.000 HD
ENDROOT
BRANCH   1  16
ATOM     12  C   UNL     1      -1.679  11.474  17.938  0.00  0.00    +0.000 A 
ATOM     13  C   UNL     1      -1.173  12.747  18.184  0.00  0.00    +0.000 A 
ATOM     14  C   UNL     1       0.009  12.913  18.909  0.00  0.00    +0.000 A 
ATOM     15  C   UNL     1       0.719  11.809  19.396  0.00  0.00    +0.000 A 
ATOM     16  C   UNL     1       0.215  10.519  19.151  0.00  0.00    +0.000 A 
ATOM     17  C   UNL     1      -1.001  10.367  18.446  0.00  0.00    +0.000 A 
BRANCH  12  19
ATOM     18  C   UNL     1      -2.698  10.817  15.889  0.00  0.00    +0.000 C 
ATOM     19  O   UNL     1      -2.804  11.441  17.162  0.00  0.00    +0.000 OA
ENDBRANCH  12  19
BRANCH  15  20
ATOM     20  O   UNL     1       1.910  12.156  19.977  0.00  0.00    +0.000 OA
ATOM     21  C   UNL     1       2.105  13.498  20.395  0.00  0.00    +0.000 C 
ENDBRANCH  15  20
ENDBRANCH   1  16
BRANCH   5  22
ATOM     22  C   UNL     1       3.750   5.694  17.795  0.00  0.00    +0.000 A 
ATOM     23  C   UNL     1       3.288   4.449  17.381  0.00  0.00    +0.000 A 
ATOM     24  C   UNL     1       4.290   3.497  17.678  0.00  0.00    +0.000 A 
ATOM     25  C   UNL     1       5.325   4.204  18.232  0.00  0.00    +0.000 A 
ATOM     26  O   UNL     1       5.018   5.523  18.295  0.00  0.00    +0.000 OA
ENDBRANCH   5  22
TORSDOF 4
ENDMDL
MODEL 2
REMARK VINA RESULT:      -7.4      1.063      2.613
REMARK  Name = 
REMARK  6 active torsions:
REMARK  status: ('A' for Active; 'I' for Inactive)
REMARK    1  A    between atoms: C_1  and  O_2
REMARK    2  A    between atoms: O_2  and  C_3
REMARK    3  A    between atoms: C_6  and  O_7
REMARK    4  A    between atoms: O_7  and  C_8
REMARK    5  A    between atoms: C_9  and  N_10
REMARK    6  A    between atoms: C_14  and  C_15
REMARK                            x       y       z     vdW  Elec       q    Type
REMARK                         _______ _______ _______ _____ _____    ______ ____
ROOT
ATOM      1  N   UNL     1       1.101   9.489  19.327  0.00  0.00    +0.000 N 
ATOM      2  C   UNL     1       1.910   8.806  18.406  0.00  0.00    +0.000 C 
ATOM      3  O   UNL     1       2.282   9.277  17.329  0.00  0.00    +0.000 OA
ATOM      4  C   UNL     1       2.307   7.422  18.792  0.00  0.00    +0.000 C 
ATOM      5  C   UNL     1       2.896   6.678  17.834  0.00  0.00    +0.000 C 
ATOM      6  C   UNL     1       2.031   6.944  20.164  0.00  0.00    +0.000 C 
ATOM      7  O   UNL     1       2.214   5.808  20.569  0.00  0.00    +0.000 OA
ATOM      8  N   UNL     1       1.485   7.878  20.992  0.00  0.00    +0.000 N 
ATOM      9  C   UNL     1       0.965   9.102  20.663  0.00  0.00    +0.000 C 
ATOM     10  S   UNL     1       0.266   9.954  21.934  0.00  0.00    +0.000 S 
ATOM     11  H   UNL     1       1.333   7.563  21.944  0.00  0.00    +0.000 HD
ENDROOT
BRANCH   1  16
ATOM     12  C   UNL     1       0.901  13.161  18.784  0.00  0.00    +0.000 A 
ATOM     13  C   UNL     1      -0.425  13.313  18.387  0.00  0.00    +0.000 A 
ATOM     14  C   UNL     1      -1.252  12.198  18.236  0.00  0.00    +0.000 A 
ATOM     15  C   UNL     1      -0.778  10.905  18.491  0.00  0.00    +0.000 A 
ATOM     16  C   UNL     1       0.560  10.744  18.894  0.00  0.00    +0.000 A 
ATOM     17  C   UNL     1       1.397  11.877  19.007  0.00  0.00    +0.000 A 
BRANCH  12  19
ATOM     18  C   UNL     1       0.835  15.537  18.921  0.00  0.00    +0.000 C 
ATOM     19  O   UNL     1       1.587  14.330  18.959  0.00  0.00    +0.000 OA
ENDBRANCH  12  19
BRANCH  15  20
ATOM     20  O   UNL     1      -1.757   9.952  18.407  0.00  0.00    +0.000 OA
ATOM     21  C   UNL     1      -2.568   9.900  17.243  0.00  0.00    +0.000 C 
ENDBRANCH  15  20
ENDBRANCH   1  16
BRANCH   5  22
ATOM     22  C   UNL     1       3.338   5.345  18.024  0.00  0.00    +0.000 A 
ATOM     23  C   UNL     1       2.717   4.150  17.679  0.00  0.00    +0.000 A 
ATOM     24  C   UNL     1       3.558   3.091  18.094  0.00  0.00    +0.000 A 
ATOM     25  C   UNL     1       4.661   3.687  18.647  0.00  0.00    +0.000 A 
ATOM     26  O   UNL     1       4.547   5.037  18.600  0.00  0.00    +0.000 OA
ENDBRANCH   5  22
TORSDOF 4
ENDMDL
MODEL 3
REMARK VINA RESULT:      -7.2      3.684      7.613
REMARK  Name = 
REMARK  6 active torsions:
REMARK  status: ('A' for Active; 'I' for Inactive)
REMARK    1  A    between atoms: C_1  and  O_2
REMARK    2  A    between atoms: O_2  and  C_3
REMARK    3  A    between atoms: C_6  and  O_7
REMARK    4  A    between atoms: O_7  and  C_8
REMARK    5  A    between atoms: C_9  and  N_10
REMARK    6  A    between atoms: C_14  and  C_15
REMARK                            x       y       z     vdW  Elec       q    Type
REMARK                         _______ _______ _______ _____ _____    ______ ____
ROOT
ATOM      1  N   UNL     1       3.962   5.221  18.218  0.00  0.00    +0.000 N 
ATOM      2  C   UNL     1       3.462   6.531  18.277  0.00  0.00    +0.000 C 
ATOM      3  O   UNL     1       3.773   7.426  17.487  0.00  0.00    +0.000 OA
ATOM      4  C   UNL     1       2.512   6.813  19.390  0.00  0.00    +0.000 C 
ATOM      5  C   UNL     1       2.194   8.108  19.592  0.00  0.00    +0.000 C 
ATOM      6  C   UNL     1       1.992   5.692  20.201  0.00  0.00    +0.000 C 
ATOM      7  O   UNL     1       1.293   5.800  21.196  0.00  0.00    +0.000 OA
ATOM      8  N   UNL     1       2.392   4.458  19.787  0.00  0.00    +0.000 N 
ATOM      9  C   UNL     1       3.368   4.143  18.880  0.00  0.00    +0.000 C 
ATOM     10  S   UNL     1       3.678   2.500  18.693  0.00  0.00    +0.000 S 
ATOM     11  H   UNL     1       2.003   3.686  20.319  0.00  0.00    +0.000 HD
ENDROOT
BRANCH   1  16
ATOM     12  C   UNL     1       5.556   4.371  14.968  0.00  0.00    +0.000 A 
ATOM     13  C   UNL     1       6.885   4.200  15.346  0.00  0.00    +0.000 A 
ATOM     14  C   UNL     1       7.282   4.422  16.666  0.00  0.00    +0.000 A 
ATOM     15  C   UNL     1       6.357   4.807  17.644  0.00  0.00    +0.000 A 
ATOM     16  C   UNL     1       5.012   4.981  17.271  0.00  0.00    +0.000 A 
ATOM     17  C   UNL     1       4.630   4.788  15.924  0.00  0.00    +0.000 A 
BRANCH  12  19
ATOM     18  C   UNL     1       6.380   3.685  12.843  0.00  0.00    +0.000 C 
ATOM     19  O   UNL     1       5.283   4.060  13.666  0.00  0.00    +0.000 OA
ENDBRANCH  12  19
BRANCH  15  20
ATOM     20  O   UNL     1       6.901   4.863  18.899  0.00  0.00    +0.000 OA
ATOM     21  C   UNL     1       7.812   5.905  19.209  0.00  0.00    +0.000 C 
ENDBRANCH  15  20
ENDBRANCH   1  16
BRANCH   5  22
ATOM     22  C   UNL     1       1.308   8.558  20.603  0.00  0.00    +0.000 A 
ATOM     23  C   UNL     1      -0.051   8.844  20.524  0.00  0.00    +0.000 A 
ATOM     24  C   UNL     1      -0.476   9.270  21.803  0.00  0.00    +0.000 A 
ATOM     25  C   UNL     1       0.631   9.200  22.608  0.00  0.00    +0.000 A 
ATOM     26  O   UNL     1       1.703   8.762  21.903  0.00  0.00    +0.000 OA
ENDBRANCH   5  22
TORSDOF 4
ENDMDL
MODEL 4
REMARK VINA RESULT:      -7.1      2.465      7.451
REMARK  Name = 
REMARK  6 active torsions:
REMARK  status: ('A' for Active; 'I' for Inactive)
REMARK    1  A    between atoms: C_1  and  O_2
REMARK    2  A    between atoms: O_2  and  C_3
REMARK    3  A    between atoms: C_6  and  O_7
REMARK    4  A    between atoms: O_7  and  C_8
REMARK    5  A    between atoms: C_9  and  N_10
REMARK    6  A    between atoms: C_14  and  C_15
REMARK                            x       y       z     vdW  Elec       q    Type
REMARK                         _______ _______ _______ _____ _____    ______ ____
ROOT
ATOM      1  N   UNL     1       3.082   6.494  18.905  0.00  0.00    +0.000 N 
ATOM      2  C   UNL     1       2.533   7.670  18.372  0.00  0.00    +0.000 C 
ATOM      3  O   UNL     1       2.714   8.056  17.216  0.00  0.00    +0.000 OA
ATOM      4  C   UNL     1       1.698   8.477  19.307  0.00  0.00    +0.000 C 
ATOM      5  C   UNL     1       1.345   9.709  18.884  0.00  0.00    +0.000 C 
ATOM      6  C   UNL     1       1.320   7.908  20.619  0.00  0.00    +0.000 C 
ATOM      7  O   UNL     1       0.730   8.503  21.506  0.00  0.00    +0.000 OA
ATOM      8  N   UNL     1       1.729   6.625  20.820  0.00  0.00    +0.000 N 
ATOM      9  C   UNL     1       2.613   5.890  20.076  0.00  0.00    +0.000 C 
ATOM     10  S   UNL     1       2.975   4.364  20.684  0.00  0.00    +0.000 S 
ATOM     11  H   UNL     1       1.436   6.221  21.703  0.00  0.00    +0.000 HD
ENDROOT
BRANCH   1  16
ATOM     12  C   UNL     1       6.228   5.899  17.016  0.00  0.00    +0.000 A 
ATOM     13  C   UNL     1       5.901   4.763  16.280  0.00  0.00    +0.000 A 
ATOM     14  C   UNL     1       4.659   4.145  16.443  0.00  0.00    +0.000 A 
ATOM     15  C   UNL     1       3.709   4.655  17.336  0.00  0.00    +0.000 A 
ATOM     16  C   UNL     1       4.032   5.804  18.083  0.00  0.00    +0.000 A 
ATOM     17  C   UNL     1       5.305   6.397  17.935  0.00  0.00    +0.000 A 
BRANCH  12  19
ATOM     18  C   UNL     1       7.833   7.602  17.451  0.00  0.00    +0.000 C 
ATOM     19  O   UNL     1       7.444   6.447  16.718  0.00  0.00    +0.000 OA
ENDBRANCH  12  19
BRANCH  15  20
ATOM     20  O   UNL     1       2.512   3.994  17.276  0.00  0.00    +0.000 OA
ATOM     21  C   UNL     1       2.494   2.586  17.453  0.00  0.00    +0.000 C 
ENDBRANCH  15  20
ENDBRANCH   1  16
BRANCH   5  22
ATOM     22  C   UNL     1       0.555  10.610  19.640  0.00  0.00    +0.000 A 
ATOM     23  C   UNL     1      -0.823  10.796  19.636  0.00  0.00    +0.000 A 
ATOM     24  C   UNL     1      -1.122  11.825  20.559  0.00  0.00    +0.000 A 
ATOM     25  C   UNL     1       0.079  12.199  21.103  0.00  0.00    +0.000 A 
ATOM     26  O   UNL     1       1.090  11.470  20.570  0.00  0.00    +0.000 OA
ENDBRANCH   5  22
TORSDOF 4
ENDMDL
MODEL 5
REMARK VINA RESULT:      -6.9      2.386      7.465
REMARK  Name = 
REMARK  6 active torsions:
REMARK  status: ('A' for Active; 'I' for Inactive)
REMARK    1  A    between atoms: C_1  and  O_2
REMARK    2  A    between atoms: O_2  and  C_3
REMARK    3  A    between atoms: C_6  and  O_7
REMARK    4  A    between atoms: O_7  and  C_8
REMARK    5  A    between atoms: C_9  and  N_10
REMARK    6  A    between atoms: C_14  and  C_15
REMARK                            x       y       z     vdW  Elec       q    Type
REMARK                         _______ _______ _______ _____ _____    ______ ____
ROOT
ATOM      1  N   UNL     1       2.692   6.392  19.233  0.00  0.00    +0.000 N 
ATOM      2  C   UNL     1       2.269   7.586  18.627  0.00  0.00    +0.000 C 
ATOM      3  O   UNL     1       2.458   7.864  17.441  0.00  0.00    +0.000 OA
ATOM      4  C   UNL     1       1.565   8.551  19.518  0.00  0.00    +0.000 C 
ATOM      5  C   UNL     1       1.347   9.782  19.013  0.00  0.00    +0.000 C 
ATOM      6  C   UNL     1       1.165   8.126  20.876  0.00  0.00    +0.000 C 
ATOM      7  O   UNL     1       0.677   8.848  21.731  0.00  0.00    +0.000 OA
ATOM      8  N   UNL     1       1.425   6.820  21.162  0.00  0.00    +0.000 N 
ATOM      9  C   UNL     1       2.193   5.934  20.455  0.00  0.00    +0.000 C 
ATOM     10  S   UNL     1       2.391   4.422  21.166  0.00  0.00    +0.000 S 
ATOM     11  H   UNL     1       1.114   6.517  22.080  0.00  0.00    +0.000 HD
ENDROOT
BRANCH   1  16
ATOM     12  C   UNL     1       5.754   5.200  17.493  0.00  0.00    +0.000 A 
ATOM     13  C   UNL     1       5.246   4.167  16.711  0.00  0.00    +0.000 A 
ATOM     14  C   UNL     1       3.897   3.812  16.793  0.00  0.00    +0.000 A 
ATOM     15  C   UNL     1       3.022   4.490  17.649  0.00  0.00    +0.000 A 
ATOM     16  C   UNL     1       3.527   5.537  18.442  0.00  0.00    +0.000 A 
ATOM     17  C   UNL     1       4.901   5.861  18.376  0.00  0.00    +0.000 A 
BRANCH  12  19
ATOM     18  C   UNL     1       7.495   6.823  17.550  0.00  0.00    +0.000 C 
ATOM     19  O   UNL     1       7.071   5.494  17.274  0.00  0.00    +0.000 OA
ENDBRANCH  12  19
BRANCH  15  20
ATOM     20  O   UNL     1       1.721   4.087  17.509  0.00  0.00    +0.000 OA
ATOM     21  C   UNL     1       1.282   2.928  18.201  0.00  0.00    +0.000 C 
ENDBRANCH  15  20
ENDBRANCH   1  16
BRANCH   5  22
ATOM     22  C   UNL     1       0.693  10.824  19.718  0.00  0.00    +0.000 A 
ATOM     23  C   UNL     1       1.238  11.880  20.440  0.00  0.00    +0.000 A 
ATOM     24  C   UNL     1       0.167  12.639  20.967  0.00  0.00    +0.000 A 
ATOM     25  C   UNL     1      -0.977  12.030  20.521  0.00  0.00    +0.000 A 
ATOM     26  O   UNL     1      -0.675  10.949  19.761  0.00  0.00    +0.000 OA
ENDBRANCH   5  22
TORSDOF 4
ENDMDL
MODEL 6
REMARK VINA RESULT:      -6.7      2.685      7.509
REMARK  Name = 
REMARK  6 active torsions:
REMARK  status: ('A' for Active; 'I' for Inactive)
REMARK    1  A    between atoms: C_1  and  O_2
REMARK    2  A    between atoms: O_2  and  C_3
REMARK    3  A    between atoms: C_6  and  O_7
REMARK    4  A    between atoms: O_7  and  C_8
REMARK    5  A    between atoms: C_9  and  N_10
REMARK    6  A    between atoms: C_14  and  C_15
REMARK                            x       y       z     vdW  Elec       q    Type
REMARK                         _______ _______ _______ _____ _____    ______ ____
ROOT
ATOM      1  N   UNL     1       3.965   6.129  18.314  0.00  0.00    +0.000 N 
ATOM      2  C   UNL     1       3.365   7.295  17.812  0.00  0.00    +0.000 C 
ATOM      3  O   UNL     1       3.632   7.795  16.718  0.00  0.00    +0.000 OA
ATOM      4  C   UNL     1       2.358   7.939  18.702  0.00  0.00    +0.000 C 
ATOM      5  C   UNL     1       1.934   9.166  18.337  0.00  0.00    +0.000 C 
ATOM      6  C   UNL     1       1.897   7.226  19.913  0.00  0.00    +0.000 C 
ATOM      7  O   UNL     1       1.158   7.685  20.769  0.00  0.00    +0.000 OA
ATOM      8  N   UNL     1       2.405   5.971  20.061  0.00  0.00    +0.000 N 
ATOM      9  C   UNL     1       3.434   5.386  19.371  0.00  0.00    +0.000 C 
ATOM     10  S   UNL     1       3.875   3.851  19.898  0.00  0.00    +0.000 S 
ATOM     11  H   UNL     1       2.059   5.467  20.870  0.00  0.00    +0.000 HD
ENDROOT
BRANCH   1  16
ATOM     12  C   UNL     1       5.727   4.322  15.584  0.00  0.00    +0.000 A 
ATOM     13  C   UNL     1       7.023   4.252  16.087  0.00  0.00    +0.000 A 
ATOM     14  C   UNL     1       7.345   4.853  17.305  0.00  0.00    +0.000 A 
ATOM     15  C   UNL     1       6.375   5.528  18.057  0.00  0.00    +0.000 A 
ATOM     16  C   UNL     1       5.063   5.601  17.557  0.00  0.00    +0.000 A 
ATOM     17  C   UNL     1       4.759   5.020  16.305  0.00  0.00    +0.000 A 
BRANCH  12  19
ATOM     18  C   UNL     1       6.374   3.956  13.322  0.00  0.00    +0.000 C 
ATOM     19  O   UNL     1       5.524   3.638  14.418  0.00  0.00    +0.000 OA
ENDBRANCH  12  19
BRANCH  15  20
ATOM     20  O   UNL     1       6.842   5.949  19.274  0.00  0.00    +0.000 OA
ATOM     21  C   UNL     1       8.165   5.609  19.658  0.00  0.00    +0.000 C 
ENDBRANCH  15  20
ENDBRANCH   1  16
BRANCH   5  22
ATOM     22  C   UNL     1       0.981   9.924  19.062  0.00  0.00    +0.000 A 
ATOM     23  C   UNL     1      -0.387  10.058  18.853  0.00  0.00    +0.000 A 
ATOM     24  C   UNL     1      -0.891  10.937  19.840  0.00  0.00    +0.000 A 
ATOM     25  C   UNL     1       0.184  11.275  20.621  0.00  0.00    +0.000 A 
ATOM     26  O   UNL     1       1.308  10.665  20.173  0.00  0.00    +0.000 OA
ENDBRANCH   5  22
TORSDOF 4
ENDMDL
MODEL 7
REMARK VINA RESULT:      -6.5      2.514      7.532
REMARK  Name = 
REMARK  6 active torsions:
REMARK  status: ('A' for Active; 'I' for Inactive)
REMARK    1  A    between atoms: C_1  and  O_2
REMARK    2  A    between atoms: O_2  and  C_3
REMARK    3  A    between atoms: C_6  and  O_7
REMARK    4  A    between atoms: O_7  and  C_8
REMARK    5  A    between atoms: C_9  and  N_10
REMARK    6  A    between atoms: C_14  and  C_15
REMARK                            x       y       z     vdW  Elec       q    Type
REMARK                         _______ _______ _______ _____ _____    ______ ____
ROOT
ATOM      1  N   UNL     1       3.183   6.413  18.523  0.00  0.00    +0.000 N 
ATOM      2  C   UNL     1       2.411   7.008  19.533  0.00  0.00    +0.000 C 
ATOM      3  O   UNL     1       2.160   6.474  20.616  0.00  0.00    +0.000 OA
ATOM      4  C   UNL     1       1.870   8.362  19.224  0.00  0.00    +0.000 C 
ATOM      5  C   UNL     1       0.955   8.852  20.084  0.00  0.00    +0.000 C 
ATOM      6  C   UNL     1       2.342   9.073  18.016  0.00  0.00    +0.000 C 
ATOM      7  O   UNL     1       1.904  10.135  17.602  0.00  0.00    +0.000 OA
ATOM      8  N   UNL     1       3.315   8.425  17.319  0.00  0.00    +0.000 N 
ATOM      9  C   UNL     1       3.743   7.131  17.462  0.00  0.00    +0.000 C 
ATOM     10  S   UNL     1       4.895   6.624  16.347  0.00  0.00    +0.000 S 
ATOM     11  H   UNL     1       3.668   8.930  16.513  0.00  0.00    +0.000 HD
ENDROOT
BRANCH   1  16
ATOM     12  C   UNL     1       2.781   2.728  18.804  0.00  0.00    +0.000 A 
ATOM     13  C   UNL     1       4.003   2.356  19.358  0.00  0.00    +0.000 A 
ATOM     14  C   UNL     1       4.997   3.309  19.590  0.00  0.00    +0.000 A 
ATOM     15  C   UNL     1       4.788   4.660  19.286  0.00  0.00    +0.000 A 
ATOM     16  C   UNL     1       3.556   5.044  18.727  0.00  0.00    +0.000 A 
ATOM     17  C   UNL     1       2.572   4.064  18.464  0.00  0.00    +0.000 A 
BRANCH  12  19
ATOM     18  C   UNL     1       0.494   2.065  18.789  0.00  0.00    +0.000 C 
ATOM     19  O   UNL     1       1.869   1.716  18.688  0.00  0.00    +0.000 OA
ENDBRANCH  12  19
BRANCH  15  20
ATOM     20  O   UNL     1       5.822   5.462  19.689  0.00  0.00    +0.000 OA
ATOM     21  C   UNL     1       7.071   5.362  19.023  0.00  0.00    +0.000 C 
ENDBRANCH  15  20
ENDBRANCH   1  16
BRANCH   5  22
ATOM     22  C   UNL     1       0.337  10.120  19.947  0.00  0.00    +0.000 A 
ATOM     23  C   UNL     1      -0.890  10.449  19.382  0.00  0.00    +0.000 A 
ATOM     24  C   UNL     1      -1.047  11.851  19.476  0.00  0.00    +0.000 A 
ATOM     25  C   UNL     1       0.076  12.310  20.117  0.00  0.00    +0.000 A 
ATOM     26  O   UNL     1       0.906  11.280  20.415  0.00  0.00    +0.000 OA
ENDBRANCH   5  22
TORSDOF 4
ENDMDL
MODEL 8
REMARK VINA RESULT:      -6.2      2.244      7.056
REMARK  Name = 
REMARK  6 active torsions:
REMARK  status: ('A' for Active; 'I' for Inactive)
REMARK    1  A    between atoms: C_1  and  O_2
REMARK    2  A    between atoms: O_2  and  C_3
REMARK    3  A    between atoms: C_6  and  O_7
REMARK    4  A    between atoms: O_7  and  C_8
REMARK    5  A    between atoms: C_9  and  N_10
REMARK    6  A    between atoms: C_14  and  C_15
REMARK                            x       y       z     vdW  Elec       q    Type
REMARK                         _______ _______ _______ _____ _____    ______ ____
ROOT
ATOM      1  N   UNL     1       2.399   7.001  18.921  0.00  0.00    +0.000 N 
ATOM      2  C   UNL     1       2.025   8.209  18.311  0.00  0.00    +0.000 C 
ATOM      3  O   UNL     1       2.077   8.416  17.097  0.00  0.00    +0.000 OA
ATOM      4  C   UNL     1       1.557   9.283  19.233  0.00  0.00    +0.000 C 
ATOM      5  C   UNL     1       1.403  10.509  18.694  0.00  0.00    +0.000 C 
ATOM      6  C   UNL     1       1.306   8.961  20.654  0.00  0.00    +0.000 C 
ATOM      7  O   UNL     1       1.021   9.767  21.524  0.00  0.00    +0.000 OA
ATOM      8  N   UNL     1       1.464   7.647  20.975  0.00  0.00    +0.000 N 
ATOM      9  C   UNL     1       2.028   6.652  20.222  0.00  0.00    +0.000 C 
ATOM     10  S   UNL     1       2.161   5.158  20.983  0.00  0.00    +0.000 S 
ATOM     11  H   UNL     1       1.252   7.418  21.941  0.00  0.00    +0.000 HD
ENDROOT
BRANCH   1  16
ATOM     12  C   UNL     1       2.944   3.731  17.239  0.00  0.00    +0.000 A 
ATOM     13  C   UNL     1       4.222   3.898  16.712  0.00  0.00    +0.000 A 
ATOM     14  C   UNL     1       4.895   5.113  16.854  0.00  0.00    +0.000 A 
ATOM     15  C   UNL     1       4.312   6.187  17.537  0.00  0.00    +0.000 A 
ATOM     16  C   UNL     1       3.022   6.026  18.074  0.00  0.00    +0.000 A 
ATOM     17  C   UNL     1       2.337   4.803  17.892  0.00  0.00    +0.000 A 
BRANCH  12  19
ATOM     18  C   UNL     1       1.992   1.808  18.272  0.00  0.00    +0.000 C 
ATOM     19  O   UNL     1       2.419   2.477  17.092  0.00  0.00    +0.000 OA
ENDBRANCH  12  19
BRANCH  15  20
ATOM     20  O   UNL     1       5.161   7.251  17.679  0.00  0.00    +0.000 OA
ATOM     21  C   UNL     1       6.511   7.115  17.265  0.00  0.00    +0.000 C 
ENDBRANCH  15  20
ENDBRANCH   1  16
BRANCH   5  22
ATOM     22  C   UNL     1       0.967  11.645  19.421  0.00  0.00    +0.000 A 
ATOM     23  C   UNL     1       1.714  12.667  19.996  0.00  0.00    +0.000 A 
ATOM     24  C   UNL     1       0.813  13.560  20.622  0.00  0.00    +0.000 A 
ATOM     25  C   UNL     1      -0.439  13.059  20.377  0.00  0.00    +0.000 A 
ATOM     26  O   UNL     1      -0.360  11.919  19.648  0.00  0.00    +0.000 OA
ENDBRANCH   5  22
TORSDOF 4
ENDMDL
MODEL 9
REMARK VINA RESULT:      -5.9      3.004      3.798
REMARK  Name = 
REMARK  6 active torsions:
REMARK  status: ('A' for Active; 'I' for Inactive)
REMARK    1  A    between atoms: C_1  and  O_2
REMARK    2  A    between atoms: O_2  and  C_3
REMARK    3  A    between atoms: C_6  and  O_7
REMARK    4  A    between atoms: O_7  and  C_8
REMARK    5  A    between atoms: C_9  and  N_10
REMARK    6  A    between atoms: C_14  and  C_15
REMARK                            x       y       z     vdW  Elec       q    Type
REMARK                         _______ _______ _______ _____ _____    ______ ____
ROOT
ATOM      1  N   UNL     1       0.125  10.892  20.272  0.00  0.00    +0.000 N 
ATOM      2  C   UNL     1       0.579   9.616  20.637  0.00  0.00    +0.000 C 
ATOM      3  O   UNL     1       0.439   9.126  21.760  0.00  0.00    +0.000 OA
ATOM      4  C   UNL     1       1.284   8.850  19.570  0.00  0.00    +0.000 C 
ATOM      5  C   UNL     1       1.914   7.723  19.959  0.00  0.00    +0.000 C 
ATOM      6  C   UNL     1       1.267   9.356  18.181  0.00  0.00    +0.000 C 
ATOM      7  O   UNL     1       1.887   8.878  17.244  0.00  0.00    +0.000 OA
ATOM      8  N   UNL     1       0.519  10.479  17.995  0.00  0.00    +0.000 N 
ATOM      9  C   UNL     1      -0.021  11.305  18.945  0.00  0.00    +0.000 C 
ATOM     10  S   UNL     1      -0.797  12.675  18.353  0.00  0.00    +0.000 S 
ATOM     11  H   UNL     1       0.475  10.804  17.035  0.00  0.00    +0.000 HD
ENDROOT
BRANCH   1  16
ATOM     12  C   UNL     1      -2.320  12.218  22.739  0.00  0.00    +0.000 A 
ATOM     13  C   UNL     1      -1.678  13.375  23.175  0.00  0.00    +0.000 A 
ATOM     14  C   UNL     1      -0.404  13.699  22.703  0.00  0.00    +0.000 A 
ATOM     15  C   UNL     1       0.253  12.882  21.776  0.00  0.00    +0.000 A 
ATOM     16  C   UNL     1      -0.389  11.713  21.330  0.00  0.00    +0.000 A 
ATOM     17  C   UNL     1      -1.663  11.377  21.842  0.00  0.00    +0.000 A 
BRANCH  12  19
ATOM     18  C   UNL     1      -3.968  12.835  24.344  0.00  0.00    +0.000 C 
ATOM     19  O   UNL     1      -3.587  12.047  23.223  0.00  0.00    +0.000 OA
ENDBRANCH  12  19
BRANCH  15  20
ATOM     20  O   UNL     1       1.436  13.417  21.340  0.00  0.00    +0.000 OA
ATOM     21  C   UNL     1       1.521  14.817  21.125  0.00  0.00    +0.000 C 
ENDBRANCH  15  20
ENDBRANCH   1  16
BRANCH   5  22
ATOM     22  C   UNL     1       2.632   6.872  19.081  0.00  0.00    +0.000 A 
ATOM     23  C   UNL     1       2.221   5.703  18.450  0.00  0.00    +0.000 A 
ATOM     24  C   UNL     1       3.309   5.219  17.687  0.00  0.00    +0.000 A 
ATOM     25  C   UNL     1       4.321   6.126  17.865  0.00  0.00    +0.000 A 
ATOM     26  O   UNL     1       3.924   7.127  18.688  0.00  0.00    +0.000 OA
ENDBRANCH   5  22
TORSDOF 4
ENDMDL
