MODEL 1
REMARK VINA RESULT:      -6.6      0.000      0.000
REMARK  Name = 
REMARK  10 active torsions:
REMARK  status: ('A' for Active; 'I' for Inactive)
REMARK    1  A    between atoms: C_1  and  C_2
REMARK    2  A    between atoms: C_2  and  O_3
REMARK    3  A    between atoms: O_3  and  C_4
REMARK    4  A    between atoms: C_4  and  C_6
REMARK    5  A    between atoms: C_6  and  C_7
REMARK    6  A    between atoms: C_6  and  N_13
REMARK    7  A    between atoms: C_6  and  C_17
REMARK    8  A    between atoms: C_7  and  C_8
REMARK    9  A    between atoms: C_14  and  C_15
REMARK   10  A    between atoms: C_17  and  O_19
REMARK                            x       y       z     vdW  Elec       q    Type
REMARK                         _______ _______ _______ _____ _____    ______ ____
ROOT
ATOM      1  C   UNL     1       4.608   3.865  17.826  0.00  0.00    +0.000 C 
ENDROOT
BRANCH   1   2
ATOM      2  N   UNL     1       5.448   3.700  16.606  0.00  0.00    +0.000 N 
ATOM      3  C   UNL     1       5.681   4.688  15.692  0.00  0.00    +0.000 C 
ATOM      4  C   UNL     1       6.622   4.346  14.574  0.00  0.00    +0.000 C 
ATOM      5  O   UNL     1       5.087   5.764  15.741  0.00  0.00    +0.000 OA
ATOM      6  H   UNL     1       5.963   2.828  16.526  0.00  0.00    +0.000 HD
ENDBRANCH   1   2
BRANCH   1   7
ATOM      7  C   UNL     1       5.400   4.780  18.797  0.00  0.00    +0.000 C 
ATOM      8  O   UNL     1       4.879   5.572  19.578  0.00  0.00    +0.000 OA
BRANCH   7   9
ATOM      9  O   UNL     1       6.739   4.617  18.643  0.00  0.00    +0.000 OA
BRANCH   9  11
ATOM     10  C   UNL     1       7.686   6.678  18.051  0.00  0.00    +0.000 C 
ATOM     11  C   UNL     1       7.622   5.625  19.141  0.00  0.00    +0.000 C 
ENDBRANCH   9  11
ENDBRANCH   7   9
ENDBRANCH   1   7
BRANCH   1  12
ATOM     12  C   UNL     1       4.432   2.503  18.542  0.00  0.00    +0.000 C 
ATOM     13  O   UNL     1       3.928   1.513  18.025  0.00  0.00    +0.000 OA
BRANCH  12  14
ATOM     14  O   UNL     1       4.978   2.416  19.780  0.00  0.00    +0.000 OA
ATOM     15  H   UNL     1       5.856   1.958  19.814  0.00  0.00    +0.000 HD
ENDBRANCH  12  14
ENDBRANCH   1  12
BRANCH   1  16
ATOM     16  C   UNL     1       3.182   4.415  17.565  0.00  0.00    +0.000 C 
BRANCH  16  17
ATOM     17  C   UNL     1       2.135   3.940  18.515  0.00  0.00    +0.000 A 
ATOM     18  C   UNL     1       1.861   4.241  19.833  0.00  0.00    +0.000 A 
ATOM     19  C   UNL     1       0.742   3.456  20.196  0.00  0.00    +0.000 A 
ATOM     20  C   UNL     1       0.409   2.725  19.082  0.00  0.00    +0.000 A 
ATOM     21  O   UNL     1       1.251   3.013  18.057  0.00  0.00    +0.000 OA
ENDBRANCH  16  17
ENDBRANCH   1  16
TORSDOF 8
ENDMDL
MODEL 2
REMARK VINA RESULT:      -6.5      1.786      2.758
REMARK  Name = 
REMARK  10 active torsions:
REMARK  status: ('A' for Active; 'I' for Inactive)
REMARK    1  A    between atoms: C_1  and  C_2
REMARK    2  A    between atoms: C_2  and  O_3
REMARK    3  A    between atoms: O_3  and  C_4
REMARK    4  A    between atoms: C_4  and  C_6
REMARK    5  A    between atoms: C_6  and  C_7
REMARK    6  A    between atoms: C_6  and  N_13
REMARK    7  A    between atoms: C_6  and  C_17
REMARK    8  A    between atoms: C_7  and  C_8
REMARK    9  A    between atoms: C_14  and  C_15
REMARK   10  A    between atoms: C_17  and  O_19
REMARK                            x       y       z     vdW  Elec       q    Type
REMARK                         _______ _______ _______ _____ _____    ______ ____
ROOT
ATOM      1  C   UNL     1       6.201   5.143  17.744  0.00  0.00    +0.000 C 
ENDROOT
BRANCH   1   2
ATOM      2  N   UNL     1       5.943   4.459  16.445  0.00  0.00    +0.000 N 
ATOM      3  C   UNL     1       6.631   4.713  15.292  0.00  0.00    +0.000 C 
ATOM      4  C   UNL     1       6.274   3.860  14.110  0.00  0.00    +0.000 C 
ATOM      5  O   UNL     1       7.434   5.640  15.212  0.00  0.00    +0.000 OA
ATOM      6  H   UNL     1       5.290   3.682  16.465  0.00  0.00    +0.000 HD
ENDBRANCH   1   2
BRANCH   1   7
ATOM      7  C   UNL     1       6.265   6.664  17.446  0.00  0.00    +0.000 C 
ATOM      8  O   UNL     1       5.311   7.331  17.050  0.00  0.00    +0.000 OA
BRANCH   7   9
ATOM      9  O   UNL     1       7.517   7.151  17.643  0.00  0.00    +0.000 OA
BRANCH   9  11
ATOM     10  C   UNL     1       8.658   8.926  18.663  0.00  0.00    +0.000 C 
ATOM     11  C   UNL     1       7.742   8.557  17.512  0.00  0.00    +0.000 C 
ENDBRANCH   9  11
ENDBRANCH   7   9
ENDBRANCH   1   7
BRANCH   1  12
ATOM     12  C   UNL     1       7.590   4.739  18.296  0.00  0.00    +0.000 C 
ATOM     13  O   UNL     1       8.408   4.067  17.678  0.00  0.00    +0.000 OA
BRANCH  12  14
ATOM     14  O   UNL     1       7.922   5.271  19.498  0.00  0.00    +0.000 OA
ATOM     15  H   UNL     1       8.829   5.036  19.819  0.00  0.00    +0.000 HD
ENDBRANCH  12  14
ENDBRANCH   1  12
BRANCH   1  16
ATOM     16  C   UNL     1       5.173   4.827  18.862  0.00  0.00    +0.000 C 
BRANCH  16  17
ATOM     17  C   UNL     1       3.818   4.429  18.383  0.00  0.00    +0.000 A 
ATOM     18  C   UNL     1       2.634   5.122  18.241  0.00  0.00    +0.000 A 
ATOM     19  C   UNL     1       1.686   4.194  17.749  0.00  0.00    +0.000 A 
ATOM     20  C   UNL     1       2.349   2.997  17.628  0.00  0.00    +0.000 A 
ATOM     21  O   UNL     1       3.643   3.131  18.012  0.00  0.00    +0.000 OA
ENDBRANCH  16  17
ENDBRANCH   1  16
TORSDOF 8
ENDMDL
MODEL 3
REMARK VINA RESULT:      -6.5      1.325      3.411
REMARK  Name = 
REMARK  10 active torsions:
REMARK  status: ('A' for Active; 'I' for Inactive)
REMARK    1  A    between atoms: C_1  and  C_2
REMARK    2  A    between atoms: C_2  and  O_3
REMARK    3  A    between atoms: O_3  and  C_4
REMARK    4  A    between atoms: C_4  and  C_6
REMARK    5  A    between atoms: C_6  and  C_7
REMARK    6  A    between atoms: C_6  and  N_13
REMARK    7  A    between atoms: C_6  and  C_17
REMARK    8  A    between atoms: C_7  and  C_8
REMARK    9  A    between atoms: C_14  and  C_15
REMARK   10  A    between atoms: C_17  and  O_19
REMARK                            x       y       z     vdW  Elec       q    Type
REMARK                         _______ _______ _______ _____ _____    ______ ____
ROOT
ATOM      1  C   UNL     1       4.744   4.751  17.802  0.00  0.00    +0.000 C 
ENDROOT
BRANCH   1   2
ATOM      2  N   UNL     1       4.322   3.323  17.744  0.00  0.00    +0.000 N 
ATOM      3  C   UNL     1       4.391   2.457  18.797  0.00  0.00    +0.000 C 
ATOM      4  C   UNL     1       3.841   1.080  18.557  0.00  0.00    +0.000 C 
ATOM      5  O   UNL     1       4.947   2.765  19.849  0.00  0.00    +0.000 OA
ATOM      6  H   UNL     1       3.853   3.025  16.894  0.00  0.00    +0.000 HD
ENDBRANCH   1   2
BRANCH   1   7
ATOM      7  C   UNL     1       5.068   5.183  16.347  0.00  0.00    +0.000 C 
ATOM      8  O   UNL     1       4.995   6.340  15.937  0.00  0.00    +0.000 OA
BRANCH   7   9
ATOM      9  O   UNL     1       5.405   4.114  15.581  0.00  0.00    +0.000 OA
BRANCH   9  11
ATOM     10  C   UNL     1       5.974   3.810  13.327  0.00  0.00    +0.000 C 
ATOM     11  C   UNL     1       6.512   4.227  14.682  0.00  0.00    +0.000 C 
ENDBRANCH   9  11
ENDBRANCH   7   9
ENDBRANCH   1   7
BRANCH   1  12
ATOM     12  C   UNL     1       6.058   4.889  18.609  0.00  0.00    +0.000 C 
ATOM     13  O   UNL     1       6.164   5.532  19.647  0.00  0.00    +0.000 OA
BRANCH  12  14
ATOM     14  O   UNL     1       7.103   4.150  18.161  0.00  0.00    +0.000 OA
ATOM     15  H   UNL     1       6.856   3.414  17.545  0.00  0.00    +0.000 HD
ENDBRANCH  12  14
ENDBRANCH   1  12
BRANCH   1  16
ATOM     16  C   UNL     1       3.717   5.708  18.461  0.00  0.00    +0.000 C 
BRANCH  16  17
ATOM     17  C   UNL     1       2.637   5.039  19.242  0.00  0.00    +0.000 A 
ATOM     18  C   UNL     1       2.349   4.991  20.590  0.00  0.00    +0.000 A 
ATOM     19  C   UNL     1       1.197   4.181  20.722  0.00  0.00    +0.000 A 
ATOM     20  C   UNL     1       0.860   3.783  19.451  0.00  0.00    +0.000 A 
ATOM     21  O   UNL     1       1.730   4.300  18.547  0.00  0.00    +0.000 OA
ENDBRANCH  16  17
ENDBRANCH   1  16
TORSDOF 8
ENDMDL
MODEL 4
REMARK VINA RESULT:      -6.5      1.670      4.102
REMARK  Name = 
REMARK  10 active torsions:
REMARK  status: ('A' for Active; 'I' for Inactive)
REMARK    1  A    between atoms: C_1  and  C_2
REMARK    2  A    between atoms: C_2  and  O_3
REMARK    3  A    between atoms: O_3  and  C_4
REMARK    4  A    between atoms: C_4  and  C_6
REMARK    5  A    between atoms: C_6  and  C_7
REMARK    6  A    between atoms: C_6  and  N_13
REMARK    7  A    between atoms: C_6  and  C_17
REMARK    8  A    between atoms: C_7  and  C_8
REMARK    9  A    between atoms: C_14  and  C_15
REMARK   10  A    between atoms: C_17  and  O_19
REMARK                            x       y       z     vdW  Elec       q    Type
REMARK                         _______ _______ _______ _____ _____    ______ ____
ROOT
ATOM      1  C   UNL     1       5.513   4.805  16.632  0.00  0.00    +0.000 C 
ENDROOT
BRANCH   1   2
ATOM      2  N   UNL     1       6.307   4.821  17.893  0.00  0.00    +0.000 N 
ATOM      3  C   UNL     1       7.108   5.855  18.286  0.00  0.00    +0.000 C 
ATOM      4  C   UNL     1       7.762   5.710  19.629  0.00  0.00    +0.000 C 
ATOM      5  O   UNL     1       7.342   6.806  17.543  0.00  0.00    +0.000 OA
ATOM      6  H   UNL     1       6.142   4.056  18.540  0.00  0.00    +0.000 HD
ENDBRANCH   1   2
BRANCH   1   7
ATOM      7  C   UNL     1       6.497   4.451  15.486  0.00  0.00    +0.000 C 
ATOM      8  O   UNL     1       7.720   4.549  15.570  0.00  0.00    +0.000 OA
BRANCH   7   9
ATOM      9  O   UNL     1       5.831   4.055  14.371  0.00  0.00    +0.000 OA
BRANCH   9  11
ATOM     10  C   UNL     1       5.626   3.208  12.195  0.00  0.00    +0.000 C 
ATOM     11  C   UNL     1       6.540   3.973  13.132  0.00  0.00    +0.000 C 
ENDBRANCH   9  11
ENDBRANCH   7   9
ENDBRANCH   1   7
BRANCH   1  12
ATOM     12  C   UNL     1       4.966   6.221  16.326  0.00  0.00    +0.000 C 
ATOM     13  O   UNL     1       4.213   6.844  17.065  0.00  0.00    +0.000 OA
BRANCH  12  14
ATOM     14  O   UNL     1       5.461   6.813  15.210  0.00  0.00    +0.000 OA
ATOM     15  H   UNL     1       5.564   7.797  15.275  0.00  0.00    +0.000 HD
ENDBRANCH  12  14
ENDBRANCH   1  12
BRANCH   1  16
ATOM     16  C   UNL     1       4.290   3.852  16.643  0.00  0.00    +0.000 C 
BRANCH  16  17
ATOM     17  C   UNL     1       3.472   3.885  17.890  0.00  0.00    +0.000 A 
ATOM     18  C   UNL     1       2.165   4.245  18.143  0.00  0.00    +0.000 A 
ATOM     19  C   UNL     1       1.967   4.074  19.534  0.00  0.00    +0.000 A 
ATOM     20  C   UNL     1       3.164   3.627  20.039  0.00  0.00    +0.000 A 
ATOM     21  O   UNL     1       4.083   3.510  19.047  0.00  0.00    +0.000 OA
ENDBRANCH  16  17
ENDBRANCH   1  16
TORSDOF 8
ENDMDL
MODEL 5
REMARK VINA RESULT:      -6.4      1.925      4.205
REMARK  Name = 
REMARK  10 active torsions:
REMARK  status: ('A' for Active; 'I' for Inactive)
REMARK    1  A    between atoms: C_1  and  C_2
REMARK    2  A    between atoms: C_2  and  O_3
REMARK    3  A    between atoms: O_3  and  C_4
REMARK    4  A    between atoms: C_4  and  C_6
REMARK    5  A    between atoms: C_6  and  C_7
REMARK    6  A    between atoms: C_6  and  N_13
REMARK    7  A    between atoms: C_6  and  C_17
REMARK    8  A    between atoms: C_7  and  C_8
REMARK    9  A    between atoms: C_14  and  C_15
REMARK   10  A    between atoms: C_17  and  O_19
REMARK                            x       y       z     vdW  Elec       q    Type
REMARK                         _______ _______ _______ _____ _____    ______ ____
ROOT
ATOM      1  C   UNL     1       5.633   4.822  16.511  0.00  0.00    +0.000 C 
ENDROOT
BRANCH   1   2
ATOM      2  N   UNL     1       6.421   4.815  17.776  0.00  0.00    +0.000 N 
ATOM      3  C   UNL     1       7.163   5.869  18.227  0.00  0.00    +0.000 C 
ATOM      4  C   UNL     1       7.820   5.690  19.565  0.00  0.00    +0.000 C 
ATOM      5  O   UNL     1       7.347   6.870  17.537  0.00  0.00    +0.000 OA
ATOM      6  H   UNL     1       6.296   4.009  18.382  0.00  0.00    +0.000 HD
ENDBRANCH   1   2
BRANCH   1   7
ATOM      7  C   UNL     1       6.613   4.440  15.370  0.00  0.00    +0.000 C 
ATOM      8  O   UNL     1       7.808   4.727  15.361  0.00  0.00    +0.000 OA
BRANCH   7   9
ATOM      9  O   UNL     1       5.970   3.782  14.371  0.00  0.00    +0.000 OA
BRANCH   9  11
ATOM     10  C   UNL     1       5.424   3.232  12.160  0.00  0.00    +0.000 C 
ATOM     11  C   UNL     1       6.473   3.886  13.037  0.00  0.00    +0.000 C 
ENDBRANCH   9  11
ENDBRANCH   7   9
ENDBRANCH   1   7
BRANCH   1  12
ATOM     12  C   UNL     1       5.129   6.253  16.203  0.00  0.00    +0.000 C 
ATOM     13  O   UNL     1       5.314   6.836  15.141  0.00  0.00    +0.000 OA
BRANCH  12  14
ATOM     14  O   UNL     1       4.348   6.819  17.158  0.00  0.00    +0.000 OA
ATOM     15  H   UNL     1       4.078   7.754  16.971  0.00  0.00    +0.000 HD
ENDBRANCH  12  14
ENDBRANCH   1  12
BRANCH   1  16
ATOM     16  C   UNL     1       4.383   3.905  16.517  0.00  0.00    +0.000 C 
BRANCH  16  17
ATOM     17  C   UNL     1       3.929   3.460  17.865  0.00  0.00    +0.000 A 
ATOM     18  C   UNL     1       3.648   2.218  18.397  0.00  0.00    +0.000 A 
ATOM     19  C   UNL     1       3.246   2.439  19.734  0.00  0.00    +0.000 A 
ATOM     20  C   UNL     1       3.302   3.798  19.932  0.00  0.00    +0.000 A 
ATOM     21  O   UNL     1       3.715   4.424  18.802  0.00  0.00    +0.000 OA
ENDBRANCH  16  17
ENDBRANCH   1  16
TORSDOF 8
ENDMDL
MODEL 6
REMARK VINA RESULT:      -6.4      2.038      5.186
REMARK  Name = 
REMARK  10 active torsions:
REMARK  status: ('A' for Active; 'I' for Inactive)
REMARK    1  A    between atoms: C_1  and  C_2
REMARK    2  A    between atoms: C_2  and  O_3
REMARK    3  A    between atoms: O_3  and  C_4
REMARK    4  A    between atoms: C_4  and  C_6
REMARK    5  A    between atoms: C_6  and  C_7
REMARK    6  A    between atoms: C_6  and  N_13
REMARK    7  A    between atoms: C_6  and  C_17
REMARK    8  A    between atoms: C_7  and  C_8
REMARK    9  A    between atoms: C_14  and  C_15
REMARK   10  A    between atoms: C_17  and  O_19
REMARK                            x       y       z     vdW  Elec       q    Type
REMARK                         _______ _______ _______ _____ _____    ______ ____
ROOT
ATOM      1  C   UNL     1       3.956   5.144  18.617  0.00  0.00    +0.000 C 
ENDROOT
BRANCH   1   2
ATOM      2  N   UNL     1       3.343   5.974  19.691  0.00  0.00    +0.000 N 
ATOM      3  C   UNL     1       2.389   6.929  19.478  0.00  0.00    +0.000 C 
ATOM      4  C   UNL     1       1.842   7.600  20.704  0.00  0.00    +0.000 C 
ATOM      5  O   UNL     1       2.064   7.271  18.344  0.00  0.00    +0.000 OA
ATOM      6  H   UNL     1       3.580   5.724  20.647  0.00  0.00    +0.000 HD
ENDBRANCH   1   2
BRANCH   1   7
ATOM      7  C   UNL     1       3.025   3.920  18.410  0.00  0.00    +0.000 C 
ATOM      8  O   UNL     1       2.379   3.709  17.386  0.00  0.00    +0.000 OA
BRANCH   7   9
ATOM      9  O   UNL     1       2.990   3.137  19.518  0.00  0.00    +0.000 OA
BRANCH   9  11
ATOM     10  C   UNL     1       1.307   3.212  21.147  0.00  0.00    +0.000 C 
ATOM     11  C   UNL     1       1.760   2.507  19.883  0.00  0.00    +0.000 C 
ENDBRANCH   9  11
ENDBRANCH   7   9
ENDBRANCH   1   7
BRANCH   1  12
ATOM     12  C   UNL     1       5.324   4.589  19.082  0.00  0.00    +0.000 C 
ATOM     13  O   UNL     1       6.116   5.207  19.784  0.00  0.00    +0.000 OA
BRANCH  12  14
ATOM     14  O   UNL     1       5.574   3.296  18.759  0.00  0.00    +0.000 OA
ATOM     15  H   UNL     1       5.393   3.063  17.813  0.00  0.00    +0.000 HD
ENDBRANCH  12  14
ENDBRANCH   1  12
BRANCH   1  16
ATOM     16  C   UNL     1       4.213   5.892  17.282  0.00  0.00    +0.000 C 
BRANCH  16  17
ATOM     17  C   UNL     1       5.300   5.322  16.436  0.00  0.00    +0.000 A 
ATOM     18  C   UNL     1       6.591   5.729  16.169  0.00  0.00    +0.000 A 
ATOM     19  C   UNL     1       7.132   4.777  15.274  0.00  0.00    +0.000 A 
ATOM     20  C   UNL     1       6.139   3.855  15.049  0.00  0.00    +0.000 A 
ATOM     21  O   UNL     1       5.024   4.179  15.750  0.00  0.00    +0.000 OA
ENDBRANCH  16  17
ENDBRANCH   1  16
TORSDOF 8
ENDMDL
MODEL 7
REMARK VINA RESULT:      -6.3      1.252      4.584
REMARK  Name = 
REMARK  10 active torsions:
REMARK  status: ('A' for Active; 'I' for Inactive)
REMARK    1  A    between atoms: C_1  and  C_2
REMARK    2  A    between atoms: C_2  and  O_3
REMARK    3  A    between atoms: O_3  and  C_4
REMARK    4  A    between atoms: C_4  and  C_6
REMARK    5  A    between atoms: C_6  and  C_7
REMARK    6  A    between atoms: C_6  and  N_13
REMARK    7  A    between atoms: C_6  and  C_17
REMARK    8  A    between atoms: C_7  and  C_8
REMARK    9  A    between atoms: C_14  and  C_15
REMARK   10  A    between atoms: C_17  and  O_19
REMARK                            x       y       z     vdW  Elec       q    Type
REMARK                         _______ _______ _______ _____ _____    ______ ____
ROOT
ATOM      1  C   UNL     1       4.036   4.014  18.351  0.00  0.00    +0.000 C 
ENDROOT
BRANCH   1   2
ATOM      2  N   UNL     1       5.011   3.555  17.322  0.00  0.00    +0.000 N 
ATOM      3  C   UNL     1       5.248   4.201  16.142  0.00  0.00    +0.000 C 
ATOM      4  C   UNL     1       6.328   3.621  15.276  0.00  0.00    +0.000 C 
ATOM      5  O   UNL     1       4.558   5.151  15.779  0.00  0.00    +0.000 OA
ATOM      6  H   UNL     1       5.608   2.774  17.581  0.00  0.00    +0.000 HD
ENDBRANCH   1   2
BRANCH   1   7
ATOM      7  C   UNL     1       3.863   2.847  19.359  0.00  0.00    +0.000 C 
ATOM      8  O   UNL     1       4.009   1.661  19.073  0.00  0.00    +0.000 OA
BRANCH   7   9
ATOM      9  O   UNL     1       3.494   3.305  20.582  0.00  0.00    +0.000 OA
BRANCH   9  11
ATOM     10  C   UNL     1       1.167   3.281  20.861  0.00  0.00    +0.000 C 
ATOM     11  C   UNL     1       2.461   2.621  21.296  0.00  0.00    +0.000 C 
ENDBRANCH   9  11
ENDBRANCH   7   9
ENDBRANCH   1   7
BRANCH   1  12
ATOM     12  C   UNL     1       2.649   4.253  17.705  0.00  0.00    +0.000 C 
ATOM     13  O   UNL     1       1.963   3.372  17.200  0.00  0.00    +0.000 OA
BRANCH  12  14
ATOM     14  O   UNL     1       2.156   5.511  17.822  0.00  0.00    +0.000 OA
ATOM     15  H   UNL     1       1.365   5.700  17.256  0.00  0.00    +0.000 HD
ENDBRANCH  12  14
ENDBRANCH   1  12
BRANCH   1  16
ATOM     16  C   UNL     1       4.421   5.333  19.071  0.00  0.00    +0.000 C 
BRANCH  16  17
ATOM     17  C   UNL     1       5.857   5.720  18.961  0.00  0.00    +0.000 A 
ATOM     18  C   UNL     1       6.522   6.632  18.169  0.00  0.00    +0.000 A 
ATOM     19  C   UNL     1       7.890   6.536  18.515  0.00  0.00    +0.000 A 
ATOM     20  C   UNL     1       7.972   5.571  19.489  0.00  0.00    +0.000 A 
ATOM     21  O   UNL     1       6.742   5.071  19.765  0.00  0.00    +0.000 OA
ENDBRANCH  16  17
ENDBRANCH   1  16
TORSDOF 8
ENDMDL
MODEL 8
REMARK VINA RESULT:      -6.2      0.706      1.156
REMARK  Name = 
REMARK  10 active torsions:
REMARK  status: ('A' for Active; 'I' for Inactive)
REMARK    1  A    between atoms: C_1  and  C_2
REMARK    2  A    between atoms: C_2  and  O_3
REMARK    3  A    between atoms: O_3  and  C_4
REMARK    4  A    between atoms: C_4  and  C_6
REMARK    5  A    between atoms: C_6  and  C_7
REMARK    6  A    between atoms: C_6  and  N_13
REMARK    7  A    between atoms: C_6  and  C_17
REMARK    8  A    between atoms: C_7  and  C_8
REMARK    9  A    between atoms: C_14  and  C_15
REMARK   10  A    between atoms: C_17  and  O_19
REMARK                            x       y       z     vdW  Elec       q    Type
REMARK                         _______ _______ _______ _____ _____    ______ ____
ROOT
ATOM      1  C   UNL     1       4.632   3.854  17.960  0.00  0.00    +0.000 C 
ENDROOT
BRANCH   1   2
ATOM      2  N   UNL     1       5.455   3.652  16.735  0.00  0.00    +0.000 N 
ATOM      3  C   UNL     1       5.649   4.601  15.772  0.00  0.00    +0.000 C 
ATOM      4  C   UNL     1       6.579   4.228  14.654  0.00  0.00    +0.000 C 
ATOM      5  O   UNL     1       5.031   5.663  15.782  0.00  0.00    +0.000 OA
ATOM      6  H   UNL     1       5.989   2.789  16.686  0.00  0.00    +0.000 HD
ENDBRANCH   1   2
BRANCH   1   7
ATOM      7  C   UNL     1       5.400   4.860  18.857  0.00  0.00    +0.000 C 
ATOM      8  O   UNL     1       4.863   5.746  19.518  0.00  0.00    +0.000 OA
BRANCH   7   9
ATOM      9  O   UNL     1       6.741   4.656  18.786  0.00  0.00    +0.000 OA
BRANCH   9  11
ATOM     10  C   UNL     1       7.704   6.652  18.024  0.00  0.00    +0.000 C 
ATOM     11  C   UNL     1       7.623   5.701  19.203  0.00  0.00    +0.000 C 
ENDBRANCH   9  11
ENDBRANCH   7   9
ENDBRANCH   1   7
BRANCH   1  12
ATOM     12  C   UNL     1       4.529   2.532  18.760  0.00  0.00    +0.000 C 
ATOM     13  O   UNL     1       4.675   2.448  19.974  0.00  0.00    +0.000 OA
BRANCH  12  14
ATOM     14  O   UNL     1       4.149   1.442  18.048  0.00  0.00    +0.000 OA
ATOM     15  H   UNL     1       4.770   1.187  17.319  0.00  0.00    +0.000 HD
ENDBRANCH  12  14
ENDBRANCH   1  12
BRANCH   1  16
ATOM     16  C   UNL     1       3.178   4.325  17.698  0.00  0.00    +0.000 C 
BRANCH  16  17
ATOM     17  C   UNL     1       2.182   3.915  18.729  0.00  0.00    +0.000 A 
ATOM     18  C   UNL     1       1.238   2.910  18.772  0.00  0.00    +0.000 A 
ATOM     19  C   UNL     1       0.581   3.034  20.019  0.00  0.00    +0.000 A 
ATOM     20  C   UNL     1       1.160   4.107  20.652  0.00  0.00    +0.000 A 
ATOM     21  O   UNL     1       2.133   4.647  19.875  0.00  0.00    +0.000 OA
ENDBRANCH  16  17
ENDBRANCH   1  16
TORSDOF 8
ENDMDL
MODEL 9
REMARK VINA RESULT:      -6.2      1.267      1.780
REMARK  Name = 
REMARK  10 active torsions:
REMARK  status: ('A' for Active; 'I' for Inactive)
REMARK    1  A    between atoms: C_1  and  C_2
REMARK    2  A    between atoms: C_2  and  O_3
REMARK    3  A    between atoms: O_3  and  C_4
REMARK    4  A    between atoms: C_4  and  C_6
REMARK    5  A    between atoms: C_6  and  C_7
REMARK    6  A    between atoms: C_6  and  N_13
REMARK    7  A    between atoms: C_6  and  C_17
REMARK    8  A    between atoms: C_7  and  C_8
REMARK    9  A    between atoms: C_14  and  C_15
REMARK   10  A    between atoms: C_17  and  O_19
REMARK                            x       y       z     vdW  Elec       q    Type
REMARK                         _______ _______ _______ _____ _____    ______ ____
ROOT
ATOM      1  C   UNL     1       5.406   4.524  17.443  0.00  0.00    +0.000 C 
ENDROOT
BRANCH   1   2
ATOM      2  N   UNL     1       5.405   3.989  16.053  0.00  0.00    +0.000 N 
ATOM      3  C   UNL     1       5.660   4.738  14.939  0.00  0.00    +0.000 C 
ATOM      4  C   UNL     1       5.690   3.995  13.636  0.00  0.00    +0.000 C 
ATOM      5  O   UNL     1       5.774   5.961  14.998  0.00  0.00    +0.000 OA
ATOM      6  H   UNL     1       5.319   2.982  15.956  0.00  0.00    +0.000 HD
ENDBRANCH   1   2
BRANCH   1   7
ATOM      7  C   UNL     1       6.846   5.029  17.729  0.00  0.00    +0.000 C 
ATOM      8  O   UNL     1       7.866   4.425  17.403  0.00  0.00    +0.000 OA
BRANCH   7   9
ATOM      9  O   UNL     1       6.829   6.200  18.416  0.00  0.00    +0.000 OA
BRANCH   9  11
ATOM     10  C   UNL     1       7.779   8.181  17.601  0.00  0.00    +0.000 C 
ATOM     11  C   UNL     1       8.026   6.977  18.489  0.00  0.00    +0.000 C 
ENDBRANCH   9  11
ENDBRANCH   7   9
ENDBRANCH   1   7
BRANCH   1  12
ATOM     12  C   UNL     1       5.125   3.387  18.455  0.00  0.00    +0.000 C 
ATOM     13  O   UNL     1       5.446   3.420  19.637  0.00  0.00    +0.000 OA
BRANCH  12  14
ATOM     14  O   UNL     1       4.380   2.354  17.985  0.00  0.00    +0.000 OA
ATOM     15  H   UNL     1       3.442   2.342  18.303  0.00  0.00    +0.000 HD
ENDBRANCH  12  14
ENDBRANCH   1  12
BRANCH   1  16
ATOM     16  C   UNL     1       4.354   5.630  17.717  0.00  0.00    +0.000 C 
BRANCH  16  17
ATOM     17  C   UNL     1       3.178   5.200  18.528  0.00  0.00    +0.000 A 
ATOM     18  C   UNL     1       2.764   5.499  19.809  0.00  0.00    +0.000 A 
ATOM     19  C   UNL     1       1.571   4.770  20.022  0.00  0.00    +0.000 A 
ATOM     20  C   UNL     1       1.337   4.070  18.864  0.00  0.00    +0.000 A 
ATOM     21  O   UNL     1       2.309   4.325  17.952  0.00  0.00    +0.000 OA
ENDBRANCH  16  17
ENDBRANCH   1  16
TORSDOF 8
ENDMDL
