MODEL 1
REMARK VINA RESULT:      -8.7      0.000      0.000
REMARK  Name = 
REMARK  8 active torsions:
REMARK  status: ('A' for Active; 'I' for Inactive)
REMARK    1  A    between atoms: C_1  and  C_2
REMARK    2  A    between atoms: C_2  and  C_3
REMARK    3  A    between atoms: C_9  and  C_10
REMARK    4  A    between atoms: C_10  and  C_11
REMARK    5  A    between atoms: C_14  and  C_15
REMARK    6  A    between atoms: C_15  and  N_16
REMARK    7  A    between atoms: N_16  and  C_17
REMARK    8  A    between atoms: C_17  and  C_18
REMARK                            x       y       z     vdW  Elec       q    Type
REMARK                         _______ _______ _______ _____ _____    ______ ____
ROOT
ATOM      1  C   UNL     1       2.426   7.314  19.412  0.00  0.00    +0.000 C 
ATOM      2  O   UNL     1       2.284   7.358  17.988  0.00  0.00    +0.000 OA
ATOM      3  C   UNL     1       2.086   8.744  17.709  0.00  0.00    +0.000 C 
ATOM      4  C   UNL     1       1.185   9.177  18.849  0.00  0.00    +0.000 C 
ATOM      5  O   UNL     1       1.658   8.399  19.955  0.00  0.00    +0.000 OA
ENDROOT
BRANCH   1   6
ATOM      6  C   UNL     1       1.986   5.956  19.973  0.00  0.00    +0.000 C 
BRANCH   6  15
ATOM      7  C   UNL     1       0.549   2.730  19.027  0.00  0.00    +0.000 C 
ATOM      8  C   UNL     1       1.811   3.335  19.664  0.00  0.00    +0.000 C 
ATOM      9  C   UNL     1       1.587   3.344  21.192  0.00  0.00    +0.000 C 
ATOM     10  C   UNL     1       3.109   2.513  19.363  0.00  0.00    +0.000 C 
ATOM     11  C   UNL     1       3.274   2.202  17.864  0.00  0.00    +0.000 C 
ATOM     12  C   UNL     1       3.553   3.581  17.258  0.00  0.00    +0.000 C 
ATOM     13  C   UNL     1       3.597   4.501  18.496  0.00  0.00    +0.000 C 
ATOM     14  C   UNL     1       4.204   3.570  19.541  0.00  0.00    +0.000 C 
ATOM     15  C   UNL     1       2.153   4.741  19.020  0.00  0.00    +0.000 C 
ENDBRANCH   6  15
ENDBRANCH   1   6
BRANCH   4  16
ATOM     16  C   UNL     1       1.212  10.707  19.105  0.00  0.00    +0.000 C 
BRANCH  16  17
ATOM     17  N   UNL     1      -0.166  11.377  19.459  0.00  0.00    +0.000 N 
ATOM     18  C   UNL     1      -0.219  11.759  20.954  0.00  0.00    +0.000 C 
ATOM     19  C   UNL     1       0.578  13.012  21.298  0.00  0.00    +0.000 C 
ATOM     20  C   UNL     1       0.196  14.187  20.418  0.00  0.00    +0.000 C 
ATOM     21  C   UNL     1       0.398  13.817  18.958  0.00  0.00    +0.000 C 
ATOM     22  C   UNL     1      -0.457  12.615  18.580  0.00  0.00    +0.000 C 
BRANCH  17  23
ATOM     23  C   UNL     1      -1.352  10.377  19.212  0.00  0.00    +0.000 C 
BRANCH  23  24
ATOM     24  C   UNL     1      -2.223  10.551  17.988  0.00  0.00    +0.000 A 
ATOM     25  C   UNL     1      -1.914   9.886  16.790  0.00  0.00    +0.000 A 
ATOM     26  C   UNL     1      -2.767   9.968  15.685  0.00  0.00    +0.000 A 
ATOM     27  C   UNL     1      -3.938  10.716  15.752  0.00  0.00    +0.000 A 
ATOM     28  C   UNL     1      -4.263  11.389  16.923  0.00  0.00    +0.000 A 
ATOM     29  C   UNL     1      -3.412  11.299  18.028  0.00  0.00    +0.000 A 
ENDBRANCH  23  24
ENDBRANCH  17  23
ENDBRANCH  16  17
ENDBRANCH   4  16
TORSDOF 6
ENDMDL
MODEL 2
REMARK VINA RESULT:      -8.3      0.781      2.083
REMARK  Name = 
REMARK  8 active torsions:
REMARK  status: ('A' for Active; 'I' for Inactive)
REMARK    1  A    between atoms: C_1  and  C_2
REMARK    2  A    between atoms: C_2  and  C_3
REMARK    3  A    between atoms: C_9  and  C_10
REMARK    4  A    between atoms: C_10  and  C_11
REMARK    5  A    between atoms: C_14  and  C_15
REMARK    6  A    between atoms: C_15  and  N_16
REMARK    7  A    between atoms: N_16  and  C_17
REMARK    8  A    between atoms: C_17  and  C_18
REMARK                            x       y       z     vdW  Elec       q    Type
REMARK                         _______ _______ _______ _____ _____    ______ ____
ROOT
ATOM      1  C   UNL     1       2.476   7.820  18.565  0.00  0.00    +0.000 C 
ATOM      2  O   UNL     1       2.482   8.583  17.354  0.00  0.00    +0.000 OA
ATOM      3  C   UNL     1       2.123   9.898  17.781  0.00  0.00    +0.000 C 
ATOM      4  C   UNL     1       1.055   9.620  18.820  0.00  0.00    +0.000 C 
ATOM      5  O   UNL     1       1.512   8.415  19.447  0.00  0.00    +0.000 OA
ENDROOT
BRANCH   1   6
ATOM      6  C   UNL     1       2.172   6.341  18.289  0.00  0.00    +0.000 C 
BRANCH   6  15
ATOM      7  C   UNL     1       4.954   4.189  19.285  0.00  0.00    +0.000 C 
ATOM      8  C   UNL     1       3.492   4.111  18.817  0.00  0.00    +0.000 C 
ATOM      9  C   UNL     1       3.516   3.966  17.280  0.00  0.00    +0.000 C 
ATOM     10  C   UNL     1       2.717   2.888  19.414  0.00  0.00    +0.000 C 
ATOM     11  C   UNL     1       2.873   2.781  20.942  0.00  0.00    +0.000 C 
ATOM     12  C   UNL     1       2.098   4.001  21.450  0.00  0.00    +0.000 C 
ATOM     13  C   UNL     1       1.522   4.610  20.154  0.00  0.00    +0.000 C 
ATOM     14  C   UNL     1       1.262   3.358  19.323  0.00  0.00    +0.000 C 
ATOM     15  C   UNL     1       2.654   5.335  19.370  0.00  0.00    +0.000 C 
ENDBRANCH   6  15
ENDBRANCH   1   6
BRANCH   4  16
ATOM     16  C   UNL     1       0.843  10.796  19.810  0.00  0.00    +0.000 C 
BRANCH  16  17
ATOM     17  N   UNL     1      -0.522  11.567  19.689  0.00  0.00    +0.000 N 
ATOM     18  C   UNL     1      -0.845  12.315  21.002  0.00  0.00    +0.000 C 
ATOM     19  C   UNL     1      -0.039  13.593  21.197  0.00  0.00    +0.000 C 
ATOM     20  C   UNL     1      -0.143  14.518  19.999  0.00  0.00    +0.000 C 
ATOM     21  C   UNL     1       0.319  13.789  18.750  0.00  0.00    +0.000 C 
ATOM     22  C   UNL     1      -0.533  12.552  18.498  0.00  0.00    +0.000 C 
BRANCH  17  23
ATOM     23  C   UNL     1      -1.708  10.568  19.442  0.00  0.00    +0.000 C 
BRANCH  23  24
ATOM     24  C   UNL     1      -2.454  10.617  18.126  0.00  0.00    +0.000 A 
ATOM     25  C   UNL     1      -3.623  11.385  17.996  0.00  0.00    +0.000 A 
ATOM     26  C   UNL     1      -4.263  11.509  16.758  0.00  0.00    +0.000 A 
ATOM     27  C   UNL     1      -3.753  10.869  15.633  0.00  0.00    +0.000 A 
ATOM     28  C   UNL     1      -2.602  10.098  15.738  0.00  0.00    +0.000 A 
ATOM     29  C   UNL     1      -1.961   9.982  16.975  0.00  0.00    +0.000 A 
ENDBRANCH  23  24
ENDBRANCH  17  23
ENDBRANCH  16  17
ENDBRANCH   4  16
TORSDOF 6
ENDMDL
MODEL 3
REMARK VINA RESULT:      -8.1      0.641      1.714
REMARK  Name = 
REMARK  8 active torsions:
REMARK  status: ('A' for Active; 'I' for Inactive)
REMARK    1  A    between atoms: C_1  and  C_2
REMARK    2  A    between atoms: C_2  and  C_3
REMARK    3  A    between atoms: C_9  and  C_10
REMARK    4  A    between atoms: C_10  and  C_11
REMARK    5  A    between atoms: C_14  and  C_15
REMARK    6  A    between atoms: C_15  and  N_16
REMARK    7  A    between atoms: N_16  and  C_17
REMARK    8  A    between atoms: C_17  and  C_18
REMARK                            x       y       z     vdW  Elec       q    Type
REMARK                         _______ _______ _______ _____ _____    ______ ____
ROOT
ATOM      1  C   UNL     1       2.451   7.336  19.483  0.00  0.00    +0.000 C 
ATOM      2  O   UNL     1       2.563   7.411  18.058  0.00  0.00    +0.000 OA
ATOM      3  C   UNL     1       2.418   8.804  17.779  0.00  0.00    +0.000 C 
ATOM      4  C   UNL     1       1.331   9.216  18.751  0.00  0.00    +0.000 C 
ATOM      5  O   UNL     1       1.601   8.413  19.906  0.00  0.00    +0.000 OA
ENDROOT
BRANCH   1   6
ATOM      6  C   UNL     1       1.918   5.968  19.928  0.00  0.00    +0.000 C 
BRANCH   6  15
ATOM      7  C   UNL     1       3.654   4.200  17.240  0.00  0.00    +0.000 C 
ATOM      8  C   UNL     1       2.508   4.013  18.248  0.00  0.00    +0.000 C 
ATOM      9  C   UNL     1       1.209   4.460  17.543  0.00  0.00    +0.000 C 
ATOM     10  C   UNL     1       2.330   2.528  18.711  0.00  0.00    +0.000 C 
ATOM     11  C   UNL     1       3.654   1.892  19.172  0.00  0.00    +0.000 C 
ATOM     12  C   UNL     1       3.966   2.654  20.464  0.00  0.00    +0.000 C 
ATOM     13  C   UNL     1       2.739   3.574  20.629  0.00  0.00    +0.000 C 
ATOM     14  C   UNL     1       1.627   2.698  20.062  0.00  0.00    +0.000 C 
ATOM     15  C   UNL     1       2.828   4.749  19.613  0.00  0.00    +0.000 C 
ENDBRANCH   6  15
ENDBRANCH   1   6
BRANCH   4  16
ATOM     16  C   UNL     1       1.315  10.741  19.042  0.00  0.00    +0.000 C 
BRANCH  16  17
ATOM     17  N   UNL     1      -0.078  11.358  19.435  0.00  0.00    +0.000 N 
ATOM     18  C   UNL     1      -0.091  11.771  20.922  0.00  0.00    +0.000 C 
ATOM     19  C   UNL     1       0.662  13.065  21.209  0.00  0.00    +0.000 C 
ATOM     20  C   UNL     1       0.196  14.202  20.320  0.00  0.00    +0.000 C 
ATOM     21  C   UNL     1       0.359  13.808  18.862  0.00  0.00    +0.000 C 
ATOM     22  C   UNL     1      -0.456  12.562  18.542  0.00  0.00    +0.000 C 
BRANCH  17  23
ATOM     23  C   UNL     1      -1.226  10.302  19.255  0.00  0.00    +0.000 C 
BRANCH  23  24
ATOM     24  C   UNL     1      -2.180  10.438  18.087  0.00  0.00    +0.000 A 
ATOM     25  C   UNL     1      -3.339  11.224  18.199  0.00  0.00    +0.000 A 
ATOM     26  C   UNL     1      -4.172  11.429  17.096  0.00  0.00    +0.000 A 
ATOM     27  C   UNL     1      -3.870  10.855  15.865  0.00  0.00    +0.000 A 
ATOM     28  C   UNL     1      -2.733  10.068  15.731  0.00  0.00    +0.000 A 
ATOM     29  C   UNL     1      -1.898   9.870  16.834  0.00  0.00    +0.000 A 
ENDBRANCH  23  24
ENDBRANCH  17  23
ENDBRANCH  16  17
ENDBRANCH   4  16
TORSDOF 6
ENDMDL
MODEL 4
REMARK VINA RESULT:      -8.1      1.096      1.478
REMARK  Name = 
REMARK  8 active torsions:
REMARK  status: ('A' for Active; 'I' for Inactive)
REMARK    1  A    between atoms: C_1  and  C_2
REMARK    2  A    between atoms: C_2  and  C_3
REMARK    3  A    between atoms: C_9  and  C_10
REMARK    4  A    between atoms: C_10  and  C_11
REMARK    5  A    between atoms: C_14  and  C_15
REMARK    6  A    between atoms: C_15  and  N_16
REMARK    7  A    between atoms: N_16  and  C_17
REMARK    8  A    between atoms: C_17  and  C_18
REMARK                            x       y       z     vdW  Elec       q    Type
REMARK                         _______ _______ _______ _____ _____    ______ ____
ROOT
ATOM      1  C   UNL     1       2.499   7.820  18.812  0.00  0.00    +0.000 C 
ATOM      2  O   UNL     1       2.317   8.389  17.511  0.00  0.00    +0.000 OA
ATOM      3  C   UNL     1       1.929   9.737  17.781  0.00  0.00    +0.000 C 
ATOM      4  C   UNL     1       1.009   9.574  18.975  0.00  0.00    +0.000 C 
ATOM      5  O   UNL     1       1.609   8.501  19.710  0.00  0.00    +0.000 OA
ENDROOT
BRANCH   1   6
ATOM      6  C   UNL     1       2.258   6.305  18.796  0.00  0.00    +0.000 C 
BRANCH   6  15
ATOM      7  C   UNL     1       2.740   2.986  17.341  0.00  0.00    +0.000 C 
ATOM      8  C   UNL     1       3.454   4.014  18.233  0.00  0.00    +0.000 C 
ATOM      9  C   UNL     1       3.098   3.669  19.695  0.00  0.00    +0.000 C 
ATOM     10  C   UNL     1       5.013   3.982  18.085  0.00  0.00    +0.000 C 
ATOM     11  C   UNL     1       5.466   4.034  16.615  0.00  0.00    +0.000 C 
ATOM     12  C   UNL     1       5.077   5.454  16.188  0.00  0.00    +0.000 C 
ATOM     13  C   UNL     1       4.525   6.068  17.491  0.00  0.00    +0.000 C 
ATOM     14  C   UNL     1       5.404   5.393  18.538  0.00  0.00    +0.000 C 
ATOM     15  C   UNL     1       3.109   5.492  17.782  0.00  0.00    +0.000 C 
ENDBRANCH   6  15
ENDBRANCH   1   6
BRANCH   4  16
ATOM     16  C   UNL     1       0.840  10.877  19.801  0.00  0.00    +0.000 C 
BRANCH  16  17
ATOM     17  N   UNL     1      -0.526  11.637  19.628  0.00  0.00    +0.000 N 
ATOM     18  C   UNL     1      -0.910  12.373  20.930  0.00  0.00    +0.000 C 
ATOM     19  C   UNL     1      -0.125  13.657  21.166  0.00  0.00    +0.000 C 
ATOM     20  C   UNL     1      -0.188  14.589  19.971  0.00  0.00    +0.000 C 
ATOM     21  C   UNL     1       0.332  13.872  18.737  0.00  0.00    +0.000 C 
ATOM     22  C   UNL     1      -0.497  12.629  18.442  0.00  0.00    +0.000 C 
BRANCH  17  23
ATOM     23  C   UNL     1      -1.691  10.628  19.325  0.00  0.00    +0.000 C 
BRANCH  23  24
ATOM     24  C   UNL     1      -2.399  10.694  17.989  0.00  0.00    +0.000 A 
ATOM     25  C   UNL     1      -1.949   9.925  16.904  0.00  0.00    +0.000 A 
ATOM     26  C   UNL     1      -2.654   9.910  15.696  0.00  0.00    +0.000 A 
ATOM     27  C   UNL     1      -3.815  10.662  15.548  0.00  0.00    +0.000 A 
ATOM     28  C   UNL     1      -4.276  11.438  16.604  0.00  0.00    +0.000 A 
ATOM     29  C   UNL     1      -3.572  11.445  17.812  0.00  0.00    +0.000 A 
ENDBRANCH  23  24
ENDBRANCH  17  23
ENDBRANCH  16  17
ENDBRANCH   4  16
TORSDOF 6
ENDMDL
MODEL 5
REMARK VINA RESULT:      -8.0      1.395      3.513
REMARK  Name = 
REMARK  8 active torsions:
REMARK  status: ('A' for Active; 'I' for Inactive)
REMARK    1  A    between atoms: C_1  and  C_2
REMARK    2  A    between atoms: C_2  and  C_3
REMARK    3  A    between atoms: C_9  and  C_10
REMARK    4  A    between atoms: C_10  and  C_11
REMARK    5  A    between atoms: C_14  and  C_15
REMARK    6  A    between atoms: C_15  and  N_16
REMARK    7  A    between atoms: N_16  and  C_17
REMARK    8  A    between atoms: C_17  and  C_18
REMARK                            x       y       z     vdW  Elec       q    Type
REMARK                         _______ _______ _______ _____ _____    ______ ____
ROOT
ATOM      1  C   UNL     1       2.535   7.090  19.475  0.00  0.00    +0.000 C 
ATOM      2  O   UNL     1       2.319   7.171  18.062  0.00  0.00    +0.000 OA
ATOM      3  C   UNL     1       2.113   8.565  17.830  0.00  0.00    +0.000 C 
ATOM      4  C   UNL     1       1.276   8.971  19.027  0.00  0.00    +0.000 C 
ATOM      5  O   UNL     1       1.803   8.163  20.086  0.00  0.00    +0.000 OA
ENDROOT
BRANCH   1   6
ATOM      6  C   UNL     1       2.119   5.719  20.023  0.00  0.00    +0.000 C 
BRANCH   6  15
ATOM      7  C   UNL     1       0.564   2.617  18.868  0.00  0.00    +0.000 C 
ATOM      8  C   UNL     1       1.804   3.123  19.624  0.00  0.00    +0.000 C 
ATOM      9  C   UNL     1       1.453   3.111  21.128  0.00  0.00    +0.000 C 
ATOM     10  C   UNL     1       3.068   2.225  19.407  0.00  0.00    +0.000 C 
ATOM     11  C   UNL     1       3.338   1.940  17.919  0.00  0.00    +0.000 C 
ATOM     12  C   UNL     1       3.755   3.311  17.378  0.00  0.00    +0.000 C 
ATOM     13  C   UNL     1       3.753   4.197  18.642  0.00  0.00    +0.000 C 
ATOM     14  C   UNL     1       4.209   3.203  19.706  0.00  0.00    +0.000 C 
ATOM     15  C   UNL     1       2.287   4.518  19.052  0.00  0.00    +0.000 C 
ENDBRANCH   6  15
ENDBRANCH   1   6
BRANCH   4  16
ATOM     16  C   UNL     1       1.325  10.494  19.321  0.00  0.00    +0.000 C 
BRANCH  16  17
ATOM     17  N   UNL     1       0.038  11.117  19.976  0.00  0.00    +0.000 N 
ATOM     18  C   UNL     1      -0.167  12.572  19.500  0.00  0.00    +0.000 C 
ATOM     19  C   UNL     1      -0.724  12.686  18.087  0.00  0.00    +0.000 C 
ATOM     20  C   UNL     1      -1.988  11.867  17.907  0.00  0.00    +0.000 C 
ATOM     21  C   UNL     1      -1.708  10.414  18.248  0.00  0.00    +0.000 C 
ATOM     22  C   UNL     1      -1.228  10.278  19.687  0.00  0.00    +0.000 C 
BRANCH  17  23
ATOM     23  C   UNL     1       0.178  11.174  21.539  0.00  0.00    +0.000 C 
BRANCH  23  24
ATOM     24  C   UNL     1      -0.743  12.075  22.332  0.00  0.00    +0.000 A 
ATOM     25  C   UNL     1      -0.457  13.443  22.471  0.00  0.00    +0.000 A 
ATOM     26  C   UNL     1      -1.353  14.298  23.121  0.00  0.00    +0.000 A 
ATOM     27  C   UNL     1      -2.543  13.806  23.646  0.00  0.00    +0.000 A 
ATOM     28  C   UNL     1      -2.845  12.455  23.528  0.00  0.00    +0.000 A 
ATOM     29  C   UNL     1      -1.951  11.604  22.871  0.00  0.00    +0.000 A 
ENDBRANCH  23  24
ENDBRANCH  17  23
ENDBRANCH  16  17
ENDBRANCH   4  16
TORSDOF 6
ENDMDL
MODEL 6
REMARK VINA RESULT:      -7.9      2.315      8.749
REMARK  Name = 
REMARK  8 active torsions:
REMARK  status: ('A' for Active; 'I' for Inactive)
REMARK    1  A    between atoms: C_1  and  C_2
REMARK    2  A    between atoms: C_2  and  C_3
REMARK    3  A    between atoms: C_9  and  C_10
REMARK    4  A    between atoms: C_10  and  C_11
REMARK    5  A    between atoms: C_14  and  C_15
REMARK    6  A    between atoms: C_15  and  N_16
REMARK    7  A    between atoms: N_16  and  C_17
REMARK    8  A    between atoms: C_17  and  C_18
REMARK                            x       y       z     vdW  Elec       q    Type
REMARK                         _______ _______ _______ _____ _____    ______ ____
ROOT
ATOM      1  C   UNL     1       1.549   8.742  17.745  0.00  0.00    +0.000 C 
ATOM      2  O   UNL     1       2.958   8.977  17.850  0.00  0.00    +0.000 OA
ATOM      3  C   UNL     1       3.535   7.696  17.597  0.00  0.00    +0.000 C 
ATOM      4  C   UNL     1       2.587   6.765  18.327  0.00  0.00    +0.000 C 
ATOM      5  O   UNL     1       1.308   7.381  18.136  0.00  0.00    +0.000 OA
ENDROOT
BRANCH   1   6
ATOM      6  C   UNL     1       0.754   9.738  18.598  0.00  0.00    +0.000 C 
BRANCH   6  15
ATOM      7  C   UNL     1      -0.748  13.055  18.262  0.00  0.00    +0.000 C 
ATOM      8  C   UNL     1      -1.088  11.632  18.734  0.00  0.00    +0.000 C 
ATOM      9  C   UNL     1      -0.788  11.574  20.247  0.00  0.00    +0.000 C 
ATOM     10  C   UNL     1      -2.592  11.252  18.515  0.00  0.00    +0.000 C 
ATOM     11  C   UNL     1      -3.071  11.548  17.083  0.00  0.00    +0.000 C 
ATOM     12  C   UNL     1      -2.299  10.523  16.246  0.00  0.00    +0.000 C 
ATOM     13  C   UNL     1      -1.535   9.710  17.312  0.00  0.00    +0.000 C 
ATOM     14  C   UNL     1      -2.530   9.722  18.468  0.00  0.00    +0.000 C 
ATOM     15  C   UNL     1      -0.342  10.549  17.852  0.00  0.00    +0.000 C 
ENDBRANCH   6  15
ENDBRANCH   1   6
BRANCH   4  16
ATOM     16  C   UNL     1       2.655   5.299  17.819  0.00  0.00    +0.000 C 
BRANCH  16  17
ATOM     17  N   UNL     1       3.138   4.226  18.861  0.00  0.00    +0.000 N 
ATOM     18  C   UNL     1       2.778   4.659  20.298  0.00  0.00    +0.000 C 
ATOM     19  C   UNL     1       1.307   4.466  20.649  0.00  0.00    +0.000 C 
ATOM     20  C   UNL     1       0.838   3.051  20.370  0.00  0.00    +0.000 C 
ATOM     21  C   UNL     1       1.081   2.713  18.909  0.00  0.00    +0.000 C 
ATOM     22  C   UNL     1       2.560   2.823  18.565  0.00  0.00    +0.000 C 
BRANCH  17  23
ATOM     23  C   UNL     1       4.701   4.072  18.820  0.00  0.00    +0.000 C 
BRANCH  23  24
ATOM     24  C   UNL     1       5.446   4.426  17.552  0.00  0.00    +0.000 A 
ATOM     25  C   UNL     1       6.435   5.423  17.559  0.00  0.00    +0.000 A 
ATOM     26  C   UNL     1       7.192   5.688  16.414  0.00  0.00    +0.000 A 
ATOM     27  C   UNL     1       6.975   4.969  15.242  0.00  0.00    +0.000 A 
ATOM     28  C   UNL     1       5.997   3.983  15.207  0.00  0.00    +0.000 A 
ATOM     29  C   UNL     1       5.247   3.716  16.356  0.00  0.00    +0.000 A 
ENDBRANCH  23  24
ENDBRANCH  17  23
ENDBRANCH  16  17
ENDBRANCH   4  16
TORSDOF 6
ENDMDL
MODEL 7
REMARK VINA RESULT:      -7.9      2.347      8.911
REMARK  Name = 
REMARK  8 active torsions:
REMARK  status: ('A' for Active; 'I' for Inactive)
REMARK    1  A    between atoms: C_1  and  C_2
REMARK    2  A    between atoms: C_2  and  C_3
REMARK    3  A    between atoms: C_9  and  C_10
REMARK    4  A    between atoms: C_10  and  C_11
REMARK    5  A    between atoms: C_14  and  C_15
REMARK    6  A    between atoms: C_15  and  N_16
REMARK    7  A    between atoms: N_16  and  C_17
REMARK    8  A    between atoms: C_17  and  C_18
REMARK                            x       y       z     vdW  Elec       q    Type
REMARK                         _______ _______ _______ _____ _____    ______ ____
ROOT
ATOM      1  C   UNL     1       0.858   9.752  19.266  0.00  0.00    +0.000 C 
ATOM      2  O   UNL     1       1.884  10.155  18.352  0.00  0.00    +0.000 OA
ATOM      3  C   UNL     1       2.215   8.949  17.662  0.00  0.00    +0.000 C 
ATOM      4  C   UNL     1       2.169   7.919  18.773  0.00  0.00    +0.000 C 
ATOM      5  O   UNL     1       1.094   8.376  19.602  0.00  0.00    +0.000 OA
ENDROOT
BRANCH   1   6
ATOM      6  C   UNL     1       0.833  10.655  20.507  0.00  0.00    +0.000 C 
BRANCH   6  15
ATOM      7  C   UNL     1      -2.367  11.928  19.279  0.00  0.00    +0.000 C 
ATOM      8  C   UNL     1      -1.140  12.367  20.096  0.00  0.00    +0.000 C 
ATOM      9  C   UNL     1      -0.144  13.010  19.105  0.00  0.00    +0.000 C 
ATOM     10  C   UNL     1      -1.481  13.421  21.203  0.00  0.00    +0.000 C 
ATOM     11  C   UNL     1      -2.672  12.989  22.078  0.00  0.00    +0.000 C 
ATOM     12  C   UNL     1      -2.109  11.795  22.856  0.00  0.00    +0.000 C 
ATOM     13  C   UNL     1      -0.638  11.742  22.391  0.00  0.00    +0.000 C 
ATOM     14  C   UNL     1      -0.331  13.223  22.195  0.00  0.00    +0.000 C 
ATOM     15  C   UNL     1      -0.567  11.163  20.949  0.00  0.00    +0.000 C 
ENDBRANCH   6  15
ENDBRANCH   1   6
BRANCH   4  16
ATOM     16  C   UNL     1       1.982   6.467  18.255  0.00  0.00    +0.000 C 
BRANCH  16  17
ATOM     17  N   UNL     1       2.851   5.362  18.958  0.00  0.00    +0.000 N 
ATOM     18  C   UNL     1       2.429   5.193  20.434  0.00  0.00    +0.000 C 
ATOM     19  C   UNL     1       1.132   4.414  20.618  0.00  0.00    +0.000 C 
ATOM     20  C   UNL     1       1.165   3.078  19.900  0.00  0.00    +0.000 C 
ATOM     21  C   UNL     1       1.442   3.299  18.423  0.00  0.00    +0.000 C 
ATOM     22  C   UNL     1       2.777   4.005  18.222  0.00  0.00    +0.000 C 
BRANCH  17  23
ATOM     23  C   UNL     1       4.368   5.769  18.972  0.00  0.00    +0.000 C 
BRANCH  23  24
ATOM     24  C   UNL     1       5.234   5.439  17.775  0.00  0.00    +0.000 A 
ATOM     25  C   UNL     1       4.913   5.938  16.502  0.00  0.00    +0.000 A 
ATOM     26  C   UNL     1       5.761   5.714  15.413  0.00  0.00    +0.000 A 
ATOM     27  C   UNL     1       6.937   4.988  15.571  0.00  0.00    +0.000 A 
ATOM     28  C   UNL     1       7.272   4.478  16.819  0.00  0.00    +0.000 A 
ATOM     29  C   UNL     1       6.427   4.709  17.907  0.00  0.00    +0.000 A 
ENDBRANCH  23  24
ENDBRANCH  17  23
ENDBRANCH  16  17
ENDBRANCH   4  16
TORSDOF 6
ENDMDL
MODEL 8
REMARK VINA RESULT:      -7.8      0.949      1.338
REMARK  Name = 
REMARK  8 active torsions:
REMARK  status: ('A' for Active; 'I' for Inactive)
REMARK    1  A    between atoms: C_1  and  C_2
REMARK    2  A    between atoms: C_2  and  C_3
REMARK    3  A    between atoms: C_9  and  C_10
REMARK    4  A    between atoms: C_10  and  C_11
REMARK    5  A    between atoms: C_14  and  C_15
REMARK    6  A    between atoms: C_15  and  N_16
REMARK    7  A    between atoms: N_16  and  C_17
REMARK    8  A    between atoms: C_17  and  C_18
REMARK                            x       y       z     vdW  Elec       q    Type
REMARK                         _______ _______ _______ _____ _____    ______ ____
ROOT
ATOM      1  C   UNL     1       2.542   7.078  19.523  0.00  0.00    +0.000 C 
ATOM      2  O   UNL     1       2.361   7.163  18.106  0.00  0.00    +0.000 OA
ATOM      3  C   UNL     1       2.144   8.555  17.874  0.00  0.00    +0.000 C 
ATOM      4  C   UNL     1       1.272   8.946  19.051  0.00  0.00    +0.000 C 
ATOM      5  O   UNL     1       1.782   8.140  20.120  0.00  0.00    +0.000 OA
ENDROOT
BRANCH   1   6
ATOM      6  C   UNL     1       2.129   5.700  20.056  0.00  0.00    +0.000 C 
BRANCH   6  15
ATOM      7  C   UNL     1       0.570   2.618  18.858  0.00  0.00    +0.000 C 
ATOM      8  C   UNL     1       1.809   3.111  19.623  0.00  0.00    +0.000 C 
ATOM      9  C   UNL     1       1.455   3.080  21.126  0.00  0.00    +0.000 C 
ATOM     10  C   UNL     1       3.072   2.212  19.397  0.00  0.00    +0.000 C 
ATOM     11  C   UNL     1       3.344   1.946  17.906  0.00  0.00    +0.000 C 
ATOM     12  C   UNL     1       3.765   3.323  17.384  0.00  0.00    +0.000 C 
ATOM     13  C   UNL     1       3.763   4.192  18.659  0.00  0.00    +0.000 C 
ATOM     14  C   UNL     1       4.214   3.184  19.711  0.00  0.00    +0.000 C 
ATOM     15  C   UNL     1       2.297   4.512  19.070  0.00  0.00    +0.000 C 
ENDBRANCH   6  15
ENDBRANCH   1   6
BRANCH   4  16
ATOM     16  C   UNL     1       1.295  10.469  19.352  0.00  0.00    +0.000 C 
BRANCH  16  17
ATOM     17  N   UNL     1      -0.105  11.172  19.483  0.00  0.00    +0.000 N 
ATOM     18  C   UNL     1      -0.990  10.438  20.513  0.00  0.00    +0.000 C 
ATOM     19  C   UNL     1      -0.614  10.722  21.962  0.00  0.00    +0.000 C 
ATOM     20  C   UNL     1      -0.555  12.210  22.252  0.00  0.00    +0.000 C 
ATOM     21  C   UNL     1       0.435  12.874  21.309  0.00  0.00    +0.000 C 
ATOM     22  C   UNL     1       0.024  12.666  19.858  0.00  0.00    +0.000 C 
BRANCH  17  23
ATOM     23  C   UNL     1      -0.880  11.129  18.118  0.00  0.00    +0.000 C 
BRANCH  23  24
ATOM     24  C   UNL     1      -2.393  11.086  18.127  0.00  0.00    +0.000 A 
ATOM     25  C   UNL     1      -3.080  10.004  17.553  0.00  0.00    +0.000 A 
ATOM     26  C   UNL     1      -4.473   9.913  17.643  0.00  0.00    +0.000 A 
ATOM     27  C   UNL     1      -5.204  10.897  18.301  0.00  0.00    +0.000 A 
ATOM     28  C   UNL     1      -4.547  11.981  18.871  0.00  0.00    +0.000 A 
ATOM     29  C   UNL     1      -3.155  12.066  18.785  0.00  0.00    +0.000 A 
ENDBRANCH  23  24
ENDBRANCH  17  23
ENDBRANCH  16  17
ENDBRANCH   4  16
TORSDOF 6
ENDMDL
MODEL 9
REMARK VINA RESULT:      -7.8      2.513      8.818
REMARK  Name = 
REMARK  8 active torsions:
REMARK  status: ('A' for Active; 'I' for Inactive)
REMARK    1  A    between atoms: C_1  and  C_2
REMARK    2  A    between atoms: C_2  and  C_3
REMARK    3  A    between atoms: C_9  and  C_10
REMARK    4  A    between atoms: C_10  and  C_11
REMARK    5  A    between atoms: C_14  and  C_15
REMARK    6  A    between atoms: C_15  and  N_16
REMARK    7  A    between atoms: N_16  and  C_17
REMARK    8  A    between atoms: C_17  and  C_18
REMARK                            x       y       z     vdW  Elec       q    Type
REMARK                         _______ _______ _______ _____ _____    ______ ____
ROOT
ATOM      1  C   UNL     1       1.501   8.980  18.924  0.00  0.00    +0.000 C 
ATOM      2  O   UNL     1       1.006   8.725  20.243  0.00  0.00    +0.000 OA
ATOM      3  C   UNL     1       1.868   7.700  20.737  0.00  0.00    +0.000 C 
ATOM      4  C   UNL     1       2.054   6.820  19.518  0.00  0.00    +0.000 C 
ATOM      5  O   UNL     1       2.074   7.757  18.435  0.00  0.00    +0.000 OA
ENDROOT
BRANCH   1   6
ATOM      6  C   UNL     1       0.392   9.508  18.005  0.00  0.00    +0.000 C 
BRANCH   6  15
ATOM      7  C   UNL     1      -3.254   9.410  18.263  0.00  0.00    +0.000 C 
ATOM      8  C   UNL     1      -2.113  10.333  17.804  0.00  0.00    +0.000 C 
ATOM      9  C   UNL     1      -1.896  10.068  16.298  0.00  0.00    +0.000 C 
ATOM     10  C   UNL     1      -2.434  11.854  17.995  0.00  0.00    +0.000 C 
ATOM     11  C   UNL     1      -2.941  12.174  19.412  0.00  0.00    +0.000 C 
ATOM     12  C   UNL     1      -1.701  11.940  20.280  0.00  0.00    +0.000 C 
ATOM     13  C   UNL     1      -0.612  11.595  19.242  0.00  0.00    +0.000 C 
ATOM     14  C   UNL     1      -1.033  12.469  18.064  0.00  0.00    +0.000 C 
ATOM     15  C   UNL     1      -0.832  10.148  18.716  0.00  0.00    +0.000 C 
ENDBRANCH   6  15
ENDBRANCH   1   6
BRANCH   4  16
ATOM     16  C   UNL     1       3.323   5.928  19.593  0.00  0.00    +0.000 C 
BRANCH  16  17
ATOM     17  N   UNL     1       3.402   4.744  18.562  0.00  0.00    +0.000 N 
ATOM     18  C   UNL     1       3.974   3.475  19.232  0.00  0.00    +0.000 C 
ATOM     19  C   UNL     1       2.976   2.747  20.125  0.00  0.00    +0.000 C 
ATOM     20  C   UNL     1       1.678   2.447  19.400  0.00  0.00    +0.000 C 
ATOM     21  C   UNL     1       1.075   3.740  18.879  0.00  0.00    +0.000 C 
ATOM     22  C   UNL     1       2.030   4.437  17.920  0.00  0.00    +0.000 C 
BRANCH  17  23
ATOM     23  C   UNL     1       4.370   5.098  17.377  0.00  0.00    +0.000 C 
BRANCH  23  24
ATOM     24  C   UNL     1       5.693   5.768  17.678  0.00  0.00    +0.000 A 
ATOM     25  C   UNL     1       6.027   6.992  17.075  0.00  0.00    +0.000 A 
ATOM     26  C   UNL     1       7.205   7.662  17.421  0.00  0.00    +0.000 A 
ATOM     27  C   UNL     1       8.070   7.125  18.369  0.00  0.00    +0.000 A 
ATOM     28  C   UNL     1       7.765   5.912  18.975  0.00  0.00    +0.000 A 
ATOM     29  C   UNL     1       6.584   5.248  18.632  0.00  0.00    +0.000 A 
ENDBRANCH  23  24
ENDBRANCH  17  23
ENDBRANCH  16  17
ENDBRANCH   4  16
TORSDOF 6
ENDMDL
