MODEL 1
REMARK VINA RESULT:      -9.0      0.000      0.000
REMARK  Name = 
REMARK  2 active torsions:
REMARK  status: ('A' for Active; 'I' for Inactive)
REMARK    1  A    between atoms: C_1  and  C_2
REMARK    2  A    between atoms: C_3  and  C_4
REMARK                            x       y       z     vdW  Elec       q    Type
REMARK                         _______ _______ _______ _____ _____    ______ ____
ROOT
ATOM      1  C   UNL     1       1.256   7.693  21.278  0.00  0.00    +0.000 C 
ATOM      2  C   UNL     1       1.605   8.165  19.908  0.00  0.00    +0.000 A 
ATOM      3  C   UNL     1       2.305   7.547  18.878  0.00  0.00    +0.000 A 
ATOM      4  C   UNL     1       2.216   8.469  17.814  0.00  0.00    +0.000 A 
ATOM      5  N   UNL     1       1.589   9.598  18.133  0.00  0.00    +0.000 NA
ATOM      6  N   UNL     1       1.187   9.396  19.424  0.00  0.00    +0.000 N 
ATOM      7  C   UNL     1       0.409  10.395  20.049  0.00  0.00    +0.000 A 
ATOM      8  N   UNL     1       0.015  10.341  21.281  0.00  0.00    +0.000 NA
ATOM      9  C   UNL     1      -0.743  11.402  21.677  0.00  0.00    +0.000 A 
ATOM     10  C   UNL     1      -1.116  12.430  20.914  0.00  0.00    +0.000 A 
ATOM     11  C   UNL     1      -0.684  12.471  19.518  0.00  0.00    +0.000 A 
ATOM     12  O   UNL     1      -1.014  13.361  18.748  0.00  0.00    +0.000 OA
ATOM     13  N   UNL     1       0.114  11.415  19.169  0.00  0.00    +0.000 N 
ATOM     14  C   UNL     1      -1.942  13.426  21.626  0.00  0.00    +0.000 C 
ATOM     15  C   UNL     1      -1.823  12.961  23.085  0.00  0.00    +0.000 C 
ATOM     16  C   UNL     1      -1.260  11.533  23.067  0.00  0.00    +0.000 C 
ATOM     17  H   UNL     1       0.460  11.352  18.218  0.00  0.00    +0.000 HD
ENDROOT
BRANCH   3  18
ATOM     18  C   UNL     1       2.872   6.198  18.877  0.00  0.00    +0.000 C 
ATOM     19  O   UNL     1       2.350   5.308  19.541  0.00  0.00    +0.000 OA
ATOM     20  N   UNL     1       3.974   5.943  18.057  0.00  0.00    +0.000 N 
ATOM     21  C   UNL     1       4.364   4.563  17.792  0.00  0.00    +0.000 C 
ATOM     22  C   UNL     1       4.481   4.334  16.283  0.00  0.00    +0.000 C 
ATOM     23  C   UNL     1       5.376   5.398  15.612  0.00  0.00    +0.000 C 
ATOM     24  C   UNL     1       4.998   6.826  16.029  0.00  0.00    +0.000 C 
ATOM     25  C   UNL     1       4.919   6.933  17.547  0.00  0.00    +0.000 C 
ATOM     26  C   UNL     1       5.426   5.240  14.063  0.00  0.00    +0.000 C 
ATOM     27  C   UNL     1       6.711   4.401  14.228  0.00  0.00    +0.000 C 
ATOM     28  F   UNL     1       7.677   4.626  13.311  0.00  0.00    +0.000 F 
ATOM     29  F   UNL     1       6.525   3.062  14.280  0.00  0.00    +0.000 F 
ATOM     30  C   UNL     1       6.905   5.095  15.598  0.00  0.00    +0.000 C 
ENDBRANCH   3  18
TORSDOF 1
ENDMDL
MODEL 2
REMARK VINA RESULT:      -8.9      5.238     10.449
REMARK  Name = 
REMARK  2 active torsions:
REMARK  status: ('A' for Active; 'I' for Inactive)
REMARK    1  A    between atoms: C_1  and  C_2
REMARK    2  A    between atoms: C_3  and  C_4
REMARK                            x       y       z     vdW  Elec       q    Type
REMARK                         _______ _______ _______ _____ _____    ______ ____
ROOT
ATOM      1  C   UNL     1       1.722   9.611  17.944  0.00  0.00    +0.000 C 
ATOM      2  C   UNL     1       1.093   9.330  19.265  0.00  0.00    +0.000 A 
ATOM      3  C   UNL     1       0.149  10.041  19.999  0.00  0.00    +0.000 A 
ATOM      4  C   UNL     1      -0.101   9.211  21.112  0.00  0.00    +0.000 A 
ATOM      5  N   UNL     1       0.648   8.112  21.142  0.00  0.00    +0.000 NA
ATOM      6  N   UNL     1       1.367   8.174  19.982  0.00  0.00    +0.000 N 
ATOM      7  C   UNL     1       2.222   7.096  19.662  0.00  0.00    +0.000 A 
ATOM      8  N   UNL     1       2.991   7.065  18.622  0.00  0.00    +0.000 NA
ATOM      9  C   UNL     1       3.719   5.920  18.493  0.00  0.00    +0.000 A 
ATOM     10  C   UNL     1       3.676   4.866  19.308  0.00  0.00    +0.000 A 
ATOM     11  C   UNL     1       2.787   4.902  20.469  0.00  0.00    +0.000 A 
ATOM     12  O   UNL     1       2.667   3.962  21.241  0.00  0.00    +0.000 OA
ATOM     13  N   UNL     1       2.109   6.084  20.592  0.00  0.00    +0.000 N 
ATOM     14  C   UNL     1       4.579   3.769  18.905  0.00  0.00    +0.000 C 
ATOM     15  C   UNL     1       5.410   4.427  17.794  0.00  0.00    +0.000 C 
ATOM     16  C   UNL     1       4.684   5.715  17.378  0.00  0.00    +0.000 C 
ATOM     17  H   UNL     1       1.463   6.203  21.365  0.00  0.00    +0.000 HD
ENDROOT
BRANCH   3  18
ATOM     18  C   UNL     1      -0.515  11.287  19.617  0.00  0.00    +0.000 C 
ATOM     19  O   UNL     1      -0.815  11.493  18.444  0.00  0.00    +0.000 OA
ATOM     20  N   UNL     1      -0.850  12.196  20.624  0.00  0.00    +0.000 N 
ATOM     21  C   UNL     1      -1.777  13.282  20.327  0.00  0.00    +0.000 C 
ATOM     22  C   UNL     1      -2.913  13.294  21.353  0.00  0.00    +0.000 C 
ATOM     23  C   UNL     1      -2.375  13.281  22.800  0.00  0.00    +0.000 C 
ATOM     24  C   UNL     1      -1.309  12.197  23.018  0.00  0.00    +0.000 C 
ATOM     25  C   UNL     1      -0.232  12.289  21.943  0.00  0.00    +0.000 C 
ATOM     26  C   UNL     1      -3.516  13.191  23.857  0.00  0.00    +0.000 C 
ATOM     27  C   UNL     1      -3.488  14.731  23.962  0.00  0.00    +0.000 C 
ATOM     28  F   UNL     1      -3.630  15.234  25.207  0.00  0.00    +0.000 F 
ATOM     29  F   UNL     1      -4.375  15.381  23.174  0.00  0.00    +0.000 F 
ATOM     30  C   UNL     1      -2.040  14.671  23.418  0.00  0.00    +0.000 C 
ENDBRANCH   3  18
TORSDOF 1
ENDMDL
MODEL 3
REMARK VINA RESULT:      -8.7      4.841      9.328
REMARK  Name = 
REMARK  2 active torsions:
REMARK  status: ('A' for Active; 'I' for Inactive)
REMARK    1  A    between atoms: C_1  and  C_2
REMARK    2  A    between atoms: C_3  and  C_4
REMARK                            x       y       z     vdW  Elec       q    Type
REMARK                         _______ _______ _______ _____ _____    ______ ____
ROOT
ATOM      1  C   UNL     1       1.742   9.393  17.611  0.00  0.00    +0.000 C 
ATOM      2  C   UNL     1       1.217   9.399  19.006  0.00  0.00    +0.000 A 
ATOM      3  C   UNL     1       0.433  10.326  19.684  0.00  0.00    +0.000 A 
ATOM      4  C   UNL     1       0.202   9.716  20.934  0.00  0.00    +0.000 A 
ATOM      5  N   UNL     1       0.824   8.549  21.086  0.00  0.00    +0.000 NA
ATOM      6  N   UNL     1       1.430   8.343  19.879  0.00  0.00    +0.000 N 
ATOM      7  C   UNL     1       2.126   7.130  19.676  0.00  0.00    +0.000 A 
ATOM      8  N   UNL     1       2.783   6.844  18.597  0.00  0.00    +0.000 NA
ATOM      9  C   UNL     1       3.363   5.611  18.603  0.00  0.00    +0.000 A 
ATOM     10  C   UNL     1       3.284   4.709  19.581  0.00  0.00    +0.000 A 
ATOM     11  C   UNL     1       2.521   5.033  20.786  0.00  0.00    +0.000 A 
ATOM     12  O   UNL     1       2.374   4.246  21.709  0.00  0.00    +0.000 OA
ATOM     13  N   UNL     1       1.993   6.296  20.765  0.00  0.00    +0.000 N 
ATOM     14  C   UNL     1       4.017   3.459  19.294  0.00  0.00    +0.000 C 
ATOM     15  C   UNL     1       4.804   3.830  18.029  0.00  0.00    +0.000 C 
ATOM     16  C   UNL     1       4.187   5.118  17.465  0.00  0.00    +0.000 C 
ATOM     17  H   UNL     1       1.442   6.612  21.556  0.00  0.00    +0.000 HD
ENDROOT
BRANCH   3  18
ATOM     18  C   UNL     1      -0.124  11.572  19.155  0.00  0.00    +0.000 C 
ATOM     19  O   UNL     1      -1.302  11.627  18.815  0.00  0.00    +0.000 OA
ATOM     20  N   UNL     1       0.700  12.699  19.110  0.00  0.00    +0.000 N 
ATOM     21  C   UNL     1       0.102  14.012  18.891  0.00  0.00    +0.000 C 
ATOM     22  C   UNL     1       0.562  14.983  19.981  0.00  0.00    +0.000 C 
ATOM     23  C   UNL     1       2.099  14.989  20.129  0.00  0.00    +0.000 C 
ATOM     24  C   UNL     1       2.682  13.572  20.228  0.00  0.00    +0.000 C 
ATOM     25  C   UNL     1       2.159  12.703  19.090  0.00  0.00    +0.000 C 
ATOM     26  C   UNL     1       2.579  15.896  21.301  0.00  0.00    +0.000 C 
ATOM     27  C   UNL     1       2.768  17.043  20.286  0.00  0.00    +0.000 C 
ATOM     28  F   UNL     1       3.867  17.808  20.466  0.00  0.00    +0.000 F 
ATOM     29  F   UNL     1       1.718  17.888  20.165  0.00  0.00    +0.000 F 
ATOM     30  C   UNL     1       2.873  15.958  19.186  0.00  0.00    +0.000 C 
ENDBRANCH   3  18
TORSDOF 1
ENDMDL
MODEL 4
REMARK VINA RESULT:      -8.7      5.239     10.325
REMARK  Name = 
REMARK  2 active torsions:
REMARK  status: ('A' for Active; 'I' for Inactive)
REMARK    1  A    between atoms: C_1  and  C_2
REMARK    2  A    between atoms: C_3  and  C_4
REMARK                            x       y       z     vdW  Elec       q    Type
REMARK                         _______ _______ _______ _____ _____    ______ ____
ROOT
ATOM      1  C   UNL     1       1.672   8.985  17.965  0.00  0.00    +0.000 C 
ATOM      2  C   UNL     1       1.387   9.035  19.426  0.00  0.00    +0.000 A 
ATOM      3  C   UNL     1       0.855  10.045  20.220  0.00  0.00    +0.000 A 
ATOM      4  C   UNL     1       0.750   9.448  21.494  0.00  0.00    +0.000 A 
ATOM      5  N   UNL     1       1.228   8.207  21.546  0.00  0.00    +0.000 NA
ATOM      6  N   UNL     1       1.596   7.944  20.256  0.00  0.00    +0.000 N 
ATOM      7  C   UNL     1       2.081   6.654  19.946  0.00  0.00    +0.000 A 
ATOM      8  N   UNL     1       2.509   6.303  18.776  0.00  0.00    +0.000 NA
ATOM      9  C   UNL     1       2.913   5.004  18.691  0.00  0.00    +0.000 A 
ATOM     10  C   UNL     1       2.873   4.102  19.672  0.00  0.00    +0.000 A 
ATOM     11  C   UNL     1       2.368   4.503  20.984  0.00  0.00    +0.000 A 
ATOM     12  O   UNL     1       2.268   3.725  21.922  0.00  0.00    +0.000 OA
ATOM     13  N   UNL     1       2.017   5.824  21.046  0.00  0.00    +0.000 N 
ATOM     14  C   UNL     1       3.376   2.772  19.273  0.00  0.00    +0.000 C 
ATOM     15  C   UNL     1       3.989   3.058  17.895  0.00  0.00    +0.000 C 
ATOM     16  C   UNL     1       3.467   4.427  17.435  0.00  0.00    +0.000 C 
ATOM     17  H   UNL     1       1.649   6.196  21.915  0.00  0.00    +0.000 HD
ENDROOT
BRANCH   3  18
ATOM     18  C   UNL     1       0.391  11.363  19.785  0.00  0.00    +0.000 C 
ATOM     19  O   UNL     1       0.618  11.752  18.643  0.00  0.00    +0.000 OA
ATOM     20  N   UNL     1      -0.363  12.128  20.678  0.00  0.00    +0.000 N 
ATOM     21  C   UNL     1      -1.097  13.287  20.182  0.00  0.00    +0.000 C 
ATOM     22  C   UNL     1      -2.563  13.201  20.615  0.00  0.00    +0.000 C 
ATOM     23  C   UNL     1      -2.696  12.952  22.132  0.00  0.00    +0.000 C 
ATOM     24  C   UNL     1      -1.803  11.801  22.617  0.00  0.00    +0.000 C 
ATOM     25  C   UNL     1      -0.372  12.000  22.132  0.00  0.00    +0.000 C 
ATOM     26  C   UNL     1      -4.178  12.760  22.574  0.00  0.00    +0.000 C 
ATOM     27  C   UNL     1      -4.232  14.266  22.913  0.00  0.00    +0.000 C 
ATOM     28  F   UNL     1      -4.904  14.587  24.040  0.00  0.00    +0.000 F 
ATOM     29  F   UNL     1      -4.709  15.063  21.930  0.00  0.00    +0.000 F 
ATOM     30  C   UNL     1      -2.689  14.220  23.037  0.00  0.00    +0.000 C 
ENDBRANCH   3  18
TORSDOF 1
ENDMDL
MODEL 5
REMARK VINA RESULT:      -8.6      2.047      3.070
REMARK  Name = 
REMARK  2 active torsions:
REMARK  status: ('A' for Active; 'I' for Inactive)
REMARK    1  A    between atoms: C_1  and  C_2
REMARK    2  A    between atoms: C_3  and  C_4
REMARK                            x       y       z     vdW  Elec       q    Type
REMARK                         _______ _______ _______ _____ _____    ______ ____
ROOT
ATOM      1  C   UNL     1       2.221   6.569  17.890  0.00  0.00    +0.000 C 
ATOM      2  C   UNL     1       2.167   5.915  19.227  0.00  0.00    +0.000 A 
ATOM      3  C   UNL     1       2.489   4.622  19.627  0.00  0.00    +0.000 A 
ATOM      4  C   UNL     1       2.312   4.652  21.027  0.00  0.00    +0.000 A 
ATOM      5  N   UNL     1       1.857   5.816  21.485  0.00  0.00    +0.000 NA
ATOM      6  N   UNL     1       1.794   6.605  20.372  0.00  0.00    +0.000 N 
ATOM      7  C   UNL     1       1.415   7.956  20.527  0.00  0.00    +0.000 A 
ATOM      8  N   UNL     1       1.269   8.785  19.543  0.00  0.00    +0.000 NA
ATOM      9  C   UNL     1       0.917  10.047  19.918  0.00  0.00    +0.000 A 
ATOM     10  C   UNL     1       0.749  10.478  21.168  0.00  0.00    +0.000 A 
ATOM     11  C   UNL     1       0.938   9.540  22.274  0.00  0.00    +0.000 A 
ATOM     12  O   UNL     1       0.836   9.868  23.447  0.00  0.00    +0.000 OA
ATOM     13  N   UNL     1       1.243   8.272  21.858  0.00  0.00    +0.000 N 
ATOM     14  C   UNL     1       0.373  11.903  21.257  0.00  0.00    +0.000 C 
ATOM     15  C   UNL     1       0.083  12.253  19.791  0.00  0.00    +0.000 C 
ATOM     16  C   UNL     1       0.672  11.130  18.926  0.00  0.00    +0.000 C 
ATOM     17  H   UNL     1       1.398   7.549  22.553  0.00  0.00    +0.000 HD
ENDROOT
BRANCH   3  18
ATOM     18  C   UNL     1       3.016   3.541  18.793  0.00  0.00    +0.000 C 
ATOM     19  O   UNL     1       2.426   2.466  18.729  0.00  0.00    +0.000 OA
ATOM     20  N   UNL     1       4.161   3.790  18.033  0.00  0.00    +0.000 N 
ATOM     21  C   UNL     1       4.526   2.862  16.968  0.00  0.00    +0.000 C 
ATOM     22  C   UNL     1       4.735   3.626  15.658  0.00  0.00    +0.000 C 
ATOM     23  C   UNL     1       5.702   4.816  15.839  0.00  0.00    +0.000 C 
ATOM     24  C   UNL     1       5.339   5.685  17.052  0.00  0.00    +0.000 C 
ATOM     25  C   UNL     1       5.164   4.817  18.293  0.00  0.00    +0.000 C 
ATOM     26  C   UNL     1       5.847   5.664  14.541  0.00  0.00    +0.000 C 
ATOM     27  C   UNL     1       7.094   4.829  14.180  0.00  0.00    +0.000 C 
ATOM     28  F   UNL     1       8.124   5.519  13.643  0.00  0.00    +0.000 F 
ATOM     29  F   UNL     1       6.866   3.770  13.369  0.00  0.00    +0.000 F 
ATOM     30  C   UNL     1       7.218   4.494  15.686  0.00  0.00    +0.000 C 
ENDBRANCH   3  18
TORSDOF 1
ENDMDL
MODEL 6
REMARK VINA RESULT:      -8.4      4.780      9.345
REMARK  Name = 
REMARK  2 active torsions:
REMARK  status: ('A' for Active; 'I' for Inactive)
REMARK    1  A    between atoms: C_1  and  C_2
REMARK    2  A    between atoms: C_3  and  C_4
REMARK                            x       y       z     vdW  Elec       q    Type
REMARK                         _______ _______ _______ _____ _____    ______ ____
ROOT
ATOM      1  C   UNL     1       1.837   8.290  17.551  0.00  0.00    +0.000 C 
ATOM      2  C   UNL     1       1.653   8.514  19.013  0.00  0.00    +0.000 A 
ATOM      3  C   UNL     1       1.229   9.633  19.722  0.00  0.00    +0.000 A 
ATOM      4  C   UNL     1       1.178   9.182  21.057  0.00  0.00    +0.000 A 
ATOM      5  N   UNL     1       1.591   7.927  21.217  0.00  0.00    +0.000 NA
ATOM      6  N   UNL     1       1.858   7.506  19.944  0.00  0.00    +0.000 N 
ATOM      7  C   UNL     1       2.252   6.164  19.750  0.00  0.00    +0.000 A 
ATOM      8  N   UNL     1       2.582   5.665  18.601  0.00  0.00    +0.000 NA
ATOM      9  C   UNL     1       2.909   4.342  18.636  0.00  0.00    +0.000 A 
ATOM     10  C   UNL     1       2.887   3.554  19.711  0.00  0.00    +0.000 A 
ATOM     11  C   UNL     1       2.492   4.122  20.999  0.00  0.00    +0.000 A 
ATOM     12  O   UNL     1       2.413   3.456  22.021  0.00  0.00    +0.000 OA
ATOM     13  N   UNL     1       2.216   5.461  20.936  0.00  0.00    +0.000 N 
ATOM     14  C   UNL     1       3.291   2.161  19.432  0.00  0.00    +0.000 C 
ATOM     15  C   UNL     1       3.825   2.261  17.996  0.00  0.00    +0.000 C 
ATOM     16  C   UNL     1       3.347   3.603  17.420  0.00  0.00    +0.000 C 
ATOM     17  H   UNL     1       1.928   5.945  21.779  0.00  0.00    +0.000 HD
ENDROOT
BRANCH   3  18
ATOM     18  C   UNL     1       0.808  10.922  19.173  0.00  0.00    +0.000 C 
ATOM     19  O   UNL     1       1.645  11.718  18.755  0.00  0.00    +0.000 OA
ATOM     20  N   UNL     1      -0.560  11.189  19.082  0.00  0.00    +0.000 N 
ATOM     21  C   UNL     1      -1.016  12.308  18.264  0.00  0.00    +0.000 C 
ATOM     22  C   UNL     1      -2.085  11.832  17.278  0.00  0.00    +0.000 C 
ATOM     23  C   UNL     1      -3.210  11.049  17.988  0.00  0.00    +0.000 C 
ATOM     24  C   UNL     1      -2.663   9.968  18.931  0.00  0.00    +0.000 C 
ATOM     25  C   UNL     1      -1.617  10.560  19.867  0.00  0.00    +0.000 C 
ATOM     26  C   UNL     1      -4.253  10.470  16.987  0.00  0.00    +0.000 C 
ATOM     27  C   UNL     1      -5.116  11.731  17.216  0.00  0.00    +0.000 C 
ATOM     28  F   UNL     1      -6.448  11.520  17.296  0.00  0.00    +0.000 F 
ATOM     29  F   UNL     1      -4.929  12.730  16.324  0.00  0.00    +0.000 F 
ATOM     30  C   UNL     1      -4.378  11.903  18.566  0.00  0.00    +0.000 C 
ENDBRANCH   3  18
TORSDOF 1
ENDMDL
MODEL 7
REMARK VINA RESULT:      -8.4      4.371      9.886
REMARK  Name = 
REMARK  2 active torsions:
REMARK  status: ('A' for Active; 'I' for Inactive)
REMARK    1  A    between atoms: C_1  and  C_2
REMARK    2  A    between atoms: C_3  and  C_4
REMARK                            x       y       z     vdW  Elec       q    Type
REMARK                         _______ _______ _______ _____ _____    ______ ____
ROOT
ATOM      1  C   UNL     1       3.367   4.093  16.701  0.00  0.00    +0.000 C 
ATOM      2  C   UNL     1       4.201   5.285  17.021  0.00  0.00    +0.000 A 
ATOM      3  C   UNL     1       4.162   6.168  18.095  0.00  0.00    +0.000 A 
ATOM      4  C   UNL     1       5.263   7.020  17.866  0.00  0.00    +0.000 A 
ATOM      5  N   UNL     1       5.910   6.769  16.730  0.00  0.00    +0.000 NA
ATOM      6  N   UNL     1       5.267   5.675  16.222  0.00  0.00    +0.000 N 
ATOM      7  C   UNL     1       5.766   5.094  15.036  0.00  0.00    +0.000 A 
ATOM      8  N   UNL     1       5.211   4.092  14.432  0.00  0.00    +0.000 NA
ATOM      9  C   UNL     1       5.869   3.675  13.313  0.00  0.00    +0.000 A 
ATOM     10  C   UNL     1       7.005   4.183  12.834  0.00  0.00    +0.000 A 
ATOM     11  C   UNL     1       7.634   5.301  13.536  0.00  0.00    +0.000 A 
ATOM     12  O   UNL     1       8.693   5.796  13.178  0.00  0.00    +0.000 OA
ATOM     13  N   UNL     1       6.922   5.723  14.626  0.00  0.00    +0.000 N 
ATOM     14  C   UNL     1       7.479   3.516  11.604  0.00  0.00    +0.000 C 
ATOM     15  C   UNL     1       6.281   2.629  11.236  0.00  0.00    +0.000 C 
ATOM     16  C   UNL     1       5.366   2.558  12.468  0.00  0.00    +0.000 C 
ATOM     17  H   UNL     1       7.281   6.491  15.181  0.00  0.00    +0.000 HD
ENDROOT
BRANCH   3  18
ATOM     18  C   UNL     1       3.265   6.120  19.249  0.00  0.00    +0.000 C 
ATOM     19  O   UNL     1       3.459   5.307  20.149  0.00  0.00    +0.000 OA
ATOM     20  N   UNL     1       2.232   7.057  19.326  0.00  0.00    +0.000 N 
ATOM     21  C   UNL     1       1.526   7.241  20.589  0.00  0.00    +0.000 C 
ATOM     22  C   UNL     1       1.519   8.722  20.973  0.00  0.00    +0.000 C 
ATOM     23  C   UNL     1       1.014   9.610  19.815  0.00  0.00    +0.000 C 
ATOM     24  C   UNL     1       1.705   9.283  18.483  0.00  0.00    +0.000 C 
ATOM     25  C   UNL     1       1.642   7.785  18.207  0.00  0.00    +0.000 C 
ATOM     26  C   UNL     1       1.096  11.129  20.152  0.00  0.00    +0.000 C 
ATOM     27  C   UNL     1      -0.375  11.065  20.619  0.00  0.00    +0.000 C 
ATOM     28  F   UNL     1      -1.141  12.125  20.280  0.00  0.00    +0.000 F 
ATOM     29  F   UNL     1      -0.553  10.860  21.944  0.00  0.00    +0.000 F 
ATOM     30  C   UNL     1      -0.529   9.808  19.729  0.00  0.00    +0.000 C 
ENDBRANCH   3  18
TORSDOF 1
ENDMDL
MODEL 8
REMARK VINA RESULT:      -8.2      4.925      9.399
REMARK  Name = 
REMARK  2 active torsions:
REMARK  status: ('A' for Active; 'I' for Inactive)
REMARK    1  A    between atoms: C_1  and  C_2
REMARK    2  A    between atoms: C_3  and  C_4
REMARK                            x       y       z     vdW  Elec       q    Type
REMARK                         _______ _______ _______ _____ _____    ______ ____
ROOT
ATOM      1  C   UNL     1       0.962   7.903  20.873  0.00  0.00    +0.000 C 
ATOM      2  C   UNL     1       1.374   8.522  19.582  0.00  0.00    +0.000 A 
ATOM      3  C   UNL     1       1.103   9.774  19.040  0.00  0.00    +0.000 A 
ATOM      4  C   UNL     1       1.851   9.787  17.844  0.00  0.00    +0.000 A 
ATOM      5  N   UNL     1       2.486   8.645  17.594  0.00  0.00    +0.000 NA
ATOM      6  N   UNL     1       2.211   7.872  18.687  0.00  0.00    +0.000 N 
ATOM      7  C   UNL     1       2.812   6.597  18.776  0.00  0.00    +0.000 A 
ATOM      8  N   UNL     1       2.587   5.755  19.734  0.00  0.00    +0.000 NA
ATOM      9  C   UNL     1       3.287   4.590  19.635  0.00  0.00    +0.000 A 
ATOM     10  C   UNL     1       4.167   4.280  18.684  0.00  0.00    +0.000 A 
ATOM     11  C   UNL     1       4.431   5.246  17.618  0.00  0.00    +0.000 A 
ATOM     12  O   UNL     1       5.249   5.049  16.731  0.00  0.00    +0.000 OA
ATOM     13  N   UNL     1       3.676   6.383  17.723  0.00  0.00    +0.000 N 
ATOM     14  C   UNL     1       4.770   2.942  18.849  0.00  0.00    +0.000 C 
ATOM     15  C   UNL     1       3.912   2.337  19.969  0.00  0.00    +0.000 C 
ATOM     16  C   UNL     1       3.135   3.489  20.625  0.00  0.00    +0.000 C 
ATOM     17  H   UNL     1       3.791   7.117  17.032  0.00  0.00    +0.000 HD
ENDROOT
BRANCH   3  18
ATOM     18  C   UNL     1       0.331  10.856  19.651  0.00  0.00    +0.000 C 
ATOM     19  O   UNL     1       0.903  11.756  20.259  0.00  0.00    +0.000 OA
ATOM     20  N   UNL     1      -1.054  10.868  19.468  0.00  0.00    +0.000 N 
ATOM     21  C   UNL     1      -1.806  12.077  19.786  0.00  0.00    +0.000 C 
ATOM     22  C   UNL     1      -2.674  12.481  18.592  0.00  0.00    +0.000 C 
ATOM     23  C   UNL     1      -3.530  11.301  18.083  0.00  0.00    +0.000 C 
ATOM     24  C   UNL     1      -2.705  10.021  17.888  0.00  0.00    +0.000 C 
ATOM     25  C   UNL     1      -1.891   9.718  19.141  0.00  0.00    +0.000 C 
ATOM     26  C   UNL     1      -4.344  11.666  16.806  0.00  0.00    +0.000 C 
ATOM     27  C   UNL     1      -5.541  12.019  17.715  0.00  0.00    +0.000 C 
ATOM     28  F   UNL     1      -6.754  11.639  17.258  0.00  0.00    +0.000 F 
ATOM     29  F   UNL     1      -5.642  13.323  18.058  0.00  0.00    +0.000 F 
ATOM     30  C   UNL     1      -4.905  11.101  18.788  0.00  0.00    +0.000 C 
ENDBRANCH   3  18
TORSDOF 1
ENDMDL
MODEL 9
REMARK VINA RESULT:      -8.0      4.880      8.823
REMARK  Name = 
REMARK  2 active torsions:
REMARK  status: ('A' for Active; 'I' for Inactive)
REMARK    1  A    between atoms: C_1  and  C_2
REMARK    2  A    between atoms: C_3  and  C_4
REMARK                            x       y       z     vdW  Elec       q    Type
REMARK                         _______ _______ _______ _____ _____    ______ ____
ROOT
ATOM      1  C   UNL     1       0.774   8.590  21.337  0.00  0.00    +0.000 C 
ATOM      2  C   UNL     1       1.178   8.965  19.953  0.00  0.00    +0.000 A 
ATOM      3  C   UNL     1       1.064  10.166  19.260  0.00  0.00    +0.000 A 
ATOM      4  C   UNL     1       1.712   9.906  18.035  0.00  0.00    +0.000 A 
ATOM      5  N   UNL     1       2.141   8.653  17.909  0.00  0.00    +0.000 NA
ATOM      6  N   UNL     1       1.833   8.079  19.110  0.00  0.00    +0.000 N 
ATOM      7  C   UNL     1       2.233   6.744  19.339  0.00  0.00    +0.000 A 
ATOM      8  N   UNL     1       1.953   6.078  20.414  0.00  0.00    +0.000 NA
ATOM      9  C   UNL     1       2.454   4.811  20.437  0.00  0.00    +0.000 A 
ATOM     10  C   UNL     1       3.201   4.243  19.490  0.00  0.00    +0.000 A 
ATOM     11  C   UNL     1       3.530   5.011  18.290  0.00  0.00    +0.000 A 
ATOM     12  O   UNL     1       4.238   4.572  17.395  0.00  0.00    +0.000 OA
ATOM     13  N   UNL     1       2.971   6.261  18.280  0.00  0.00    +0.000 N 
ATOM     14  C   UNL     1       3.599   2.856  19.802  0.00  0.00    +0.000 C 
ATOM     15  C   UNL     1       2.745   2.546  21.040  0.00  0.00    +0.000 C 
ATOM     16  C   UNL     1       2.208   3.882  21.574  0.00  0.00    +0.000 C 
ATOM     17  H   UNL     1       3.146   6.872  17.490  0.00  0.00    +0.000 HD
ENDROOT
BRANCH   3  18
ATOM     18  C   UNL     1       0.519  11.429  19.760  0.00  0.00    +0.000 C 
ATOM     19  O   UNL     1      -0.431  11.427  20.537  0.00  0.00    +0.000 OA
ATOM     20  N   UNL     1       1.146  12.618  19.379  0.00  0.00    +0.000 N 
ATOM     21  C   UNL     1       0.834  13.850  20.095  0.00  0.00    +0.000 C 
ATOM     22  C   UNL     1       2.126  14.519  20.569  0.00  0.00    +0.000 C 
ATOM     23  C   UNL     1       3.142  14.679  19.418  0.00  0.00    +0.000 C 
ATOM     24  C   UNL     1       3.333  13.380  18.622  0.00  0.00    +0.000 C 
ATOM     25  C   UNL     1       1.983  12.814  18.200  0.00  0.00    +0.000 C 
ATOM     26  C   UNL     1       4.501  15.266  19.904  0.00  0.00    +0.000 C 
ATOM     27  C   UNL     1       3.989  16.671  19.519  0.00  0.00    +0.000 C 
ATOM     28  F   UNL     1       4.897  17.486  18.941  0.00  0.00    +0.000 F 
ATOM     29  F   UNL     1       3.416  17.373  20.524  0.00  0.00    +0.000 F 
ATOM     30  C   UNL     1       3.001  15.969  18.555  0.00  0.00    +0.000 C 
ENDBRANCH   3  18
TORSDOF 1
ENDMDL
