MODEL 1
REMARK VINA RESULT:      -7.6      0.000      0.000
REMARK  Name = 
REMARK  7 active torsions:
REMARK  status: ('A' for Active; 'I' for Inactive)
REMARK    1  A    between atoms: C_7  and  O_8
REMARK    2  A    between atoms: C_12  and  C_13
REMARK    3  A    between atoms: C_13  and  C_14
REMARK    4  A    between atoms: C_14  and  C_15
REMARK    5  A    between atoms: C_15  and  C_16
REMARK    6  A    between atoms: C_16  and  C_17
REMARK    7  A    between atoms: C_17  and  O_18
REMARK                            x       y       z     vdW  Elec       q    Type
REMARK                         _______ _______ _______ _____ _____    ______ ____
ROOT
ATOM      1  O   UNL     1       1.046   6.409  21.129  0.00  0.00    +0.000 OA
ATOM      2  C   UNL     1       1.912   6.005  20.362  0.00  0.00    +0.000 C 
ATOM      3  C   UNL     1       2.485   4.654  20.519  0.00  0.00    +0.000 A 
ATOM      4  C   UNL     1       2.014   3.858  21.576  0.00  0.00    +0.000 A 
ATOM      5  C   UNL     1       2.528   2.581  21.779  0.00  0.00    +0.000 A 
ATOM      6  C   UNL     1       3.519   2.096  20.930  0.00  0.00    +0.000 A 
ATOM      7  C   UNL     1       3.990   2.888  19.876  0.00  0.00    +0.000 A 
ATOM      8  C   UNL     1       3.474   4.179  19.649  0.00  0.00    +0.000 A 
ATOM      9  C   UNL     1       3.939   5.060  18.532  0.00  0.00    +0.000 C 
ATOM     10  N   UNL     1       4.823   4.643  17.701  0.00  0.00    +0.000 NA
ATOM     11  C   UNL     1       5.307   5.529  16.648  0.00  0.00    +0.000 C 
ATOM     12  O   UNL     1       4.769   6.846  16.472  0.00  0.00    +0.000 OA
ATOM     13  C   UNL     1       3.821   7.218  17.371  0.00  0.00    +0.000 A 
ATOM     14  C   UNL     1       3.292   8.501  17.210  0.00  0.00    +0.000 A 
ATOM     15  C   UNL     1       2.313   8.972  18.083  0.00  0.00    +0.000 A 
ATOM     16  C   UNL     1       1.861   8.156  19.119  0.00  0.00    +0.000 A 
ATOM     17  C   UNL     1       2.393   6.868  19.275  0.00  0.00    +0.000 A 
ATOM     18  C   UNL     1       3.370   6.405  18.403  0.00  0.00    +0.000 A 
ENDROOT
BRANCH   7  19
ATOM     19  O   UNL     1       4.975   2.362  19.086  0.00  0.00    +0.000 OA
ATOM     20  H   UNL     1       4.790   1.433  18.881  0.00  0.00    +0.000 HD
ENDBRANCH   7  19
BRANCH  11  21
ATOM     21  C   UNL     1       6.825   5.689  16.840  0.00  0.00    +0.000 C 
BRANCH  21  22
ATOM     22  C   UNL     1       7.222   5.755  18.316  0.00  0.00    +0.000 C 
BRANCH  22  23
ATOM     23  C   UNL     1       8.089   6.977  18.612  0.00  0.00    +0.000 C 
BRANCH  23  24
ATOM     24  C   UNL     1       7.791   8.098  17.620  0.00  0.00    +0.000 C 
BRANCH  24  25
ATOM     25  C   UNL     1       8.381   9.423  18.078  0.00  0.00    +0.000 C 
BRANCH  25  26
ATOM     26  O   UNL     1       9.131   9.230  19.270  0.00  0.00    +0.000 OA
ATOM     27  H   UNL     1       9.370  10.108  19.609  0.00  0.00    +0.000 HD
ENDBRANCH  25  26
ENDBRANCH  24  25
ENDBRANCH  23  24
ENDBRANCH  22  23
ENDBRANCH  21  22
ENDBRANCH  11  21
TORSDOF 7
ENDMDL
MODEL 2
REMARK VINA RESULT:      -7.5      2.413      4.917
REMARK  Name = 
REMARK  7 active torsions:
REMARK  status: ('A' for Active; 'I' for Inactive)
REMARK    1  A    between atoms: C_7  and  O_8
REMARK    2  A    between atoms: C_12  and  C_13
REMARK    3  A    between atoms: C_13  and  C_14
REMARK    4  A    between atoms: C_14  and  C_15
REMARK    5  A    between atoms: C_15  and  C_16
REMARK    6  A    between atoms: C_16  and  C_17
REMARK    7  A    between atoms: C_17  and  O_18
REMARK                            x       y       z     vdW  Elec       q    Type
REMARK                         _______ _______ _______ _____ _____    ______ ____
ROOT
ATOM      1  O   UNL     1       4.199   1.918  17.514  0.00  0.00    +0.000 OA
ATOM      2  C   UNL     1       3.826   3.037  17.846  0.00  0.00    +0.000 C 
ATOM      3  C   UNL     1       2.916   3.217  18.996  0.00  0.00    +0.000 A 
ATOM      4  C   UNL     1       2.491   2.068  19.683  0.00  0.00    +0.000 A 
ATOM      5  C   UNL     1       1.624   2.178  20.766  0.00  0.00    +0.000 A 
ATOM      6  C   UNL     1       1.175   3.434  21.163  0.00  0.00    +0.000 A 
ATOM      7  C   UNL     1       1.598   4.580  20.479  0.00  0.00    +0.000 A 
ATOM      8  C   UNL     1       2.484   4.490  19.387  0.00  0.00    +0.000 A 
ATOM      9  C   UNL     1       2.970   5.685  18.629  0.00  0.00    +0.000 C 
ATOM     10  N   UNL     1       2.614   6.866  18.980  0.00  0.00    +0.000 NA
ATOM     11  C   UNL     1       3.052   8.020  18.202  0.00  0.00    +0.000 C 
ATOM     12  O   UNL     1       3.933   7.875  17.081  0.00  0.00    +0.000 OA
ATOM     13  C   UNL     1       4.291   6.601  16.776  0.00  0.00    +0.000 A 
ATOM     14  C   UNL     1       5.148   6.449  15.682  0.00  0.00    +0.000 A 
ATOM     15  C   UNL     1       5.571   5.179  15.292  0.00  0.00    +0.000 A 
ATOM     16  C   UNL     1       5.136   4.059  15.999  0.00  0.00    +0.000 A 
ATOM     17  C   UNL     1       4.278   4.217  17.096  0.00  0.00    +0.000 A 
ATOM     18  C   UNL     1       3.859   5.485  17.480  0.00  0.00    +0.000 A 
ENDROOT
BRANCH   7  19
ATOM     19  O   UNL     1       1.110   5.784  20.906  0.00  0.00    +0.000 OA
ATOM     20  H   UNL     1       1.714   6.191  21.545  0.00  0.00    +0.000 HD
ENDBRANCH   7  19
BRANCH  11  21
ATOM     21  C   UNL     1       1.791   8.737  17.689  0.00  0.00    +0.000 C 
BRANCH  21  22
ATOM     22  C   UNL     1       1.679  10.168  18.219  0.00  0.00    +0.000 C 
BRANCH  22  23
ATOM     23  C   UNL     1       0.401  10.370  19.030  0.00  0.00    +0.000 C 
BRANCH  23  24
ATOM     24  C   UNL     1       0.720  10.452  20.520  0.00  0.00    +0.000 C 
BRANCH  24  25
ATOM     25  C   UNL     1       0.441   9.134  21.227  0.00  0.00    +0.000 C 
BRANCH  25  26
ATOM     26  O   UNL     1       1.666   8.464  21.495  0.00  0.00    +0.000 OA
ATOM     27  H   UNL     1       1.937   8.704  22.396  0.00  0.00    +0.000 HD
ENDBRANCH  25  26
ENDBRANCH  24  25
ENDBRANCH  23  24
ENDBRANCH  22  23
ENDBRANCH  21  22
ENDBRANCH  11  21
TORSDOF 7
ENDMDL
MODEL 3
REMARK VINA RESULT:      -7.3      2.469      5.419
REMARK  Name = 
REMARK  7 active torsions:
REMARK  status: ('A' for Active; 'I' for Inactive)
REMARK    1  A    between atoms: C_7  and  O_8
REMARK    2  A    between atoms: C_12  and  C_13
REMARK    3  A    between atoms: C_13  and  C_14
REMARK    4  A    between atoms: C_14  and  C_15
REMARK    5  A    between atoms: C_15  and  C_16
REMARK    6  A    between atoms: C_16  and  C_17
REMARK    7  A    between atoms: C_17  and  O_18
REMARK                            x       y       z     vdW  Elec       q    Type
REMARK                         _______ _______ _______ _____ _____    ______ ____
ROOT
ATOM      1  O   UNL     1       4.086   1.961  17.453  0.00  0.00    +0.000 OA
ATOM      2  C   UNL     1       3.748   3.090  17.788  0.00  0.00    +0.000 C 
ATOM      3  C   UNL     1       2.840   3.295  18.934  0.00  0.00    +0.000 A 
ATOM      4  C   UNL     1       2.374   2.158  19.615  0.00  0.00    +0.000 A 
ATOM      5  C   UNL     1       1.505   2.291  20.694  0.00  0.00    +0.000 A 
ATOM      6  C   UNL     1       1.095   3.559  21.094  0.00  0.00    +0.000 A 
ATOM      7  C   UNL     1       1.558   4.694  20.416  0.00  0.00    +0.000 A 
ATOM      8  C   UNL     1       2.446   4.579  19.328  0.00  0.00    +0.000 A 
ATOM      9  C   UNL     1       2.975   5.761  18.577  0.00  0.00    +0.000 C 
ATOM     10  N   UNL     1       2.655   6.952  18.931  0.00  0.00    +0.000 NA
ATOM     11  C   UNL     1       3.134   8.094  18.161  0.00  0.00    +0.000 C 
ATOM     12  O   UNL     1       4.016   7.925  17.043  0.00  0.00    +0.000 OA
ATOM     13  C   UNL     1       4.334   6.641  16.734  0.00  0.00    +0.000 A 
ATOM     14  C   UNL     1       5.191   6.466  15.645  0.00  0.00    +0.000 A 
ATOM     15  C   UNL     1       5.574   5.185  15.251  0.00  0.00    +0.000 A 
ATOM     16  C   UNL     1       5.100   4.077  15.952  0.00  0.00    +0.000 A 
ATOM     17  C   UNL     1       4.242   4.258  17.045  0.00  0.00    +0.000 A 
ATOM     18  C   UNL     1       3.862   5.537  17.432  0.00  0.00    +0.000 A 
ENDROOT
BRANCH   7  19
ATOM     19  O   UNL     1       1.107   5.911  20.846  0.00  0.00    +0.000 OA
ATOM     20  H   UNL     1       0.163   5.870  21.061  0.00  0.00    +0.000 HD
ENDBRANCH   7  19
BRANCH  11  21
ATOM     21  C   UNL     1       1.899   8.853  17.644  0.00  0.00    +0.000 C 
BRANCH  21  22
ATOM     22  C   UNL     1       1.033   9.399  18.782  0.00  0.00    +0.000 C 
BRANCH  22  23
ATOM     23  C   UNL     1       0.237  10.626  18.344  0.00  0.00    +0.000 C 
BRANCH  23  24
ATOM     24  C   UNL     1      -1.249  10.294  18.245  0.00  0.00    +0.000 C 
BRANCH  24  25
ATOM     25  C   UNL     1      -2.055  11.473  17.720  0.00  0.00    +0.000 C 
BRANCH  25  26
ATOM     26  O   UNL     1      -1.181  12.550  17.406  0.00  0.00    +0.000 OA
ATOM     27  H   UNL     1      -1.445  12.892  16.536  0.00  0.00    +0.000 HD
ENDBRANCH  25  26
ENDBRANCH  24  25
ENDBRANCH  23  24
ENDBRANCH  22  23
ENDBRANCH  21  22
ENDBRANCH  11  21
TORSDOF 7
ENDMDL
MODEL 4
REMARK VINA RESULT:      -7.3      1.365      1.585
REMARK  Name = 
REMARK  7 active torsions:
REMARK  status: ('A' for Active; 'I' for Inactive)
REMARK    1  A    between atoms: C_7  and  O_8
REMARK    2  A    between atoms: C_12  and  C_13
REMARK    3  A    between atoms: C_13  and  C_14
REMARK    4  A    between atoms: C_14  and  C_15
REMARK    5  A    between atoms: C_15  and  C_16
REMARK    6  A    between atoms: C_16  and  C_17
REMARK    7  A    between atoms: C_17  and  O_18
REMARK                            x       y       z     vdW  Elec       q    Type
REMARK                         _______ _______ _______ _____ _____    ______ ____
ROOT
ATOM      1  O   UNL     1       1.078   6.503  21.362  0.00  0.00    +0.000 OA
ATOM      2  C   UNL     1       1.844   6.176  20.464  0.00  0.00    +0.000 C 
ATOM      3  C   UNL     1       2.436   4.823  20.436  0.00  0.00    +0.000 A 
ATOM      4  C   UNL     1       2.100   3.937  21.472  0.00  0.00    +0.000 A 
ATOM      5  C   UNL     1       2.639   2.654  21.504  0.00  0.00    +0.000 A 
ATOM      6  C   UNL     1       3.519   2.254  20.502  0.00  0.00    +0.000 A 
ATOM      7  C   UNL     1       3.855   3.136  19.468  0.00  0.00    +0.000 A 
ATOM      8  C   UNL     1       3.311   4.435  19.414  0.00  0.00    +0.000 A 
ATOM      9  C   UNL     1       3.633   5.411  18.327  0.00  0.00    +0.000 C 
ATOM     10  N   UNL     1       4.410   5.076  17.362  0.00  0.00    +0.000 NA
ATOM     11  C   UNL     1       4.758   6.052  16.335  0.00  0.00    +0.000 C 
ATOM     12  O   UNL     1       4.199   7.372  16.338  0.00  0.00    +0.000 OA
ATOM     13  C   UNL     1       3.367   7.656  17.373  0.00  0.00    +0.000 A 
ATOM     14  C   UNL     1       2.820   8.941  17.386  0.00  0.00    +0.000 A 
ATOM     15  C   UNL     1       1.954   9.326  18.409  0.00  0.00    +0.000 A 
ATOM     16  C   UNL     1       1.635   8.421  19.420  0.00  0.00    +0.000 A 
ATOM     17  C   UNL     1       2.186   7.132  19.402  0.00  0.00    +0.000 A 
ATOM     18  C   UNL     1       3.049   6.755  18.381  0.00  0.00    +0.000 A 
ENDROOT
BRANCH   7  19
ATOM     19  O   UNL     1       4.737   2.690  18.522  0.00  0.00    +0.000 OA
ATOM     20  H   UNL     1       4.581   1.754  18.324  0.00  0.00    +0.000 HD
ENDBRANCH   7  19
BRANCH  11  21
ATOM     21  C   UNL     1       6.288   6.215  16.353  0.00  0.00    +0.000 C 
BRANCH  21  22
ATOM     22  C   UNL     1       7.018   4.878  16.209  0.00  0.00    +0.000 C 
BRANCH  22  23
ATOM     23  C   UNL     1       7.729   4.483  17.502  0.00  0.00    +0.000 C 
BRANCH  23  24
ATOM     24  C   UNL     1       7.874   5.691  18.424  0.00  0.00    +0.000 C 
BRANCH  24  25
ATOM     25  C   UNL     1       7.160   5.474  19.749  0.00  0.00    +0.000 C 
BRANCH  25  26
ATOM     26  O   UNL     1       8.109   5.450  20.808  0.00  0.00    +0.000 OA
ATOM     27  H   UNL     1       8.964   5.728  20.438  0.00  0.00    +0.000 HD
ENDBRANCH  25  26
ENDBRANCH  24  25
ENDBRANCH  23  24
ENDBRANCH  22  23
ENDBRANCH  21  22
ENDBRANCH  11  21
TORSDOF 7
ENDMDL
MODEL 5
REMARK VINA RESULT:      -7.1      2.317      4.742
REMARK  Name = 
REMARK  7 active torsions:
REMARK  status: ('A' for Active; 'I' for Inactive)
REMARK    1  A    between atoms: C_7  and  O_8
REMARK    2  A    between atoms: C_12  and  C_13
REMARK    3  A    between atoms: C_13  and  C_14
REMARK    4  A    between atoms: C_14  and  C_15
REMARK    5  A    between atoms: C_15  and  C_16
REMARK    6  A    between atoms: C_16  and  C_17
REMARK    7  A    between atoms: C_17  and  O_18
REMARK                            x       y       z     vdW  Elec       q    Type
REMARK                         _______ _______ _______ _____ _____    ______ ____
ROOT
ATOM      1  O   UNL     1       3.944   1.675  17.655  0.00  0.00    +0.000 OA
ATOM      2  C   UNL     1       3.731   2.847  17.942  0.00  0.00    +0.000 C 
ATOM      3  C   UNL     1       2.928   3.196  19.131  0.00  0.00    +0.000 A 
ATOM      4  C   UNL     1       2.414   2.146  19.910  0.00  0.00    +0.000 A 
ATOM      5  C   UNL     1       1.640   2.416  21.034  0.00  0.00    +0.000 A 
ATOM      6  C   UNL     1       1.372   3.737  21.382  0.00  0.00    +0.000 A 
ATOM      7  C   UNL     1       1.883   4.786  20.608  0.00  0.00    +0.000 A 
ATOM      8  C   UNL     1       2.678   4.531  19.472  0.00  0.00    +0.000 A 
ATOM      9  C   UNL     1       3.253   5.617  18.617  0.00  0.00    +0.000 C 
ATOM     10  N   UNL     1       3.065   6.849  18.919  0.00  0.00    +0.000 NA
ATOM     11  C   UNL     1       3.586   7.899  18.050  0.00  0.00    +0.000 C 
ATOM     12  O   UNL     1       4.367   7.589  16.889  0.00  0.00    +0.000 OA
ATOM     13  C   UNL     1       4.549   6.266  16.638  0.00  0.00    +0.000 A 
ATOM     14  C   UNL     1       5.307   5.955  15.507  0.00  0.00    +0.000 A 
ATOM     15  C   UNL     1       5.547   4.624  15.168  0.00  0.00    +0.000 A 
ATOM     16  C   UNL     1       5.029   3.604  15.964  0.00  0.00    +0.000 A 
ATOM     17  C   UNL     1       4.271   3.922  17.099  0.00  0.00    +0.000 A 
ATOM     18  C   UNL     1       4.033   5.250  17.431  0.00  0.00    +0.000 A 
ENDROOT
BRANCH   7  19
ATOM     19  O   UNL     1       1.573   6.061  20.992  0.00  0.00    +0.000 OA
ATOM     20  H   UNL     1       2.032   6.293  21.813  0.00  0.00    +0.000 HD
ENDBRANCH   7  19
BRANCH  11  21
ATOM     21  C   UNL     1       2.389   8.739  17.571  0.00  0.00    +0.000 C 
BRANCH  21  22
ATOM     22  C   UNL     1       1.372   8.992  18.687  0.00  0.00    +0.000 C 
BRANCH  22  23
ATOM     23  C   UNL     1       0.648  10.323  18.497  0.00  0.00    +0.000 C 
BRANCH  23  24
ATOM     24  C   UNL     1       1.360  11.435  19.263  0.00  0.00    +0.000 C 
BRANCH  24  25
ATOM     25  C   UNL     1       1.655  12.632  18.372  0.00  0.00    +0.000 C 
BRANCH  25  26
ATOM     26  O   UNL     1       2.567  12.256  17.349  0.00  0.00    +0.000 OA
ATOM     27  H   UNL     1       2.391  12.823  16.580  0.00  0.00    +0.000 HD
ENDBRANCH  25  26
ENDBRANCH  24  25
ENDBRANCH  23  24
ENDBRANCH  22  23
ENDBRANCH  21  22
ENDBRANCH  11  21
TORSDOF 7
ENDMDL
MODEL 6
REMARK VINA RESULT:      -7.1      1.251      1.545
REMARK  Name = 
REMARK  7 active torsions:
REMARK  status: ('A' for Active; 'I' for Inactive)
REMARK    1  A    between atoms: C_7  and  O_8
REMARK    2  A    between atoms: C_12  and  C_13
REMARK    3  A    between atoms: C_13  and  C_14
REMARK    4  A    between atoms: C_14  and  C_15
REMARK    5  A    between atoms: C_15  and  C_16
REMARK    6  A    between atoms: C_16  and  C_17
REMARK    7  A    between atoms: C_17  and  O_18
REMARK                            x       y       z     vdW  Elec       q    Type
REMARK                         _______ _______ _______ _____ _____    ______ ____
ROOT
ATOM      1  O   UNL     1       1.388   6.449  21.022  0.00  0.00    +0.000 OA
ATOM      2  C   UNL     1       2.135   5.891  20.227  0.00  0.00    +0.000 C 
ATOM      3  C   UNL     1       2.547   4.489  20.438  0.00  0.00    +0.000 A 
ATOM      4  C   UNL     1       2.065   3.827  21.579  0.00  0.00    +0.000 A 
ATOM      5  C   UNL     1       2.432   2.509  21.835  0.00  0.00    +0.000 A 
ATOM      6  C   UNL     1       3.286   1.850  20.955  0.00  0.00    +0.000 A 
ATOM      7  C   UNL     1       3.768   2.509  19.817  0.00  0.00    +0.000 A 
ATOM      8  C   UNL     1       3.399   3.839  19.536  0.00  0.00    +0.000 A 
ATOM      9  C   UNL     1       3.880   4.584  18.331  0.00  0.00    +0.000 C 
ATOM     10  N   UNL     1       4.639   4.007  17.472  0.00  0.00    +0.000 NA
ATOM     11  C   UNL     1       5.144   4.757  16.327  0.00  0.00    +0.000 C 
ATOM     12  O   UNL     1       4.762   6.120  16.098  0.00  0.00    +0.000 OA
ATOM     13  C   UNL     1       3.939   6.664  17.032  0.00  0.00    +0.000 A 
ATOM     14  C   UNL     1       3.563   7.992  16.818  0.00  0.00    +0.000 A 
ATOM     15  C   UNL     1       2.721   8.638  17.723  0.00  0.00    +0.000 A 
ATOM     16  C   UNL     1       2.253   7.951  18.842  0.00  0.00    +0.000 A 
ATOM     17  C   UNL     1       2.633   6.618  19.051  0.00  0.00    +0.000 A 
ATOM     18  C   UNL     1       3.474   5.980  18.147  0.00  0.00    +0.000 A 
ENDROOT
BRANCH   7  19
ATOM     19  O   UNL     1       4.615   1.814  18.999  0.00  0.00    +0.000 OA
ATOM     20  H   UNL     1       5.537   1.954  19.262  0.00  0.00    +0.000 HD
ENDBRANCH   7  19
BRANCH  11  21
ATOM     21  C   UNL     1       6.681   4.732  16.401  0.00  0.00    +0.000 C 
BRANCH  21  22
ATOM     22  C   UNL     1       7.286   6.138  16.415  0.00  0.00    +0.000 C 
BRANCH  22  23
ATOM     23  C   UNL     1       7.539   6.628  17.840  0.00  0.00    +0.000 C 
BRANCH  23  24
ATOM     24  C   UNL     1       8.027   5.481  18.721  0.00  0.00    +0.000 C 
BRANCH  24  25
ATOM     25  C   UNL     1       7.455   5.573  20.128  0.00  0.00    +0.000 C 
BRANCH  25  26
ATOM     26  O   UNL     1       8.429   5.147  21.072  0.00  0.00    +0.000 OA
ATOM     27  H   UNL     1       8.015   4.468  21.630  0.00  0.00    +0.000 HD
ENDBRANCH  25  26
ENDBRANCH  24  25
ENDBRANCH  23  24
ENDBRANCH  22  23
ENDBRANCH  21  22
ENDBRANCH  11  21
TORSDOF 7
ENDMDL
MODEL 7
REMARK VINA RESULT:      -7.0      1.944      3.220
REMARK  Name = 
REMARK  7 active torsions:
REMARK  status: ('A' for Active; 'I' for Inactive)
REMARK    1  A    between atoms: C_7  and  O_8
REMARK    2  A    between atoms: C_12  and  C_13
REMARK    3  A    between atoms: C_13  and  C_14
REMARK    4  A    between atoms: C_14  and  C_15
REMARK    5  A    between atoms: C_15  and  C_16
REMARK    6  A    between atoms: C_16  and  C_17
REMARK    7  A    between atoms: C_17  and  O_18
REMARK                            x       y       z     vdW  Elec       q    Type
REMARK                         _______ _______ _______ _____ _____    ______ ____
ROOT
ATOM      1  O   UNL     1       1.080   6.473  21.266  0.00  0.00    +0.000 OA
ATOM      2  C   UNL     1       1.891   6.052  20.450  0.00  0.00    +0.000 C 
ATOM      3  C   UNL     1       2.416   4.676  20.553  0.00  0.00    +0.000 A 
ATOM      4  C   UNL     1       1.963   3.877  21.616  0.00  0.00    +0.000 A 
ATOM      5  C   UNL     1       2.434   2.576  21.770  0.00  0.00    +0.000 A 
ATOM      6  C   UNL     1       3.363   2.071  20.864  0.00  0.00    +0.000 A 
ATOM      7  C   UNL     1       3.816   2.865  19.804  0.00  0.00    +0.000 A 
ATOM      8  C   UNL     1       3.342   4.180  19.627  0.00  0.00    +0.000 A 
ATOM      9  C   UNL     1       3.789   5.066  18.506  0.00  0.00    +0.000 C 
ATOM     10  N   UNL     1       4.615   4.632  17.625  0.00  0.00    +0.000 NA
ATOM     11  C   UNL     1       5.083   5.519  16.567  0.00  0.00    +0.000 C 
ATOM     12  O   UNL     1       4.592   6.861  16.443  0.00  0.00    +0.000 OA
ATOM     13  C   UNL     1       3.703   7.250  17.393  0.00  0.00    +0.000 A 
ATOM     14  C   UNL     1       3.220   8.557  17.283  0.00  0.00    +0.000 A 
ATOM     15  C   UNL     1       2.304   9.048  18.212  0.00  0.00    +0.000 A 
ATOM     16  C   UNL     1       1.869   8.228  19.252  0.00  0.00    +0.000 A 
ATOM     17  C   UNL     1       2.355   6.918  19.357  0.00  0.00    +0.000 A 
ATOM     18  C   UNL     1       3.269   6.435  18.430  0.00  0.00    +0.000 A 
ENDROOT
BRANCH   7  19
ATOM     19  O   UNL     1       4.739   2.318  18.957  0.00  0.00    +0.000 OA
ATOM     20  H   UNL     1       4.302   1.818  18.250  0.00  0.00    +0.000 HD
ENDBRANCH   7  19
BRANCH  11  21
ATOM     21  C   UNL     1       6.614   5.615  16.688  0.00  0.00    +0.000 C 
BRANCH  21  22
ATOM     22  C   UNL     1       7.335   4.887  15.551  0.00  0.00    +0.000 C 
BRANCH  22  23
ATOM     23  C   UNL     1       6.557   4.983  14.240  0.00  0.00    +0.000 C 
BRANCH  23  24
ATOM     24  C   UNL     1       6.173   3.592  13.742  0.00  0.00    +0.000 C 
BRANCH  24  25
ATOM     25  C   UNL     1       6.315   3.477  12.232  0.00  0.00    +0.000 C 
BRANCH  25  26
ATOM     26  O   UNL     1       6.412   2.109  11.861  0.00  0.00    +0.000 OA
ATOM     27  H   UNL     1       5.543   1.704  12.015  0.00  0.00    +0.000 HD
ENDBRANCH  25  26
ENDBRANCH  24  25
ENDBRANCH  23  24
ENDBRANCH  22  23
ENDBRANCH  21  22
ENDBRANCH  11  21
TORSDOF 7
ENDMDL
MODEL 8
REMARK VINA RESULT:      -6.9      2.283      5.532
REMARK  Name = 
REMARK  7 active torsions:
REMARK  status: ('A' for Active; 'I' for Inactive)
REMARK    1  A    between atoms: C_7  and  O_8
REMARK    2  A    between atoms: C_12  and  C_13
REMARK    3  A    between atoms: C_13  and  C_14
REMARK    4  A    between atoms: C_14  and  C_15
REMARK    5  A    between atoms: C_15  and  C_16
REMARK    6  A    between atoms: C_16  and  C_17
REMARK    7  A    between atoms: C_17  and  O_18
REMARK                            x       y       z     vdW  Elec       q    Type
REMARK                         _______ _______ _______ _____ _____    ______ ____
ROOT
ATOM      1  O   UNL     1       3.312   8.637  16.760  0.00  0.00    +0.000 OA
ATOM      2  C   UNL     1       3.403   7.677  17.516  0.00  0.00    +0.000 C 
ATOM      3  C   UNL     1       4.363   6.590  17.240  0.00  0.00    +0.000 A 
ATOM      4  C   UNL     1       5.156   6.690  16.085  0.00  0.00    +0.000 A 
ATOM      5  C   UNL     1       6.069   5.688  15.769  0.00  0.00    +0.000 A 
ATOM      6  C   UNL     1       6.189   4.581  16.603  0.00  0.00    +0.000 A 
ATOM      7  C   UNL     1       5.400   4.478  17.754  0.00  0.00    +0.000 A 
ATOM      8  C   UNL     1       4.478   5.488  18.096  0.00  0.00    +0.000 A 
ATOM      9  C   UNL     1       3.618   5.428  19.319  0.00  0.00    +0.000 C 
ATOM     10  N   UNL     1       3.719   4.446  20.137  0.00  0.00    +0.000 NA
ATOM     11  C   UNL     1       2.840   4.372  21.299  0.00  0.00    +0.000 C 
ATOM     12  O   UNL     1       1.897   5.412  21.591  0.00  0.00    +0.000 OA
ATOM     13  C   UNL     1       1.855   6.434  20.698  0.00  0.00    +0.000 A 
ATOM     14  C   UNL     1       0.938   7.451  20.972  0.00  0.00    +0.000 A 
ATOM     15  C   UNL     1       0.822   8.543  20.113  0.00  0.00    +0.000 A 
ATOM     16  C   UNL     1       1.628   8.617  18.978  0.00  0.00    +0.000 A 
ATOM     17  C   UNL     1       2.548   7.595  18.708  0.00  0.00    +0.000 A 
ATOM     18  C   UNL     1       2.658   6.509  19.567  0.00  0.00    +0.000 A 
ENDROOT
BRANCH   7  19
ATOM     19  O   UNL     1       5.553   3.359  18.525  0.00  0.00    +0.000 OA
ATOM     20  H   UNL     1       4.696   2.937  18.689  0.00  0.00    +0.000 HD
ENDBRANCH   7  19
BRANCH  11  21
ATOM     21  C   UNL     1       2.039   3.062  21.190  0.00  0.00    +0.000 C 
BRANCH  21  22
ATOM     22  C   UNL     1       0.687   3.262  20.501  0.00  0.00    +0.000 C 
BRANCH  22  23
ATOM     23  C   UNL     1       0.805   3.139  18.983  0.00  0.00    +0.000 C 
BRANCH  23  24
ATOM     24  C   UNL     1       1.461   1.814  18.602  0.00  0.00    +0.000 C 
BRANCH  24  25
ATOM     25  C   UNL     1       2.626   2.019  17.646  0.00  0.00    +0.000 C 
BRANCH  25  26
ATOM     26  O   UNL     1       3.779   1.354  18.145  0.00  0.00    +0.000 OA
ATOM     27  H   UNL     1       3.779   0.455  17.775  0.00  0.00    +0.000 HD
ENDBRANCH  25  26
ENDBRANCH  24  25
ENDBRANCH  23  24
ENDBRANCH  22  23
ENDBRANCH  21  22
ENDBRANCH  11  21
TORSDOF 7
ENDMDL
MODEL 9
REMARK VINA RESULT:      -6.6      0.964      1.087
REMARK  Name = 
REMARK  7 active torsions:
REMARK  status: ('A' for Active; 'I' for Inactive)
REMARK    1  A    between atoms: C_7  and  O_8
REMARK    2  A    between atoms: C_12  and  C_13
REMARK    3  A    between atoms: C_13  and  C_14
REMARK    4  A    between atoms: C_14  and  C_15
REMARK    5  A    between atoms: C_15  and  C_16
REMARK    6  A    between atoms: C_16  and  C_17
REMARK    7  A    between atoms: C_17  and  O_18
REMARK                            x       y       z     vdW  Elec       q    Type
REMARK                         _______ _______ _______ _____ _____    ______ ____
ROOT
ATOM      1  O   UNL     1       1.251   6.463  20.965  0.00  0.00    +0.000 OA
ATOM      2  C   UNL     1       2.023   5.890  20.206  0.00  0.00    +0.000 C 
ATOM      3  C   UNL     1       2.384   4.475  20.428  0.00  0.00    +0.000 A 
ATOM      4  C   UNL     1       1.823   3.819  21.536  0.00  0.00    +0.000 A 
ATOM      5  C   UNL     1       2.138   2.490  21.800  0.00  0.00    +0.000 A 
ATOM      6  C   UNL     1       3.019   1.813  20.961  0.00  0.00    +0.000 A 
ATOM      7  C   UNL     1       3.579   2.465  19.856  0.00  0.00    +0.000 A 
ATOM      8  C   UNL     1       3.263   3.807  19.567  0.00  0.00    +0.000 A 
ATOM      9  C   UNL     1       3.830   4.545  18.394  0.00  0.00    +0.000 C 
ATOM     10  N   UNL     1       4.616   3.953  17.573  0.00  0.00    +0.000 NA
ATOM     11  C   UNL     1       5.203   4.696  16.463  0.00  0.00    +0.000 C 
ATOM     12  O   UNL     1       4.872   6.070  16.225  0.00  0.00    +0.000 OA
ATOM     13  C   UNL     1       4.017   6.632  17.118  0.00  0.00    +0.000 A 
ATOM     14  C   UNL     1       3.690   7.972  16.895  0.00  0.00    +0.000 A 
ATOM     15  C   UNL     1       2.819   8.635  17.759  0.00  0.00    +0.000 A 
ATOM     16  C   UNL     1       2.274   7.954  18.846  0.00  0.00    +0.000 A 
ATOM     17  C   UNL     1       2.604   6.610  19.064  0.00  0.00    +0.000 A 
ATOM     18  C   UNL     1       3.473   5.954  18.201  0.00  0.00    +0.000 A 
ENDROOT
BRANCH   7  19
ATOM     19  O   UNL     1       4.449   1.751  19.079  0.00  0.00    +0.000 OA
ATOM     20  H   UNL     1       4.248   1.874  18.139  0.00  0.00    +0.000 HD
ENDBRANCH   7  19
BRANCH  11  21
ATOM     21  C   UNL     1       6.733   4.626  16.618  0.00  0.00    +0.000 C 
BRANCH  21  22
ATOM     22  C   UNL     1       7.159   4.355  18.062  0.00  0.00    +0.000 C 
BRANCH  22  23
ATOM     23  C   UNL     1       8.198   5.366  18.542  0.00  0.00    +0.000 C 
BRANCH  23  24
ATOM     24  C   UNL     1       7.534   6.700  18.874  0.00  0.00    +0.000 C 
BRANCH  24  25
ATOM     25  C   UNL     1       8.059   7.823  17.993  0.00  0.00    +0.000 C 
BRANCH  25  26
ATOM     26  O   UNL     1       7.258   7.933  16.824  0.00  0.00    +0.000 OA
ATOM     27  H   UNL     1       7.435   7.150  16.276  0.00  0.00    +0.000 HD
ENDBRANCH  25  26
ENDBRANCH  24  25
ENDBRANCH  23  24
ENDBRANCH  22  23
ENDBRANCH  21  22
ENDBRANCH  11  21
TORSDOF 7
ENDMDL
