MODEL 1
REMARK VINA RESULT:      -5.7      0.000      0.000
REMARK  Name = 
REMARK  6 active torsions:
REMARK  status: ('A' for Active; 'I' for Inactive)
REMARK    1  A    between atoms: C_1  and  O_2
REMARK    2  A    between atoms: O_2  and  C_3
REMARK    3  A    between atoms: C_8  and  O_9
REMARK    4  A    between atoms: O_9  and  C_10
REMARK    5  A    between atoms: C_13  and  N_14
REMARK    6  A    between atoms: C_15  and  N_16
REMARK                            x       y       z     vdW  Elec       q    Type
REMARK                         _______ _______ _______ _____ _____    ______ ____
ROOT
ATOM      1  C   UNL     1       7.846  12.257  24.483  0.00  0.00    +0.000 A 
ATOM      2  C   UNL     1       8.224  11.513  23.352  0.00  0.00    +0.000 A 
ATOM      3  C   UNL     1       8.885  12.108  22.260  0.00  0.00    +0.000 A 
ATOM      4  C   UNL     1       9.140  13.482  22.262  0.00  0.00    +0.000 A 
ATOM      5  C   UNL     1       8.799  14.204  23.422  0.00  0.00    +0.000 A 
ATOM      6  C   UNL     1       8.139  13.625  24.517  0.00  0.00    +0.000 A 
ATOM      7  C   UNL     1       9.884  14.167  21.111  0.00  0.00    +0.000 C 
ATOM      8  C   UNL     1       9.307  15.548  20.735  0.00  0.00    +0.000 C 
ATOM      9  C   UNL     1       8.263  15.528  19.614  0.00  0.00    +0.000 C 
ATOM     10  C   UNL     1       8.907  14.884  18.351  0.00  0.00    +0.000 C 
ATOM     11  C   UNL     1       9.342  13.446  18.741  0.00  0.00    +0.000 C 
ATOM     12  N   UNL     1      10.189  13.321  19.936  0.00  0.00    +0.000 NA
ATOM     13  C   UNL     1      10.441  11.920  20.288  0.00  0.00    +0.000 C 
ATOM     14  C   UNL     1       9.298  11.268  21.081  0.00  0.00    +0.000 C 
ENDROOT
BRANCH  10  15
ATOM     15  N   UNL     1       9.944  15.802  17.808  0.00  0.00    +0.000 N 
ATOM     16  C   UNL     1       9.634  17.226  17.717  0.00  0.00    +0.000 C 
ATOM     17  C   UNL     1      10.736  18.066  18.339  0.00  0.00    +0.000 C 
ATOM     18  C   UNL     1      12.057  17.738  17.656  0.00  0.00    +0.000 C 
ATOM     19  C   UNL     1      12.332  16.242  17.687  0.00  0.00    +0.000 C 
ATOM     20  C   UNL     1      11.151  15.380  17.263  0.00  0.00    +0.000 C 
ATOM     21  O   UNL     1      11.313  14.356  16.612  0.00  0.00    +0.000 OA
ENDBRANCH  10  15
BRANCH   9  22
ATOM     22  N   UNL     1       6.998  14.915  20.043  0.00  0.00    +0.000 NA
ATOM     23  H   UNL     1       6.991  13.918  19.825  0.00  0.00    +0.000 HD
ATOM     24  H   UNL     1       6.215  15.333  19.544  0.00  0.00    +0.000 HD
ENDBRANCH   9  22
BRANCH   1  26
ATOM     25  C   UNL     1       5.806  11.355  25.330  0.00  0.00    +0.000 C 
ATOM     26  O   UNL     1       7.169  11.707  25.539  0.00  0.00    +0.000 OA
ENDBRANCH   1  26
BRANCH   6  27
ATOM     27  O   UNL     1       7.893  14.539  25.508  0.00  0.00    +0.000 OA
ATOM     28  C   UNL     1       6.652  15.230  25.522  0.00  0.00    +0.000 C 
ENDBRANCH   6  27
TORSDOF 4
ENDMDL
MODEL 2
REMARK VINA RESULT:      -5.5     11.304     13.358
REMARK  Name = 
REMARK  6 active torsions:
REMARK  status: ('A' for Active; 'I' for Inactive)
REMARK    1  A    between atoms: C_1  and  O_2
REMARK    2  A    between atoms: O_2  and  C_3
REMARK    3  A    between atoms: C_8  and  O_9
REMARK    4  A    between atoms: O_9  and  C_10
REMARK    5  A    between atoms: C_13  and  N_14
REMARK    6  A    between atoms: C_15  and  N_16
REMARK                            x       y       z     vdW  Elec       q    Type
REMARK                         _______ _______ _______ _____ _____    ______ ____
ROOT
ATOM      1  C   UNL     1      -6.360  13.221  17.700  0.00  0.00    +0.000 A 
ATOM      2  C   UNL     1      -5.627  12.354  16.872  0.00  0.00    +0.000 A 
ATOM      3  C   UNL     1      -4.516  11.633  17.351  0.00  0.00    +0.000 A 
ATOM      4  C   UNL     1      -4.086  11.808  18.670  0.00  0.00    +0.000 A 
ATOM      5  C   UNL     1      -4.858  12.644  19.499  0.00  0.00    +0.000 A 
ATOM      6  C   UNL     1      -5.968  13.367  19.036  0.00  0.00    +0.000 A 
ATOM      7  C   UNL     1      -2.901  11.023  19.244  0.00  0.00    +0.000 C 
ATOM      8  C   UNL     1      -1.989  11.863  20.162  0.00  0.00    +0.000 C 
ATOM      9  C   UNL     1      -0.793  12.517  19.461  0.00  0.00    +0.000 C 
ATOM     10  C   UNL     1       0.054  11.400  18.785  0.00  0.00    +0.000 C 
ATOM     11  C   UNL     1      -0.869  10.677  17.767  0.00  0.00    +0.000 C 
ATOM     12  N   UNL     1      -2.152  10.181  18.286  0.00  0.00    +0.000 NA
ATOM     13  C   UNL     1      -2.999   9.627  17.225  0.00  0.00    +0.000 C 
ATOM     14  C   UNL     1      -3.776  10.692  16.438  0.00  0.00    +0.000 C 
ENDROOT
BRANCH  10  15
ATOM     15  N   UNL     1       0.709  10.577  19.836  0.00  0.00    +0.000 N 
ATOM     16  C   UNL     1       0.923  11.172  21.153  0.00  0.00    +0.000 C 
ATOM     17  C   UNL     1       0.412  10.259  22.254  0.00  0.00    +0.000 C 
ATOM     18  C   UNL     1       1.099   8.905  22.136  0.00  0.00    +0.000 C 
ATOM     19  C   UNL     1       0.938   8.330  20.737  0.00  0.00    +0.000 C 
ATOM     20  C   UNL     1       1.246   9.314  19.618  0.00  0.00    +0.000 C 
ATOM     21  O   UNL     1       1.805   8.953  18.589  0.00  0.00    +0.000 OA
ENDBRANCH  10  15
BRANCH   9  22
ATOM     22  N   UNL     1      -1.202  13.610  18.567  0.00  0.00    +0.000 NA
ATOM     23  H   UNL     1      -0.516  14.364  18.587  0.00  0.00    +0.000 HD
ATOM     24  H   UNL     1      -2.088  14.006  18.875  0.00  0.00    +0.000 HD
ENDBRANCH   9  22
BRANCH   1  26
ATOM     25  C   UNL     1      -7.127  15.178  16.570  0.00  0.00    +0.000 C 
ATOM     26  O   UNL     1      -7.420  13.959  17.245  0.00  0.00    +0.000 OA
ENDBRANCH   1  26
BRANCH   6  27
ATOM     27  O   UNL     1      -6.533  14.128  20.026  0.00  0.00    +0.000 OA
ATOM     28  C   UNL     1      -6.733  13.556  21.310  0.00  0.00    +0.000 C 
ENDBRANCH   6  27
TORSDOF 4
ENDMDL
MODEL 3
REMARK VINA RESULT:      -5.4     10.443     13.004
REMARK  Name = 
REMARK  6 active torsions:
REMARK  status: ('A' for Active; 'I' for Inactive)
REMARK    1  A    between atoms: C_1  and  O_2
REMARK    2  A    between atoms: O_2  and  C_3
REMARK    3  A    between atoms: C_8  and  O_9
REMARK    4  A    between atoms: O_9  and  C_10
REMARK    5  A    between atoms: C_13  and  N_14
REMARK    6  A    between atoms: C_15  and  N_16
REMARK                            x       y       z     vdW  Elec       q    Type
REMARK                         _______ _______ _______ _____ _____    ______ ____
ROOT
ATOM      1  C   UNL     1      -2.384  10.492  17.560  0.00  0.00    +0.000 A 
ATOM      2  C   UNL     1      -1.335  10.475  18.495  0.00  0.00    +0.000 A 
ATOM      3  C   UNL     1      -1.376  11.250  19.671  0.00  0.00    +0.000 A 
ATOM      4  C   UNL     1      -2.460  12.100  19.908  0.00  0.00    +0.000 A 
ATOM      5  C   UNL     1      -3.524  12.071  18.987  0.00  0.00    +0.000 A 
ATOM      6  C   UNL     1      -3.496  11.304  17.812  0.00  0.00    +0.000 A 
ATOM      7  C   UNL     1      -2.563  12.939  21.187  0.00  0.00    +0.000 C 
ATOM      8  C   UNL     1      -3.112  14.361  20.953  0.00  0.00    +0.000 C 
ATOM      9  C   UNL     1      -2.045  15.437  20.726  0.00  0.00    +0.000 C 
ATOM     10  C   UNL     1      -1.092  15.455  21.957  0.00  0.00    +0.000 C 
ATOM     11  C   UNL     1      -0.455  14.043  22.065  0.00  0.00    +0.000 C 
ATOM     12  N   UNL     1      -1.387  12.906  22.085  0.00  0.00    +0.000 NA
ATOM     13  C   UNL     1      -0.685  11.619  22.064  0.00  0.00    +0.000 C 
ATOM     14  C   UNL     1      -0.244  11.180  20.660  0.00  0.00    +0.000 C 
ENDROOT
BRANCH  10  15
ATOM     15  N   UNL     1      -1.829  15.978  23.138  0.00  0.00    +0.000 N 
ATOM     16  C   UNL     1      -2.681  17.151  22.963  0.00  0.00    +0.000 C 
ATOM     17  C   UNL     1      -4.066  16.911  23.540  0.00  0.00    +0.000 C 
ATOM     18  C   UNL     1      -3.934  16.532  25.009  0.00  0.00    +0.000 C 
ATOM     19  C   UNL     1      -2.981  15.359  25.188  0.00  0.00    +0.000 C 
ATOM     20  C   UNL     1      -1.667  15.501  24.434  0.00  0.00    +0.000 C 
ATOM     21  O   UNL     1      -0.612  15.103  24.913  0.00  0.00    +0.000 OA
ENDBRANCH  10  15
BRANCH   9  22
ATOM     22  N   UNL     1      -1.373  15.287  19.427  0.00  0.00    +0.000 NA
ATOM     23  H   UNL     1      -0.834  14.421  19.400  0.00  0.00    +0.000 HD
ATOM     24  H   UNL     1      -0.716  16.050  19.278  0.00  0.00    +0.000 HD
ENDBRANCH   9  22
BRANCH   1  26
ATOM     25  C   UNL     1      -2.715  10.453  15.197  0.00  0.00    +0.000 C 
ATOM     26  O   UNL     1      -2.347   9.775  16.394  0.00  0.00    +0.000 OA
ENDBRANCH   1  26
BRANCH   6  27
ATOM     27  O   UNL     1      -4.636  11.466  17.067  0.00  0.00    +0.000 OA
ATOM     28  C   UNL     1      -5.735  12.168  17.628  0.00  0.00    +0.000 C 
ENDBRANCH   6  27
TORSDOF 4
ENDMDL
MODEL 4
REMARK VINA RESULT:      -5.3     11.084     13.910
REMARK  Name = 
REMARK  6 active torsions:
REMARK  status: ('A' for Active; 'I' for Inactive)
REMARK    1  A    between atoms: C_1  and  O_2
REMARK    2  A    between atoms: O_2  and  C_3
REMARK    3  A    between atoms: C_8  and  O_9
REMARK    4  A    between atoms: O_9  and  C_10
REMARK    5  A    between atoms: C_13  and  N_14
REMARK    6  A    between atoms: C_15  and  N_16
REMARK                            x       y       z     vdW  Elec       q    Type
REMARK                         _______ _______ _______ _____ _____    ______ ____
ROOT
ATOM      1  C   UNL     1      -2.841  11.027  18.236  0.00  0.00    +0.000 A 
ATOM      2  C   UNL     1      -4.091  11.513  18.655  0.00  0.00    +0.000 A 
ATOM      3  C   UNL     1      -4.205  12.507  19.647  0.00  0.00    +0.000 A 
ATOM      4  C   UNL     1      -3.059  13.001  20.275  0.00  0.00    +0.000 A 
ATOM      5  C   UNL     1      -1.812  12.538  19.811  0.00  0.00    +0.000 A 
ATOM      6  C   UNL     1      -1.683  11.549  18.825  0.00  0.00    +0.000 A 
ATOM      7  C   UNL     1      -3.132  14.104  21.337  0.00  0.00    +0.000 C 
ATOM      8  C   UNL     1      -2.162  13.892  22.518  0.00  0.00    +0.000 C 
ATOM      9  C   UNL     1      -2.759  13.150  23.719  0.00  0.00    +0.000 C 
ATOM     10  C   UNL     1      -4.004  13.940  24.218  0.00  0.00    +0.000 C 
ATOM     11  C   UNL     1      -5.011  14.004  23.037  0.00  0.00    +0.000 C 
ATOM     12  N   UNL     1      -4.489  14.513  21.761  0.00  0.00    +0.000 NA
ATOM     13  C   UNL     1      -5.479  14.416  20.684  0.00  0.00    +0.000 C 
ATOM     14  C   UNL     1      -5.562  13.022  20.046  0.00  0.00    +0.000 C 
ENDROOT
BRANCH  10  15
ATOM     15  N   UNL     1      -3.559  15.225  24.822  0.00  0.00    +0.000 N 
ATOM     16  C   UNL     1      -2.404  15.210  25.715  0.00  0.00    +0.000 C 
ATOM     17  C   UNL     1      -1.394  16.274  25.319  0.00  0.00    +0.000 C 
ATOM     18  C   UNL     1      -2.080  17.634  25.316  0.00  0.00    +0.000 C 
ATOM     19  C   UNL     1      -3.328  17.616  24.446  0.00  0.00    +0.000 C 
ATOM     20  C   UNL     1      -4.245  16.427  24.693  0.00  0.00    +0.000 C 
ATOM     21  O   UNL     1      -5.464  16.544  24.649  0.00  0.00    +0.000 OA
ENDBRANCH  10  15
BRANCH   9  22
ATOM     22  N   UNL     1      -3.003  11.730  23.430  0.00  0.00    +0.000 NA
ATOM     23  H   UNL     1      -3.035  11.570  22.423  0.00  0.00    +0.000 HD
ATOM     24  H   UNL     1      -3.905  11.442  23.804  0.00  0.00    +0.000 HD
ENDBRANCH   9  22
BRANCH   1  26
ATOM     25  C   UNL     1      -2.702  10.423  15.931  0.00  0.00    +0.000 C 
ATOM     26  O   UNL     1      -2.709  10.035  17.301  0.00  0.00    +0.000 OA
ENDBRANCH   1  26
BRANCH   6  27
ATOM     27  O   UNL     1      -0.371  11.251  18.567  0.00  0.00    +0.000 OA
ATOM     28  C   UNL     1       0.201  10.085  19.140  0.00  0.00    +0.000 C 
ENDBRANCH   6  27
TORSDOF 4
ENDMDL
MODEL 5
REMARK VINA RESULT:      -5.3     10.388     12.670
REMARK  Name = 
REMARK  6 active torsions:
REMARK  status: ('A' for Active; 'I' for Inactive)
REMARK    1  A    between atoms: C_1  and  O_2
REMARK    2  A    between atoms: O_2  and  C_3
REMARK    3  A    between atoms: C_8  and  O_9
REMARK    4  A    between atoms: O_9  and  C_10
REMARK    5  A    between atoms: C_13  and  N_14
REMARK    6  A    between atoms: C_15  and  N_16
REMARK                            x       y       z     vdW  Elec       q    Type
REMARK                         _______ _______ _______ _____ _____    ______ ____
ROOT
ATOM      1  C   UNL     1      -3.457  10.413  16.171  0.00  0.00    +0.000 A 
ATOM      2  C   UNL     1      -2.253   9.960  16.737  0.00  0.00    +0.000 A 
ATOM      3  C   UNL     1      -1.791  10.440  17.979  0.00  0.00    +0.000 A 
ATOM      4  C   UNL     1      -2.511  11.427  18.658  0.00  0.00    +0.000 A 
ATOM      5  C   UNL     1      -3.739  11.835  18.100  0.00  0.00    +0.000 A 
ATOM      6  C   UNL     1      -4.211  11.366  16.865  0.00  0.00    +0.000 A 
ATOM      7  C   UNL     1      -2.064  11.957  20.024  0.00  0.00    +0.000 C 
ATOM      8  C   UNL     1      -2.251  13.479  20.190  0.00  0.00    +0.000 C 
ATOM      9  C   UNL     1      -1.025  14.324  19.828  0.00  0.00    +0.000 C 
ATOM     10  C   UNL     1       0.172  13.859  20.708  0.00  0.00    +0.000 C 
ATOM     11  C   UNL     1       0.412  12.356  20.399  0.00  0.00    +0.000 C 
ATOM     12  N   UNL     1      -0.756  11.471  20.516  0.00  0.00    +0.000 NA
ATOM     13  C   UNL     1      -0.454  10.102  20.086  0.00  0.00    +0.000 C 
ATOM     14  C   UNL     1      -0.510   9.907  18.564  0.00  0.00    +0.000 C 
ENDROOT
BRANCH  10  15
ATOM     15  N   UNL     1      -0.080  14.247  22.122  0.00  0.00    +0.000 N 
ATOM     16  C   UNL     1       0.483  15.504  22.609  0.00  0.00    +0.000 C 
ATOM     17  C   UNL     1      -0.575  16.342  23.305  0.00  0.00    +0.000 C 
ATOM     18  C   UNL     1      -1.188  15.529  24.438  0.00  0.00    +0.000 C 
ATOM     19  C   UNL     1      -1.699  14.188  23.934  0.00  0.00    +0.000 C 
ATOM     20  C   UNL     1      -0.714  13.434  23.054  0.00  0.00    +0.000 C 
ATOM     21  O   UNL     1      -0.614  12.214  23.110  0.00  0.00    +0.000 OA
ENDBRANCH  10  15
BRANCH   9  22
ATOM     22  N   UNL     1      -0.763  14.332  18.382  0.00  0.00    +0.000 NA
ATOM     23  H   UNL     1      -1.631  14.202  17.860  0.00  0.00    +0.000 HD
ATOM     24  H   UNL     1      -0.148  13.561  18.129  0.00  0.00    +0.000 HD
ENDBRANCH   9  22
BRANCH   1  26
ATOM     25  C   UNL     1      -2.969   9.980  13.875  0.00  0.00    +0.000 C 
ATOM     26  O   UNL     1      -3.905   9.987  14.949  0.00  0.00    +0.000 OA
ENDBRANCH   1  26
BRANCH   6  27
ATOM     27  O   UNL     1      -5.412  11.932  16.528  0.00  0.00    +0.000 OA
ATOM     28  C   UNL     1      -6.114  12.698  17.496  0.00  0.00    +0.000 C 
ENDBRANCH   6  27
TORSDOF 4
ENDMDL
MODEL 6
REMARK VINA RESULT:      -5.3      8.095      9.671
REMARK  Name = 
REMARK  6 active torsions:
REMARK  status: ('A' for Active; 'I' for Inactive)
REMARK    1  A    between atoms: C_1  and  O_2
REMARK    2  A    between atoms: O_2  and  C_3
REMARK    3  A    between atoms: C_8  and  O_9
REMARK    4  A    between atoms: O_9  and  C_10
REMARK    5  A    between atoms: C_13  and  N_14
REMARK    6  A    between atoms: C_15  and  N_16
REMARK                            x       y       z     vdW  Elec       q    Type
REMARK                         _______ _______ _______ _____ _____    ______ ____
ROOT
ATOM      1  C   UNL     1      -3.351  12.855  24.195  0.00  0.00    +0.000 A 
ATOM      2  C   UNL     1      -2.766  11.960  23.284  0.00  0.00    +0.000 A 
ATOM      3  C   UNL     1      -1.612  12.298  22.550  0.00  0.00    +0.000 A 
ATOM      4  C   UNL     1      -1.046  13.568  22.684  0.00  0.00    +0.000 A 
ATOM      5  C   UNL     1      -1.616  14.436  23.636  0.00  0.00    +0.000 A 
ATOM      6  C   UNL     1      -2.765  14.114  24.373  0.00  0.00    +0.000 A 
ATOM      7  C   UNL     1       0.227  13.970  21.931  0.00  0.00    +0.000 C 
ATOM      8  C   UNL     1       0.198  15.415  21.393  0.00  0.00    +0.000 C 
ATOM      9  C   UNL     1      -0.306  15.559  19.953  0.00  0.00    +0.000 C 
ATOM     10  C   UNL     1       0.591  14.688  19.026  0.00  0.00    +0.000 C 
ATOM     11  C   UNL     1       0.474  13.221  19.520  0.00  0.00    +0.000 C 
ATOM     12  N   UNL     1       0.738  12.989  20.947  0.00  0.00    +0.000 NA
ATOM     13  C   UNL     1       0.481  11.599  21.337  0.00  0.00    +0.000 C 
ATOM     14  C   UNL     1      -1.001  11.298  21.605  0.00  0.00    +0.000 C 
ENDROOT
BRANCH  10  15
ATOM     15  N   UNL     1       1.950  15.291  18.952  0.00  0.00    +0.000 N 
ATOM     16  C   UNL     1       2.062  16.743  18.851  0.00  0.00    +0.000 C 
ATOM     17  C   UNL     1       3.036  17.289  19.881  0.00  0.00    +0.000 C 
ATOM     18  C   UNL     1       4.387  16.611  19.696  0.00  0.00    +0.000 C 
ATOM     19  C   UNL     1       4.248  15.096  19.723  0.00  0.00    +0.000 C 
ATOM     20  C   UNL     1       3.125  14.556  18.849  0.00  0.00    +0.000 C 
ATOM     21  O   UNL     1       3.249  13.506  18.231  0.00  0.00    +0.000 OA
ENDBRANCH  10  15
BRANCH   9  22
ATOM     22  N   UNL     1      -1.748  15.298  19.841  0.00  0.00    +0.000 NA
ATOM     23  H   UNL     1      -1.934  14.295  19.877  0.00  0.00    +0.000 HD
ATOM     24  H   UNL     1      -2.100  15.632  18.946  0.00  0.00    +0.000 HD
ENDBRANCH   9  22
BRANCH   1  26
ATOM     25  C   UNL     1      -5.731  12.674  24.194  0.00  0.00    +0.000 C 
ATOM     26  O   UNL     1      -4.495  12.561  24.890  0.00  0.00    +0.000 OA
ENDBRANCH   1  26
BRANCH   6  27
ATOM     27  O   UNL     1      -3.138  15.131  25.212  0.00  0.00    +0.000 OA
ATOM     28  C   UNL     1      -4.070  16.100  24.755  0.00  0.00    +0.000 C 
ENDBRANCH   6  27
TORSDOF 4
ENDMDL
MODEL 7
REMARK VINA RESULT:      -5.3      2.383      4.150
REMARK  Name = 
REMARK  6 active torsions:
REMARK  status: ('A' for Active; 'I' for Inactive)
REMARK    1  A    between atoms: C_1  and  O_2
REMARK    2  A    between atoms: O_2  and  C_3
REMARK    3  A    between atoms: C_8  and  O_9
REMARK    4  A    between atoms: O_9  and  C_10
REMARK    5  A    between atoms: C_13  and  N_14
REMARK    6  A    between atoms: C_15  and  N_16
REMARK                            x       y       z     vdW  Elec       q    Type
REMARK                         _______ _______ _______ _____ _____    ______ ____
ROOT
ATOM      1  C   UNL     1       4.822  15.620  23.536  0.00  0.00    +0.000 A 
ATOM      2  C   UNL     1       5.179  16.438  22.451  0.00  0.00    +0.000 A 
ATOM      3  C   UNL     1       6.109  16.018  21.480  0.00  0.00    +0.000 A 
ATOM      4  C   UNL     1       6.739  14.777  21.608  0.00  0.00    +0.000 A 
ATOM      5  C   UNL     1       6.337  13.950  22.674  0.00  0.00    +0.000 A 
ATOM      6  C   UNL     1       5.412  14.356  23.649  0.00  0.00    +0.000 A 
ATOM      7  C   UNL     1       7.734  14.265  20.561  0.00  0.00    +0.000 C 
ATOM      8  C   UNL     1       8.952  13.536  21.167  0.00  0.00    +0.000 C 
ATOM      9  C   UNL     1      10.176  14.422  21.419  0.00  0.00    +0.000 C 
ATOM     10  C   UNL     1      10.595  15.079  20.071  0.00  0.00    +0.000 C 
ATOM     11  C   UNL     1       9.386  15.917  19.573  0.00  0.00    +0.000 C 
ATOM     12  N   UNL     1       8.097  15.215  19.486  0.00  0.00    +0.000 NA
ATOM     13  C   UNL     1       7.001  16.120  19.127  0.00  0.00    +0.000 C 
ATOM     14  C   UNL     1       6.441  16.914  20.317  0.00  0.00    +0.000 C 
ENDROOT
BRANCH  10  15
ATOM     15  N   UNL     1      11.137  14.033  19.163  0.00  0.00    +0.000 N 
ATOM     16  C   UNL     1      12.022  13.016  19.725  0.00  0.00    +0.000 C 
ATOM     17  C   UNL     1      11.571  11.620  19.328  0.00  0.00    +0.000 C 
ATOM     18  C   UNL     1      11.511  11.530  17.809  0.00  0.00    +0.000 C 
ATOM     19  C   UNL     1      10.650  12.643  17.229  0.00  0.00    +0.000 C 
ATOM     20  C   UNL     1      10.958  14.026  17.785  0.00  0.00    +0.000 C 
ATOM     21  O   UNL     1      10.916  15.021  17.073  0.00  0.00    +0.000 OA
ENDBRANCH  10  15
BRANCH   9  22
ATOM     22  N   UNL     1       9.962  15.365  22.526  0.00  0.00    +0.000 NA
ATOM     23  H   UNL     1       9.646  16.269  22.170  0.00  0.00    +0.000 HD
ATOM     24  H   UNL     1      10.834  15.532  23.023  0.00  0.00    +0.000 HD
ENDBRANCH   9  22
BRANCH   1  26
ATOM     25  C   UNL     1       3.214  17.220  24.276  0.00  0.00    +0.000 C 
ATOM     26  O   UNL     1       3.949  16.024  24.511  0.00  0.00    +0.000 OA
ENDBRANCH   1  26
BRANCH   6  27
ATOM     27  O   UNL     1       5.207  13.386  24.595  0.00  0.00    +0.000 OA
ATOM     28  C   UNL     1       6.010  13.379  25.766  0.00  0.00    +0.000 C 
ENDBRANCH   6  27
TORSDOF 4
ENDMDL
MODEL 8
REMARK VINA RESULT:      -5.2     10.195     12.259
REMARK  Name = 
REMARK  6 active torsions:
REMARK  status: ('A' for Active; 'I' for Inactive)
REMARK    1  A    between atoms: C_1  and  O_2
REMARK    2  A    between atoms: O_2  and  C_3
REMARK    3  A    between atoms: C_8  and  O_9
REMARK    4  A    between atoms: O_9  and  C_10
REMARK    5  A    between atoms: C_13  and  N_14
REMARK    6  A    between atoms: C_15  and  N_16
REMARK                            x       y       z     vdW  Elec       q    Type
REMARK                         _______ _______ _______ _____ _____    ______ ____
ROOT
ATOM      1  C   UNL     1      -6.182  11.732  20.154  0.00  0.00    +0.000 A 
ATOM      2  C   UNL     1      -5.616  12.279  21.319  0.00  0.00    +0.000 A 
ATOM      3  C   UNL     1      -4.325  12.842  21.323  0.00  0.00    +0.000 A 
ATOM      4  C   UNL     1      -3.552  12.823  20.158  0.00  0.00    +0.000 A 
ATOM      5  C   UNL     1      -4.150  12.315  18.989  0.00  0.00    +0.000 A 
ATOM      6  C   UNL     1      -5.435  11.751  18.971  0.00  0.00    +0.000 A 
ATOM      7  C   UNL     1      -2.154  13.450  20.106  0.00  0.00    +0.000 C 
ATOM      8  C   UNL     1      -1.135  12.625  19.294  0.00  0.00    +0.000 C 
ATOM      9  C   UNL     1      -0.302  11.636  20.117  0.00  0.00    +0.000 C 
ATOM     10  C   UNL     1       0.451  12.428  21.226  0.00  0.00    +0.000 C 
ATOM     11  C   UNL     1      -0.624  13.126  22.102  0.00  0.00    +0.000 C 
ATOM     12  N   UNL     1      -1.614  13.947  21.391  0.00  0.00    +0.000 NA
ATOM     13  C   UNL     1      -2.654  14.458  22.291  0.00  0.00    +0.000 C 
ATOM     14  C   UNL     1      -3.768  13.443  22.585  0.00  0.00    +0.000 C 
ENDROOT
BRANCH  10  15
ATOM     15  N   UNL     1       1.495  13.281  20.595  0.00  0.00    +0.000 N 
ATOM     16  C   UNL     1       2.167  12.786  19.397  0.00  0.00    +0.000 C 
ATOM     17  C   UNL     1       2.158  13.831  18.295  0.00  0.00    +0.000 C 
ATOM     18  C   UNL     1       2.809  15.107  18.813  0.00  0.00    +0.000 C 
ATOM     19  C   UNL     1       2.153  15.570  20.106  0.00  0.00    +0.000 C 
ATOM     20  C   UNL     1       1.966  14.470  21.141  0.00  0.00    +0.000 C 
ATOM     21  O   UNL     1       2.106  14.691  22.337  0.00  0.00    +0.000 OA
ENDBRANCH  10  15
BRANCH   9  22
ATOM     22  N   UNL     1      -1.103  10.504  20.603  0.00  0.00    +0.000 NA
ATOM     23  H   UNL     1      -0.985  10.387  21.610  0.00  0.00    +0.000 HD
ATOM     24  H   UNL     1      -0.794   9.638  20.166  0.00  0.00    +0.000 HD
ENDBRANCH   9  22
BRANCH   1  26
ATOM     25  C   UNL     1      -7.493   9.762  20.458  0.00  0.00    +0.000 C 
ATOM     26  O   UNL     1      -7.420  11.147  20.138  0.00  0.00    +0.000 OA
ENDBRANCH   1  26
BRANCH   6  27
ATOM     27  O   UNL     1      -5.780  11.304  17.722  0.00  0.00    +0.000 OA
ATOM     28  C   UNL     1      -4.845  11.422  16.660  0.00  0.00    +0.000 C 
ENDBRANCH   6  27
TORSDOF 4
ENDMDL
MODEL 9
REMARK VINA RESULT:      -5.2      8.565     11.856
REMARK  Name = 
REMARK  6 active torsions:
REMARK  status: ('A' for Active; 'I' for Inactive)
REMARK    1  A    between atoms: C_1  and  O_2
REMARK    2  A    between atoms: O_2  and  C_3
REMARK    3  A    between atoms: C_8  and  O_9
REMARK    4  A    between atoms: O_9  and  C_10
REMARK    5  A    between atoms: C_13  and  N_14
REMARK    6  A    between atoms: C_15  and  N_16
REMARK                            x       y       z     vdW  Elec       q    Type
REMARK                         _______ _______ _______ _____ _____    ______ ____
ROOT
ATOM      1  C   UNL     1       2.695  15.369  18.169  0.00  0.00    +0.000 A 
ATOM      2  C   UNL     1       2.409  14.071  18.623  0.00  0.00    +0.000 A 
ATOM      3  C   UNL     1       1.256  13.787  19.382  0.00  0.00    +0.000 A 
ATOM      4  C   UNL     1       0.387  14.820  19.742  0.00  0.00    +0.000 A 
ATOM      5  C   UNL     1       0.662  16.107  19.240  0.00  0.00    +0.000 A 
ATOM      6  C   UNL     1       1.806  16.403  18.484  0.00  0.00    +0.000 A 
ATOM      7  C   UNL     1      -0.895  14.556  20.540  0.00  0.00    +0.000 C 
ATOM      8  C   UNL     1      -1.191  15.627  21.610  0.00  0.00    +0.000 C 
ATOM      9  C   UNL     1      -0.647  15.311  23.007  0.00  0.00    +0.000 C 
ATOM     10  C   UNL     1      -1.240  13.949  23.472  0.00  0.00    +0.000 C 
ATOM     11  C   UNL     1      -0.796  12.878  22.439  0.00  0.00    +0.000 C 
ATOM     12  N   UNL     1      -1.085  13.172  21.029  0.00  0.00    +0.000 NA
ATOM     13  C   UNL     1      -0.518  12.163  20.128  0.00  0.00    +0.000 C 
ATOM     14  C   UNL     1       0.972  12.377  19.824  0.00  0.00    +0.000 C 
ENDROOT
BRANCH  10  15
ATOM     15  N   UNL     1      -2.698  14.110  23.723  0.00  0.00    +0.000 N 
ATOM     16  C   UNL     1      -3.164  15.347  24.344  0.00  0.00    +0.000 C 
ATOM     17  C   UNL     1      -4.315  15.952  23.558  0.00  0.00    +0.000 C 
ATOM     18  C   UNL     1      -5.435  14.927  23.447  0.00  0.00    +0.000 C 
ATOM     19  C   UNL     1      -4.921  13.615  22.873  0.00  0.00    +0.000 C 
ATOM     20  C   UNL     1      -3.640  13.108  23.520  0.00  0.00    +0.000 C 
ATOM     21  O   UNL     1      -3.452  11.913  23.709  0.00  0.00    +0.000 OA
ENDBRANCH  10  15
BRANCH   9  22
ATOM     22  N   UNL     1       0.819  15.399  23.066  0.00  0.00    +0.000 NA
ATOM     23  H   UNL     1       1.176  14.893  23.878  0.00  0.00    +0.000 HD
ATOM     24  H   UNL     1       1.112  16.368  23.169  0.00  0.00    +0.000 HD
ENDBRANCH   9  22
BRANCH   1  26
ATOM     25  C   UNL     1       5.032  15.012  17.841  0.00  0.00    +0.000 C 
ATOM     26  O   UNL     1       3.829  15.673  17.463  0.00  0.00    +0.000 OA
ENDBRANCH   1  26
BRANCH   6  27
ATOM     27  O   UNL     1       1.862  17.728  18.137  0.00  0.00    +0.000 OA
ATOM     28  C   UNL     1       0.815  18.284  17.354  0.00  0.00    +0.000 C 
ENDBRANCH   6  27
TORSDOF 4
ENDMDL
