MODEL 1
REMARK VINA RESULT:      -8.2      0.000      0.000
REMARK  Name = 
REMARK  7 active torsions:
REMARK  status: ('A' for Active; 'I' for Inactive)
REMARK    1  A    between atoms: C_1  and  C_2
REMARK    2  A    between atoms: C_2  and  C_3
REMARK    3  A    between atoms: C_7  and  C_8
REMARK    4  A    between atoms: C_8  and  O_9
REMARK    5  A    between atoms: O_9  and  C_10
REMARK    6  A    between atoms: C_10  and  C_12
REMARK    7  A    between atoms: C_15  and  C_16
REMARK                            x       y       z     vdW  Elec       q    Type
REMARK                         _______ _______ _______ _____ _____    ______ ____
ROOT
ATOM      1  C   UNL     1       2.049   7.677  19.846  0.00  0.00    +0.000 C 
ENDROOT
BRANCH   1   6
ATOM      2  C   UNL     1       4.931   4.454  16.837  0.00  0.00    +0.000 A 
ATOM      3  C   UNL     1       4.644   5.823  16.785  0.00  0.00    +0.000 A 
ATOM      4  C   UNL     1       3.792   6.410  17.728  0.00  0.00    +0.000 A 
ATOM      5  C   UNL     1       3.203   5.643  18.739  0.00  0.00    +0.000 A 
ATOM      6  C   UNL     1       2.321   6.196  19.776  0.00  0.00    +0.000 A 
ATOM      7  C   UNL     1       1.772   5.350  20.659  0.00  0.00    +0.000 A 
ATOM      8  C   UNL     1       2.018   3.898  20.658  0.00  0.00    +0.000 A 
ATOM      9  O   UNL     1       1.457   3.166  21.465  0.00  0.00    +0.000 OA
ATOM     10  O   UNL     1       2.906   3.417  19.715  0.00  0.00    +0.000 OA
ATOM     11  C   UNL     1       3.481   4.275  18.758  0.00  0.00    +0.000 A 
ATOM     12  C   UNL     1       4.333   3.676  17.831  0.00  0.00    +0.000 A 
BRANCH   2  14
ATOM     13  C   UNL     1       5.648   4.447  14.442  0.00  0.00    +0.000 C 
ATOM     14  C   UNL     1       5.837   3.820  15.814  0.00  0.00    +0.000 C 
ENDBRANCH   2  14
ENDBRANCH   1   6
BRANCH   1  15
ATOM     15  O   UNL     1       1.152   7.995  20.920  0.00  0.00    +0.000 OA
BRANCH  15  16
ATOM     16  C   UNL     1       1.088   9.321  21.236  0.00  0.00    +0.000 C 
ATOM     17  O   UNL     1       1.536   9.800  22.269  0.00  0.00    +0.000 OA
BRANCH  16  18
ATOM     18  C   UNL     1       0.513  10.153  20.091  0.00  0.00    +0.000 C 
ATOM     19  C   UNL     1       1.349  11.415  19.886  0.00  0.00    +0.000 C 
ATOM     20  S   UNL     1       0.586  12.649  20.989  0.00  0.00    +0.000 S 
ATOM     21  C   UNL     1      -1.034  11.796  21.051  0.00  0.00    +0.000 C 
ATOM     22  C   UNL     1      -1.400  11.478  22.501  0.00  0.00    +0.000 C 
ATOM     23  C   UNL     1      -2.141  12.604  20.378  0.00  0.00    +0.000 C 
ATOM     24  C   UNL     1      -2.123  12.147  18.933  0.00  0.00    +0.000 C 
ATOM     25  C   UNL     1      -1.570  10.750  19.020  0.00  0.00    +0.000 C 
ATOM     26  O   UNL     1      -1.568   9.945  18.102  0.00  0.00    +0.000 OA
ATOM     27  N   UNL     1      -0.881  10.606  20.233  0.00  0.00    +0.000 N 
ENDBRANCH  16  18
ENDBRANCH  15  16
ENDBRANCH   1  15
TORSDOF 5
ENDMDL
MODEL 2
REMARK VINA RESULT:      -8.1      1.294      1.458
REMARK  Name = 
REMARK  7 active torsions:
REMARK  status: ('A' for Active; 'I' for Inactive)
REMARK    1  A    between atoms: C_1  and  C_2
REMARK    2  A    between atoms: C_2  and  C_3
REMARK    3  A    between atoms: C_7  and  C_8
REMARK    4  A    between atoms: C_8  and  O_9
REMARK    5  A    between atoms: O_9  and  C_10
REMARK    6  A    between atoms: C_10  and  C_12
REMARK    7  A    between atoms: C_15  and  C_16
REMARK                            x       y       z     vdW  Elec       q    Type
REMARK                         _______ _______ _______ _____ _____    ______ ____
ROOT
ATOM      1  C   UNL     1       2.452   6.704  19.835  0.00  0.00    +0.000 C 
ENDROOT
BRANCH   1   6
ATOM      2  C   UNL     1       5.633   4.957  16.018  0.00  0.00    +0.000 A 
ATOM      3  C   UNL     1       5.567   6.149  16.748  0.00  0.00    +0.000 A 
ATOM      4  C   UNL     1       4.560   6.349  17.699  0.00  0.00    +0.000 A 
ATOM      5  C   UNL     1       3.594   5.365  17.939  0.00  0.00    +0.000 A 
ATOM      6  C   UNL     1       2.526   5.495  18.940  0.00  0.00    +0.000 A 
ATOM      7  C   UNL     1       1.625   4.506  19.039  0.00  0.00    +0.000 A 
ATOM      8  C   UNL     1       1.658   3.288  18.211  0.00  0.00    +0.000 A 
ATOM      9  O   UNL     1       0.786   2.435  18.317  0.00  0.00    +0.000 OA
ATOM     10  O   UNL     1       2.714   3.163  17.329  0.00  0.00    +0.000 OA
ATOM     11  C   UNL     1       3.663   4.194  17.183  0.00  0.00    +0.000 A 
ATOM     12  C   UNL     1       4.663   3.976  16.236  0.00  0.00    +0.000 A 
BRANCH   2  14
ATOM     13  C   UNL     1       6.202   3.916  13.817  0.00  0.00    +0.000 C 
ATOM     14  C   UNL     1       6.708   4.749  14.983  0.00  0.00    +0.000 C 
ENDBRANCH   2  14
ENDBRANCH   1   6
BRANCH   1  15
ATOM     15  O   UNL     1       2.007   7.863  19.116  0.00  0.00    +0.000 OA
BRANCH  15  16
ATOM     16  C   UNL     1       1.326   8.776  19.869  0.00  0.00    +0.000 C 
ATOM     17  O   UNL     1       1.404   8.851  21.087  0.00  0.00    +0.000 OA
BRANCH  16  18
ATOM     18  C   UNL     1       0.562   9.774  19.001  0.00  0.00    +0.000 C 
ATOM     19  C   UNL     1       1.407  11.026  18.772  0.00  0.00    +0.000 C 
ATOM     20  S   UNL     1       0.986  12.119  20.169  0.00  0.00    +0.000 S 
ATOM     21  C   UNL     1      -0.629  11.316  20.491  0.00  0.00    +0.000 C 
ATOM     22  C   UNL     1      -0.681  10.812  21.934  0.00  0.00    +0.000 C 
ATOM     23  C   UNL     1      -1.806  12.242  20.198  0.00  0.00    +0.000 C 
ATOM     24  C   UNL     1      -2.138  11.989  18.741  0.00  0.00    +0.000 C 
ATOM     25  C   UNL     1      -1.666  10.578  18.520  0.00  0.00    +0.000 C 
ATOM     26  O   UNL     1      -1.918   9.907  17.531  0.00  0.00    +0.000 OA
ATOM     27  N   UNL     1      -0.734  10.246  19.515  0.00  0.00    +0.000 N 
ENDBRANCH  16  18
ENDBRANCH  15  16
ENDBRANCH   1  15
TORSDOF 5
ENDMDL
MODEL 3
REMARK VINA RESULT:      -8.0      1.349      2.083
REMARK  Name = 
REMARK  7 active torsions:
REMARK  status: ('A' for Active; 'I' for Inactive)
REMARK    1  A    between atoms: C_1  and  C_2
REMARK    2  A    between atoms: C_2  and  C_3
REMARK    3  A    between atoms: C_7  and  C_8
REMARK    4  A    between atoms: C_8  and  O_9
REMARK    5  A    between atoms: O_9  and  C_10
REMARK    6  A    between atoms: C_10  and  C_12
REMARK    7  A    between atoms: C_15  and  C_16
REMARK                            x       y       z     vdW  Elec       q    Type
REMARK                         _______ _______ _______ _____ _____    ______ ____
ROOT
ATOM      1  C   UNL     1       2.226   7.726  19.812  0.00  0.00    +0.000 C 
ENDROOT
BRANCH   1   6
ATOM      2  C   UNL     1       4.892   4.502  16.611  0.00  0.00    +0.000 A 
ATOM      3  C   UNL     1       4.758   5.893  16.686  0.00  0.00    +0.000 A 
ATOM      4  C   UNL     1       3.927   6.480  17.648  0.00  0.00    +0.000 A 
ATOM      5  C   UNL     1       3.207   5.691  18.552  0.00  0.00    +0.000 A 
ATOM      6  C   UNL     1       2.339   6.238  19.603  0.00  0.00    +0.000 A 
ATOM      7  C   UNL     1       1.656   5.379  20.374  0.00  0.00    +0.000 A 
ATOM      8  C   UNL     1       1.743   3.915  20.236  0.00  0.00    +0.000 A 
ATOM      9  O   UNL     1       1.066   3.178  20.942  0.00  0.00    +0.000 OA
ATOM     10  O   UNL     1       2.622   3.430  19.286  0.00  0.00    +0.000 OA
ATOM     11  C   UNL     1       3.335   4.305  18.444  0.00  0.00    +0.000 A 
ATOM     12  C   UNL     1       4.163   3.704  17.496  0.00  0.00    +0.000 A 
BRANCH   2  14
ATOM     13  C   UNL     1       6.967   4.756  15.239  0.00  0.00    +0.000 C 
ATOM     14  C   UNL     1       5.775   3.870  15.567  0.00  0.00    +0.000 C 
ENDBRANCH   2  14
ENDBRANCH   1   6
BRANCH   1  15
ATOM     15  O   UNL     1       1.514   8.355  18.735  0.00  0.00    +0.000 OA
BRANCH  15  16
ATOM     16  C   UNL     1       1.199   9.666  18.949  0.00  0.00    +0.000 C 
ATOM     17  O   UNL     1       1.709  10.598  18.344  0.00  0.00    +0.000 OA
BRANCH  16  18
ATOM     18  C   UNL     1       0.041   9.820  19.932  0.00  0.00    +0.000 C 
ATOM     19  C   UNL     1      -1.162  10.451  19.234  0.00  0.00    +0.000 C 
ATOM     20  S   UNL     1      -0.919  12.245  19.443  0.00  0.00    +0.000 S 
ATOM     21  C   UNL     1       0.169  12.067  20.906  0.00  0.00    +0.000 C 
ATOM     22  C   UNL     1       1.514  12.745  20.639  0.00  0.00    +0.000 C 
ATOM     23  C   UNL     1      -0.472  12.619  22.177  0.00  0.00    +0.000 C 
ATOM     24  C   UNL     1      -1.216  11.440  22.772  0.00  0.00    +0.000 C 
ATOM     25  C   UNL     1      -0.446  10.253  22.260  0.00  0.00    +0.000 C 
ATOM     26  O   UNL     1      -0.590   9.107  22.657  0.00  0.00    +0.000 OA
ATOM     27  N   UNL     1       0.291  10.638  21.131  0.00  0.00    +0.000 N 
ENDBRANCH  16  18
ENDBRANCH  15  16
ENDBRANCH   1  15
TORSDOF 5
ENDMDL
MODEL 4
REMARK VINA RESULT:      -7.9      1.704      2.463
REMARK  Name = 
REMARK  7 active torsions:
REMARK  status: ('A' for Active; 'I' for Inactive)
REMARK    1  A    between atoms: C_1  and  C_2
REMARK    2  A    between atoms: C_2  and  C_3
REMARK    3  A    between atoms: C_7  and  C_8
REMARK    4  A    between atoms: C_8  and  O_9
REMARK    5  A    between atoms: O_9  and  C_10
REMARK    6  A    between atoms: C_10  and  C_12
REMARK    7  A    between atoms: C_15  and  C_16
REMARK                            x       y       z     vdW  Elec       q    Type
REMARK                         _______ _______ _______ _____ _____    ______ ____
ROOT
ATOM      1  C   UNL     1       2.388   7.602  18.919  0.00  0.00    +0.000 C 
ENDROOT
BRANCH   1   6
ATOM      2  C   UNL     1       5.675   4.922  15.795  0.00  0.00    +0.000 A 
ATOM      3  C   UNL     1       5.513   6.282  16.084  0.00  0.00    +0.000 A 
ATOM      4  C   UNL     1       4.500   6.712  16.950  0.00  0.00    +0.000 A 
ATOM      5  C   UNL     1       3.624   5.794  17.541  0.00  0.00    +0.000 A 
ATOM      6  C   UNL     1       2.558   6.171  18.479  0.00  0.00    +0.000 A 
ATOM      7  C   UNL     1       1.745   5.207  18.937  0.00  0.00    +0.000 A 
ATOM      8  C   UNL     1       1.875   3.788  18.565  0.00  0.00    +0.000 A 
ATOM      9  O   UNL     1       1.080   2.955  18.983  0.00  0.00    +0.000 OA
ATOM     10  O   UNL     1       2.931   3.455  17.737  0.00  0.00    +0.000 OA
ATOM     11  C   UNL     1       3.787   4.446  17.220  0.00  0.00    +0.000 A 
ATOM     12  C   UNL     1       4.794   4.000  16.364  0.00  0.00    +0.000 A 
BRANCH   2  14
ATOM     13  C   UNL     1       6.166   3.854  13.588  0.00  0.00    +0.000 C 
ATOM     14  C   UNL     1       6.755   4.461  14.852  0.00  0.00    +0.000 C 
ENDBRANCH   2  14
ENDBRANCH   1   6
BRANCH   1  15
ATOM     15  O   UNL     1       2.181   8.474  17.798  0.00  0.00    +0.000 OA
BRANCH  15  16
ATOM     16  C   UNL     1       1.786   9.740  18.124  0.00  0.00    +0.000 C 
ATOM     17  O   UNL     1       2.238  10.752  17.608  0.00  0.00    +0.000 OA
BRANCH  16  18
ATOM     18  C   UNL     1       0.619   9.735  19.111  0.00  0.00    +0.000 C 
ATOM     19  C   UNL     1      -0.631  10.312  18.450  0.00  0.00    +0.000 C 
ATOM     20  S   UNL     1      -0.533  12.102  18.778  0.00  0.00    +0.000 S 
ATOM     21  C   UNL     1       0.567  11.915  20.232  0.00  0.00    +0.000 C 
ATOM     22  C   UNL     1       1.853  12.715  20.017  0.00  0.00    +0.000 C 
ATOM     23  C   UNL     1      -0.116  12.328  21.533  0.00  0.00    +0.000 C 
ATOM     24  C   UNL     1      -0.761  11.056  22.045  0.00  0.00    +0.000 C 
ATOM     25  C   UNL     1       0.101   9.971  21.460  0.00  0.00    +0.000 C 
ATOM     26  O   UNL     1       0.050   8.794  21.779  0.00  0.00    +0.000 OA
ATOM     27  N   UNL     1       0.804  10.489  20.362  0.00  0.00    +0.000 N 
ENDBRANCH  16  18
ENDBRANCH  15  16
ENDBRANCH   1  15
TORSDOF 5
ENDMDL
MODEL 5
REMARK VINA RESULT:      -7.9      3.041      8.555
REMARK  Name = 
REMARK  7 active torsions:
REMARK  status: ('A' for Active; 'I' for Inactive)
REMARK    1  A    between atoms: C_1  and  C_2
REMARK    2  A    between atoms: C_2  and  C_3
REMARK    3  A    between atoms: C_7  and  C_8
REMARK    4  A    between atoms: C_8  and  O_9
REMARK    5  A    between atoms: O_9  and  C_10
REMARK    6  A    between atoms: C_10  and  C_12
REMARK    7  A    between atoms: C_15  and  C_16
REMARK                            x       y       z     vdW  Elec       q    Type
REMARK                         _______ _______ _______ _____ _____    ______ ____
ROOT
ATOM      1  C   UNL     1       1.417   9.222  17.917  0.00  0.00    +0.000 C 
ENDROOT
BRANCH   1   6
ATOM      2  C   UNL     1      -3.537  10.982  17.600  0.00  0.00    +0.000 A 
ATOM      3  C   UNL     1      -2.749  10.168  16.780  0.00  0.00    +0.000 A 
ATOM      4  C   UNL     1      -1.416   9.896  17.113  0.00  0.00    +0.000 A 
ATOM      5  C   UNL     1      -0.841  10.436  18.268  0.00  0.00    +0.000 A 
ATOM      6  C   UNL     1       0.541  10.171  18.693  0.00  0.00    +0.000 A 
ATOM      7  C   UNL     1       0.997  10.792  19.791  0.00  0.00    +0.000 A 
ATOM      8  C   UNL     1       0.182  11.710  20.605  0.00  0.00    +0.000 A 
ATOM      9  O   UNL     1       0.663  12.280  21.578  0.00  0.00    +0.000 OA
ATOM     10  O   UNL     1      -1.134  11.883  20.221  0.00  0.00    +0.000 OA
ATOM     11  C   UNL     1      -1.636  11.266  19.059  0.00  0.00    +0.000 A 
ATOM     12  C   UNL     1      -2.967  11.542  18.746  0.00  0.00    +0.000 A 
BRANCH   2  14
ATOM     13  C   UNL     1      -5.597  12.257  18.220  0.00  0.00    +0.000 C 
ATOM     14  C   UNL     1      -4.966  11.287  17.233  0.00  0.00    +0.000 C 
ENDBRANCH   2  14
ENDBRANCH   1   6
BRANCH   1  15
ATOM     15  O   UNL     1       1.874   8.139  18.740  0.00  0.00    +0.000 OA
BRANCH  15  16
ATOM     16  C   UNL     1       2.782   7.313  18.143  0.00  0.00    +0.000 C 
ATOM     17  O   UNL     1       3.704   7.704  17.441  0.00  0.00    +0.000 OA
BRANCH  16  18
ATOM     18  C   UNL     1       2.591   5.857  18.563  0.00  0.00    +0.000 C 
ATOM     19  C   UNL     1       3.434   5.551  19.800  0.00  0.00    +0.000 C 
ATOM     20  S   UNL     1       5.040   5.008  19.130  0.00  0.00    +0.000 S 
ATOM     21  C   UNL     1       4.354   4.524  17.501  0.00  0.00    +0.000 C 
ATOM     22  C   UNL     1       5.073   5.286  16.387  0.00  0.00    +0.000 C 
ATOM     23  C   UNL     1       4.430   3.018  17.264  0.00  0.00    +0.000 C 
ATOM     24  C   UNL     1       3.123   2.479  17.809  0.00  0.00    +0.000 C 
ATOM     25  C   UNL     1       2.185   3.647  17.672  0.00  0.00    +0.000 C 
ATOM     26  O   UNL     1       0.974   3.586  17.815  0.00  0.00    +0.000 OA
ATOM     27  N   UNL     1       2.936   4.827  17.570  0.00  0.00    +0.000 N 
ENDBRANCH  16  18
ENDBRANCH  15  16
ENDBRANCH   1  15
TORSDOF 5
ENDMDL
MODEL 6
REMARK VINA RESULT:      -7.9      3.060      8.297
REMARK  Name = 
REMARK  7 active torsions:
REMARK  status: ('A' for Active; 'I' for Inactive)
REMARK    1  A    between atoms: C_1  and  C_2
REMARK    2  A    between atoms: C_2  and  C_3
REMARK    3  A    between atoms: C_7  and  C_8
REMARK    4  A    between atoms: C_8  and  O_9
REMARK    5  A    between atoms: O_9  and  C_10
REMARK    6  A    between atoms: C_10  and  C_12
REMARK    7  A    between atoms: C_15  and  C_16
REMARK                            x       y       z     vdW  Elec       q    Type
REMARK                         _______ _______ _______ _____ _____    ______ ____
ROOT
ATOM      1  C   UNL     1       1.425   8.893  18.098  0.00  0.00    +0.000 C 
ENDROOT
BRANCH   1   6
ATOM      2  C   UNL     1      -3.359  10.999  17.453  0.00  0.00    +0.000 A 
ATOM      3  C   UNL     1      -2.570  10.144  16.677  0.00  0.00    +0.000 A 
ATOM      4  C   UNL     1      -1.288   9.774  17.101  0.00  0.00    +0.000 A 
ATOM      5  C   UNL     1      -0.764  10.256  18.306  0.00  0.00    +0.000 A 
ATOM      6  C   UNL     1       0.561   9.889  18.826  0.00  0.00    +0.000 A 
ATOM      7  C   UNL     1       0.975  10.460  19.966  0.00  0.00    +0.000 A 
ATOM      8  C   UNL     1       0.167  11.421  20.736  0.00  0.00    +0.000 A 
ATOM      9  O   UNL     1       0.612  11.942  21.752  0.00  0.00    +0.000 OA
ATOM     10  O   UNL     1      -1.102  11.692  20.260  0.00  0.00    +0.000 OA
ATOM     11  C   UNL     1      -1.558  11.128  19.053  0.00  0.00    +0.000 A 
ATOM     12  C   UNL     1      -2.839  11.501  18.648  0.00  0.00    +0.000 A 
BRANCH   2  14
ATOM     13  C   UNL     1      -5.785  11.121  18.048  0.00  0.00    +0.000 C 
ATOM     14  C   UNL     1      -4.733  11.408  16.989  0.00  0.00    +0.000 C 
ENDBRANCH   2  14
ENDBRANCH   1   6
BRANCH   1  15
ATOM     15  O   UNL     1       1.913   7.876  18.984  0.00  0.00    +0.000 OA
BRANCH  15  16
ATOM     16  C   UNL     1       2.941   7.129  18.485  0.00  0.00    +0.000 C 
ATOM     17  O   UNL     1       3.585   7.432  17.490  0.00  0.00    +0.000 OA
BRANCH  16  18
ATOM     18  C   UNL     1       3.278   5.945  19.390  0.00  0.00    +0.000 C 
ATOM     19  C   UNL     1       4.574   5.282  18.929  0.00  0.00    +0.000 C 
ATOM     20  S   UNL     1       4.039   4.032  17.715  0.00  0.00    +0.000 S 
ATOM     21  C   UNL     1       2.332   3.923  18.374  0.00  0.00    +0.000 C 
ATOM     22  C   UNL     1       1.326   4.240  17.267  0.00  0.00    +0.000 C 
ATOM     23  C   UNL     1       2.038   2.562  19.000  0.00  0.00    +0.000 C 
ATOM     24  C   UNL     1       2.431   2.718  20.455  0.00  0.00    +0.000 C 
ATOM     25  C   UNL     1       2.256   4.192  20.703  0.00  0.00    +0.000 C 
ATOM     26  O   UNL     1       2.280   4.719  21.804  0.00  0.00    +0.000 OA
ATOM     27  N   UNL     1       2.278   4.868  19.474  0.00  0.00    +0.000 N 
ENDBRANCH  16  18
ENDBRANCH  15  16
ENDBRANCH   1  15
TORSDOF 5
ENDMDL
MODEL 7
REMARK VINA RESULT:      -7.9      2.007      2.573
REMARK  Name = 
REMARK  7 active torsions:
REMARK  status: ('A' for Active; 'I' for Inactive)
REMARK    1  A    between atoms: C_1  and  C_2
REMARK    2  A    between atoms: C_2  and  C_3
REMARK    3  A    between atoms: C_7  and  C_8
REMARK    4  A    between atoms: C_8  and  O_9
REMARK    5  A    between atoms: O_9  and  C_10
REMARK    6  A    between atoms: C_10  and  C_12
REMARK    7  A    between atoms: C_15  and  C_16
REMARK                            x       y       z     vdW  Elec       q    Type
REMARK                         _______ _______ _______ _____ _____    ______ ____
ROOT
ATOM      1  C   UNL     1       2.747   7.178  19.489  0.00  0.00    +0.000 C 
ENDROOT
BRANCH   1   6
ATOM      2  C   UNL     1       5.806   5.068  15.755  0.00  0.00    +0.000 A 
ATOM      3  C   UNL     1       5.806   6.299  16.420  0.00  0.00    +0.000 A 
ATOM      4  C   UNL     1       4.818   6.601  17.365  0.00  0.00    +0.000 A 
ATOM      5  C   UNL     1       3.804   5.682  17.661  0.00  0.00    +0.000 A 
ATOM      6  C   UNL     1       2.752   5.920  18.659  0.00  0.00    +0.000 A 
ATOM      7  C   UNL     1       1.803   4.985  18.815  0.00  0.00    +0.000 A 
ATOM      8  C   UNL     1       1.767   3.726  18.053  0.00  0.00    +0.000 A 
ATOM      9  O   UNL     1       0.853   2.925  18.209  0.00  0.00    +0.000 OA
ATOM     10  O   UNL     1       2.809   3.499  17.174  0.00  0.00    +0.000 OA
ATOM     11  C   UNL     1       3.808   4.470  16.969  0.00  0.00    +0.000 A 
ATOM     12  C   UNL     1       4.788   4.152  16.030  0.00  0.00    +0.000 A 
BRANCH   2  14
ATOM     13  C   UNL     1       6.288   3.940  13.576  0.00  0.00    +0.000 C 
ATOM     14  C   UNL     1       6.861   4.750  14.728  0.00  0.00    +0.000 C 
ENDBRANCH   2  14
ENDBRANCH   1   6
BRANCH   1  15
ATOM     15  O   UNL     1       1.577   7.969  19.235  0.00  0.00    +0.000 OA
BRANCH  15  16
ATOM     16  C   UNL     1       1.775   9.024  18.391  0.00  0.00    +0.000 C 
ATOM     17  O   UNL     1       2.050   8.908  17.204  0.00  0.00    +0.000 OA
BRANCH  16  18
ATOM     18  C   UNL     1       1.478  10.360  19.070  0.00  0.00    +0.000 C 
ATOM     19  C   UNL     1       0.908  10.125  20.467  0.00  0.00    +0.000 C 
ATOM     20  S   UNL     1      -0.892  10.007  20.209  0.00  0.00    +0.000 S 
ATOM     21  C   UNL     1      -0.865  10.931  18.626  0.00  0.00    +0.000 C 
ATOM     22  C   UNL     1      -1.475  10.077  17.515  0.00  0.00    +0.000 C 
ATOM     23  C   UNL     1      -1.578  12.277  18.728  0.00  0.00    +0.000 C 
ATOM     24  C   UNL     1      -0.495  13.252  19.145  0.00  0.00    +0.000 C 
ATOM     25  C   UNL     1       0.762  12.622  18.608  0.00  0.00    +0.000 C 
ATOM     26  O   UNL     1       1.849  13.175  18.554  0.00  0.00    +0.000 OA
ATOM     27  N   UNL     1       0.530  11.256  18.388  0.00  0.00    +0.000 N 
ENDBRANCH  16  18
ENDBRANCH  15  16
ENDBRANCH   1  15
TORSDOF 5
ENDMDL
MODEL 8
REMARK VINA RESULT:      -7.8      1.459      1.931
REMARK  Name = 
REMARK  7 active torsions:
REMARK  status: ('A' for Active; 'I' for Inactive)
REMARK    1  A    between atoms: C_1  and  C_2
REMARK    2  A    between atoms: C_2  and  C_3
REMARK    3  A    between atoms: C_7  and  C_8
REMARK    4  A    between atoms: C_8  and  O_9
REMARK    5  A    between atoms: O_9  and  C_10
REMARK    6  A    between atoms: C_10  and  C_12
REMARK    7  A    between atoms: C_15  and  C_16
REMARK                            x       y       z     vdW  Elec       q    Type
REMARK                         _______ _______ _______ _____ _____    ______ ____
ROOT
ATOM      1  C   UNL     1       2.206   7.529  20.448  0.00  0.00    +0.000 C 
ENDROOT
BRANCH   1   6
ATOM      2  C   UNL     1       4.649   5.090  16.469  0.00  0.00    +0.000 A 
ATOM      3  C   UNL     1       4.592   6.422  16.895  0.00  0.00    +0.000 A 
ATOM      4  C   UNL     1       3.807   6.787  17.995  0.00  0.00    +0.000 A 
ATOM      5  C   UNL     1       3.059   5.832  18.691  0.00  0.00    +0.000 A 
ATOM      6  C   UNL     1       2.236   6.138  19.870  0.00  0.00    +0.000 A 
ATOM      7  C   UNL     1       1.519   5.146  20.418  0.00  0.00    +0.000 A 
ATOM      8  C   UNL     1       1.526   3.762  19.915  0.00  0.00    +0.000 A 
ATOM      9  O   UNL     1       0.820   2.904  20.432  0.00  0.00    +0.000 OA
ATOM     10  O   UNL     1       2.363   3.490  18.850  0.00  0.00    +0.000 OA
ATOM     11  C   UNL     1       3.110   4.513  18.236  0.00  0.00    +0.000 A 
ATOM     12  C   UNL     1       3.891   4.132  17.145  0.00  0.00    +0.000 A 
BRANCH   2  14
ATOM     13  C   UNL     1       6.963   4.678  15.617  0.00  0.00    +0.000 C 
ATOM     14  C   UNL     1       5.482   4.701  15.276  0.00  0.00    +0.000 C 
ENDBRANCH   2  14
ENDBRANCH   1   6
BRANCH   1  15
ATOM     15  O   UNL     1       1.216   8.344  19.804  0.00  0.00    +0.000 OA
BRANCH  15  16
ATOM     16  C   UNL     1       0.494   9.138  20.648  0.00  0.00    +0.000 C 
ATOM     17  O   UNL     1      -0.223   8.711  21.542  0.00  0.00    +0.000 OA
BRANCH  16  18
ATOM     18  C   UNL     1       0.793  10.620  20.431  0.00  0.00    +0.000 C 
ATOM     19  C   UNL     1       0.062  11.463  21.475  0.00  0.00    +0.000 C 
ATOM     20  S   UNL     1      -1.559  11.815  20.721  0.00  0.00    +0.000 S 
ATOM     21  C   UNL     1      -0.974  11.548  19.005  0.00  0.00    +0.000 C 
ATOM     22  C   UNL     1      -1.814  10.461  18.332  0.00  0.00    +0.000 C 
ATOM     23  C   UNL     1      -0.989  12.832  18.180  0.00  0.00    +0.000 C 
ATOM     24  C   UNL     1       0.382  13.440  18.395  0.00  0.00    +0.000 C 
ATOM     25  C   UNL     1       1.245  12.246  18.700  0.00  0.00    +0.000 C 
ATOM     26  O   UNL     1       2.465  12.264  18.748  0.00  0.00    +0.000 OA
ATOM     27  N   UNL     1       0.427  11.187  19.122  0.00  0.00    +0.000 N 
ENDBRANCH  16  18
ENDBRANCH  15  16
ENDBRANCH   1  15
TORSDOF 5
ENDMDL
MODEL 9
REMARK VINA RESULT:      -7.8      1.571      2.578
REMARK  Name = 
REMARK  7 active torsions:
REMARK  status: ('A' for Active; 'I' for Inactive)
REMARK    1  A    between atoms: C_1  and  C_2
REMARK    2  A    between atoms: C_2  and  C_3
REMARK    3  A    between atoms: C_7  and  C_8
REMARK    4  A    between atoms: C_8  and  O_9
REMARK    5  A    between atoms: O_9  and  C_10
REMARK    6  A    between atoms: C_10  and  C_12
REMARK    7  A    between atoms: C_15  and  C_16
REMARK                            x       y       z     vdW  Elec       q    Type
REMARK                         _______ _______ _______ _____ _____    ______ ____
ROOT
ATOM      1  C   UNL     1       2.252   8.579  18.219  0.00  0.00    +0.000 C 
ENDROOT
BRANCH   1   6
ATOM      2  C   UNL     1       5.683   4.993  16.455  0.00  0.00    +0.000 A 
ATOM      3  C   UNL     1       5.235   6.223  15.962  0.00  0.00    +0.000 A 
ATOM      4  C   UNL     1       4.261   6.957  16.651  0.00  0.00    +0.000 A 
ATOM      5  C   UNL     1       3.710   6.475  17.843  0.00  0.00    +0.000 A 
ATOM      6  C   UNL     1       2.706   7.202  18.632  0.00  0.00    +0.000 A 
ATOM      7  C   UNL     1       2.212   6.612  19.730  0.00  0.00    +0.000 A 
ATOM      8  C   UNL     1       2.633   5.281  20.198  0.00  0.00    +0.000 A 
ATOM      9  O   UNL     1       2.118   4.772  21.187  0.00  0.00    +0.000 OA
ATOM     10  O   UNL     1       3.629   4.652  19.475  0.00  0.00    +0.000 OA
ATOM     11  C   UNL     1       4.152   5.234  18.305  0.00  0.00    +0.000 A 
ATOM     12  C   UNL     1       5.125   4.494  17.634  0.00  0.00    +0.000 A 
BRANCH   2  14
ATOM     13  C   UNL     1       6.328   4.009  14.249  0.00  0.00    +0.000 C 
ATOM     14  C   UNL     1       6.720   4.197  15.706  0.00  0.00    +0.000 C 
ENDBRANCH   2  14
ENDBRANCH   1   6
BRANCH   1  15
ATOM     15  O   UNL     1       1.413   9.175  19.219  0.00  0.00    +0.000 OA
BRANCH  15  16
ATOM     16  C   UNL     1       0.321   9.834  18.729  0.00  0.00    +0.000 C 
ATOM     17  O   UNL     1      -0.151   9.640  17.617  0.00  0.00    +0.000 OA
BRANCH  16  18
ATOM     18  C   UNL     1      -0.318  10.738  19.780  0.00  0.00    +0.000 C 
ATOM     19  C   UNL     1      -1.446  11.556  19.155  0.00  0.00    +0.000 C 
ATOM     20  S   UNL     1      -0.628  13.066  18.544  0.00  0.00    +0.000 S 
ATOM     21  C   UNL     1       0.800  12.919  19.683  0.00  0.00    +0.000 C 
ATOM     22  C   UNL     1       2.102  12.874  18.882  0.00  0.00    +0.000 C 
ATOM     23  C   UNL     1       0.838  14.044  20.715  0.00  0.00    +0.000 C 
ATOM     24  C   UNL     1       0.037  13.513  21.887  0.00  0.00    +0.000 C 
ATOM     25  C   UNL     1       0.193  12.022  21.764  0.00  0.00    +0.000 C 
ATOM     26  O   UNL     1      -0.134  11.215  22.621  0.00  0.00    +0.000 OA
ATOM     27  N   UNL     1       0.566  11.708  20.448  0.00  0.00    +0.000 N 
ENDBRANCH  16  18
ENDBRANCH  15  16
ENDBRANCH   1  15
TORSDOF 5
ENDMDL
