MODEL 1
REMARK VINA RESULT:      -7.0      0.000      0.000
REMARK  Name = 
REMARK  8 active torsions:
REMARK  status: ('A' for Active; 'I' for Inactive)
REMARK    1  A    between atoms: C_1  and  O_2
REMARK    2  A    between atoms: O_2  and  C_3
REMARK    3  A    between atoms: C_5  and  O_6
REMARK    4  A    between atoms: C_7  and  C_8
REMARK    5  A    between atoms: C_8  and  C_10
REMARK    6  A    between atoms: C_10  and  C_11
REMARK    7  A    between atoms: C_11  and  C_12
REMARK    8  A    between atoms: C_18  and  O_19
REMARK                            x       y       z     vdW  Elec       q    Type
REMARK                         _______ _______ _______ _____ _____    ______ ____
ROOT
ATOM      1  C   UNL     1       6.534   4.396  14.393  0.00  0.00    +0.000 A 
ATOM      2  C   UNL     1       5.812   3.456  15.119  0.00  0.00    +0.000 A 
ATOM      3  C   UNL     1       5.451   3.709  16.450  0.00  0.00    +0.000 A 
ATOM      4  C   UNL     1       5.821   4.902  17.116  0.00  0.00    +0.000 A 
ATOM      5  C   UNL     1       6.590   5.817  16.366  0.00  0.00    +0.000 A 
ATOM      6  C   UNL     1       6.934   5.564  15.025  0.00  0.00    +0.000 A 
ENDROOT
BRANCH   1   8
ATOM      7  C   UNL     1       5.820   3.354  12.396  0.00  0.00    +0.000 C 
ATOM      8  O   UNL     1       6.842   4.042  13.110  0.00  0.00    +0.000 OA
ENDBRANCH   1   8
BRANCH   3   9
ATOM      9  O   UNL     1       4.722   2.736  17.083  0.00  0.00    +0.000 OA
ATOM     10  H   UNL     1       4.166   3.119  17.780  0.00  0.00    +0.000 HD
ENDBRANCH   3   9
BRANCH   4  11
ATOM     11  C   UNL     1       5.394   5.098  18.570  0.00  0.00    +0.000 C 
ATOM     12  O   UNL     1       5.815   4.369  19.464  0.00  0.00    +0.000 OA
BRANCH  11  13
ATOM     13  C   UNL     1       4.417   6.200  18.918  0.00  0.00    +0.000 C 
BRANCH  13  14
ATOM     14  C   UNL     1       3.088   6.086  18.162  0.00  0.00    +0.000 C 
BRANCH  14  15
ATOM     15  C   UNL     1       2.239   4.993  18.769  0.00  0.00    +0.000 A 
ATOM     16  C   UNL     1       1.969   4.974  20.144  0.00  0.00    +0.000 A 
ATOM     17  C   UNL     1       1.224   3.935  20.706  0.00  0.00    +0.000 A 
ATOM     18  C   UNL     1       0.746   2.904  19.898  0.00  0.00    +0.000 A 
ATOM     19  C   UNL     1       1.011   2.911  18.531  0.00  0.00    +0.000 A 
ATOM     20  C   UNL     1       1.755   3.950  17.968  0.00  0.00    +0.000 A 
ENDBRANCH  14  15
ENDBRANCH  13  14
ENDBRANCH  11  13
ENDBRANCH   4  11
BRANCH   5  21
ATOM     21  O   UNL     1       7.144   6.989  16.810  0.00  0.00    +0.000 OA
ATOM     22  H   UNL     1       6.772   7.761  16.364  0.00  0.00    +0.000 HD
ENDBRANCH   5  21
TORSDOF 7
ENDMDL
MODEL 2
REMARK VINA RESULT:      -7.0      0.294      1.116
REMARK  Name = 
REMARK  8 active torsions:
REMARK  status: ('A' for Active; 'I' for Inactive)
REMARK    1  A    between atoms: C_1  and  O_2
REMARK    2  A    between atoms: O_2  and  C_3
REMARK    3  A    between atoms: C_5  and  O_6
REMARK    4  A    between atoms: C_7  and  C_8
REMARK    5  A    between atoms: C_8  and  C_10
REMARK    6  A    between atoms: C_10  and  C_11
REMARK    7  A    between atoms: C_11  and  C_12
REMARK    8  A    between atoms: C_18  and  O_19
REMARK                            x       y       z     vdW  Elec       q    Type
REMARK                         _______ _______ _______ _____ _____    ______ ____
ROOT
ATOM      1  C   UNL     1       6.619   4.458  14.197  0.00  0.00    +0.000 A 
ATOM      2  C   UNL     1       5.805   3.550  14.864  0.00  0.00    +0.000 A 
ATOM      3  C   UNL     1       5.503   3.727  16.222  0.00  0.00    +0.000 A 
ATOM      4  C   UNL     1       6.026   4.808  16.973  0.00  0.00    +0.000 A 
ATOM      5  C   UNL     1       6.882   5.689  16.278  0.00  0.00    +0.000 A 
ATOM      6  C   UNL     1       7.166   5.513  14.911  0.00  0.00    +0.000 A 
ENDROOT
BRANCH   1   8
ATOM      7  C   UNL     1       6.009   3.200  12.292  0.00  0.00    +0.000 C 
ATOM      8  O   UNL     1       6.856   4.182  12.881  0.00  0.00    +0.000 OA
ENDBRANCH   1   8
BRANCH   3   9
ATOM      9  O   UNL     1       4.679   2.795  16.795  0.00  0.00    +0.000 OA
ATOM     10  H   UNL     1       4.958   2.598  17.703  0.00  0.00    +0.000 HD
ENDBRANCH   3   9
BRANCH   4  11
ATOM     11  C   UNL     1       5.654   4.927  18.450  0.00  0.00    +0.000 C 
ATOM     12  O   UNL     1       6.066   4.121  19.280  0.00  0.00    +0.000 OA
BRANCH  11  13
ATOM     13  C   UNL     1       4.745   6.049  18.902  0.00  0.00    +0.000 C 
BRANCH  13  14
ATOM     14  C   UNL     1       3.381   6.037  18.203  0.00  0.00    +0.000 C 
BRANCH  14  15
ATOM     15  C   UNL     1       2.491   4.985  18.822  0.00  0.00    +0.000 A 
ATOM     16  C   UNL     1       1.822   4.050  18.021  0.00  0.00    +0.000 A 
ATOM     17  C   UNL     1       0.963   3.111  18.596  0.00  0.00    +0.000 A 
ATOM     18  C   UNL     1       0.764   3.100  19.976  0.00  0.00    +0.000 A 
ATOM     19  C   UNL     1       1.422   4.026  20.781  0.00  0.00    +0.000 A 
ATOM     20  C   UNL     1       2.281   4.966  20.208  0.00  0.00    +0.000 A 
ENDBRANCH  14  15
ENDBRANCH  13  14
ENDBRANCH  11  13
ENDBRANCH   4  11
BRANCH   5  21
ATOM     21  O   UNL     1       7.579   6.746  16.801  0.00  0.00    +0.000 OA
ATOM     22  H   UNL     1       7.820   6.604  17.725  0.00  0.00    +0.000 HD
ENDBRANCH   5  21
TORSDOF 7
ENDMDL
MODEL 3
REMARK VINA RESULT:      -6.8      0.480      1.932
REMARK  Name = 
REMARK  8 active torsions:
REMARK  status: ('A' for Active; 'I' for Inactive)
REMARK    1  A    between atoms: C_1  and  O_2
REMARK    2  A    between atoms: O_2  and  C_3
REMARK    3  A    between atoms: C_5  and  O_6
REMARK    4  A    between atoms: C_7  and  C_8
REMARK    5  A    between atoms: C_8  and  C_10
REMARK    6  A    between atoms: C_10  and  C_11
REMARK    7  A    between atoms: C_11  and  C_12
REMARK    8  A    between atoms: C_18  and  O_19
REMARK                            x       y       z     vdW  Elec       q    Type
REMARK                         _______ _______ _______ _____ _____    ______ ____
ROOT
ATOM      1  C   UNL     1       6.383   4.375  14.629  0.00  0.00    +0.000 A 
ATOM      2  C   UNL     1       6.563   5.673  15.094  0.00  0.00    +0.000 A 
ATOM      3  C   UNL     1       6.135   6.034  16.380  0.00  0.00    +0.000 A 
ATOM      4  C   UNL     1       5.486   5.117  17.241  0.00  0.00    +0.000 A 
ATOM      5  C   UNL     1       5.280   3.820  16.724  0.00  0.00    +0.000 A 
ATOM      6  C   UNL     1       5.729   3.461  15.439  0.00  0.00    +0.000 A 
ENDROOT
BRANCH   1   8
ATOM      7  C   UNL     1       5.942   3.395  12.524  0.00  0.00    +0.000 C 
ATOM      8  O   UNL     1       6.826   4.137  13.359  0.00  0.00    +0.000 OA
ENDBRANCH   1   8
BRANCH   3   9
ATOM      9  O   UNL     1       6.370   7.328  16.764  0.00  0.00    +0.000 OA
ATOM     10  H   UNL     1       5.588   7.882  16.609  0.00  0.00    +0.000 HD
ENDBRANCH   3   9
BRANCH   4  11
ATOM     11  C   UNL     1       5.045   5.591  18.625  0.00  0.00    +0.000 C 
ATOM     12  O   UNL     1       5.660   5.271  19.637  0.00  0.00    +0.000 OA
BRANCH  11  13
ATOM     13  C   UNL     1       3.811   6.459  18.756  0.00  0.00    +0.000 C 
BRANCH  13  14
ATOM     14  C   UNL     1       2.602   5.903  17.996  0.00  0.00    +0.000 C 
BRANCH  14  15
ATOM     15  C   UNL     1       1.965   4.782  18.785  0.00  0.00    +0.000 A 
ATOM     16  C   UNL     1       1.904   4.834  20.184  0.00  0.00    +0.000 A 
ATOM     17  C   UNL     1       1.358   3.772  20.909  0.00  0.00    +0.000 A 
ATOM     18  C   UNL     1       0.870   2.650  20.242  0.00  0.00    +0.000 A 
ATOM     19  C   UNL     1       0.928   2.587  18.851  0.00  0.00    +0.000 A 
ATOM     20  C   UNL     1       1.474   3.647  18.125  0.00  0.00    +0.000 A 
ENDBRANCH  14  15
ENDBRANCH  13  14
ENDBRANCH  11  13
ENDBRANCH   4  11
BRANCH   5  21
ATOM     21  O   UNL     1       4.601   2.791  17.321  0.00  0.00    +0.000 OA
ATOM     22  H   UNL     1       3.809   3.096  17.782  0.00  0.00    +0.000 HD
ENDBRANCH   5  21
TORSDOF 7
ENDMDL
MODEL 4
REMARK VINA RESULT:      -6.8      1.910      6.461
REMARK  Name = 
REMARK  8 active torsions:
REMARK  status: ('A' for Active; 'I' for Inactive)
REMARK    1  A    between atoms: C_1  and  O_2
REMARK    2  A    between atoms: O_2  and  C_3
REMARK    3  A    between atoms: C_5  and  O_6
REMARK    4  A    between atoms: C_7  and  C_8
REMARK    5  A    between atoms: C_8  and  C_10
REMARK    6  A    between atoms: C_10  and  C_11
REMARK    7  A    between atoms: C_11  and  C_12
REMARK    8  A    between atoms: C_18  and  O_19
REMARK                            x       y       z     vdW  Elec       q    Type
REMARK                         _______ _______ _______ _____ _____    ______ ____
ROOT
ATOM      1  C   UNL     1       2.213   4.395  20.295  0.00  0.00    +0.000 A 
ATOM      2  C   UNL     1       3.322   3.592  20.053  0.00  0.00    +0.000 A 
ATOM      3  C   UNL     1       4.371   4.051  19.244  0.00  0.00    +0.000 A 
ATOM      4  C   UNL     1       4.339   5.323  18.622  0.00  0.00    +0.000 A 
ATOM      5  C   UNL     1       3.182   6.096  18.852  0.00  0.00    +0.000 A 
ATOM      6  C   UNL     1       2.141   5.636  19.681  0.00  0.00    +0.000 A 
ENDROOT
BRANCH   1   8
ATOM      7  C   UNL     1       1.571   2.588  21.677  0.00  0.00    +0.000 C 
ATOM      8  O   UNL     1       1.247   3.844  21.088  0.00  0.00    +0.000 OA
ENDBRANCH   1   8
BRANCH   3   9
ATOM      9  O   UNL     1       5.433   3.202  19.075  0.00  0.00    +0.000 OA
ATOM     10  H   UNL     1       6.247   3.698  18.896  0.00  0.00    +0.000 HD
ENDBRANCH   3   9
BRANCH   4  11
ATOM     11  C   UNL     1       5.520   5.746  17.749  0.00  0.00    +0.000 C 
ATOM     12  O   UNL     1       6.587   6.099  18.243  0.00  0.00    +0.000 OA
BRANCH  11  13
ATOM     13  C   UNL     1       5.368   5.750  16.243  0.00  0.00    +0.000 C 
BRANCH  13  14
ATOM     14  C   UNL     1       5.297   4.341  15.642  0.00  0.00    +0.000 C 
BRANCH  14  15
ATOM     15  C   UNL     1       6.038   4.302  14.326  0.00  0.00    +0.000 A 
ATOM     16  C   UNL     1       7.167   5.106  14.114  0.00  0.00    +0.000 A 
ATOM     17  C   UNL     1       7.817   5.100  12.878  0.00  0.00    +0.000 A 
ATOM     18  C   UNL     1       7.346   4.293  11.845  0.00  0.00    +0.000 A 
ATOM     19  C   UNL     1       6.224   3.492  12.044  0.00  0.00    +0.000 A 
ATOM     20  C   UNL     1       5.572   3.496  13.278  0.00  0.00    +0.000 A 
ENDBRANCH  14  15
ENDBRANCH  13  14
ENDBRANCH  11  13
ENDBRANCH   4  11
BRANCH   5  21
ATOM     21  O   UNL     1       2.875   7.309  18.294  0.00  0.00    +0.000 OA
ATOM     22  H   UNL     1       2.763   7.253  17.337  0.00  0.00    +0.000 HD
ENDBRANCH   5  21
TORSDOF 7
ENDMDL
MODEL 5
REMARK VINA RESULT:      -6.7      0.571      2.225
REMARK  Name = 
REMARK  8 active torsions:
REMARK  status: ('A' for Active; 'I' for Inactive)
REMARK    1  A    between atoms: C_1  and  O_2
REMARK    2  A    between atoms: O_2  and  C_3
REMARK    3  A    between atoms: C_5  and  O_6
REMARK    4  A    between atoms: C_7  and  C_8
REMARK    5  A    between atoms: C_8  and  C_10
REMARK    6  A    between atoms: C_10  and  C_11
REMARK    7  A    between atoms: C_11  and  C_12
REMARK    8  A    between atoms: C_18  and  O_19
REMARK                            x       y       z     vdW  Elec       q    Type
REMARK                         _______ _______ _______ _____ _____    ______ ____
ROOT
ATOM      1  C   UNL     1       6.240   4.215  14.517  0.00  0.00    +0.000 A 
ATOM      2  C   UNL     1       6.397   5.539  14.910  0.00  0.00    +0.000 A 
ATOM      3  C   UNL     1       5.969   5.961  16.177  0.00  0.00    +0.000 A 
ATOM      4  C   UNL     1       5.342   5.080  17.091  0.00  0.00    +0.000 A 
ATOM      5  C   UNL     1       5.158   3.753  16.645  0.00  0.00    +0.000 A 
ATOM      6  C   UNL     1       5.607   3.333  15.379  0.00  0.00    +0.000 A 
ENDROOT
BRANCH   1   8
ATOM      7  C   UNL     1       5.707   3.371  12.375  0.00  0.00    +0.000 C 
ATOM      8  O   UNL     1       6.681   3.917  13.259  0.00  0.00    +0.000 OA
ENDBRANCH   1   8
BRANCH   3   9
ATOM      9  O   UNL     1       6.181   7.278  16.489  0.00  0.00    +0.000 OA
ATOM     10  H   UNL     1       5.839   7.858  15.790  0.00  0.00    +0.000 HD
ENDBRANCH   3   9
BRANCH   4  11
ATOM     11  C   UNL     1       4.898   5.620  18.449  0.00  0.00    +0.000 C 
ATOM     12  O   UNL     1       5.473   5.296  19.485  0.00  0.00    +0.000 OA
BRANCH  11  13
ATOM     13  C   UNL     1       3.714   6.559  18.527  0.00  0.00    +0.000 C 
BRANCH  13  14
ATOM     14  C   UNL     1       2.435   5.964  17.928  0.00  0.00    +0.000 C 
BRANCH  14  15
ATOM     15  C   UNL     1       1.954   4.809  18.775  0.00  0.00    +0.000 A 
ATOM     16  C   UNL     1       1.469   3.636  18.181  0.00  0.00    +0.000 A 
ATOM     17  C   UNL     1       0.982   2.591  18.969  0.00  0.00    +0.000 A 
ATOM     18  C   UNL     1       0.974   2.711  20.358  0.00  0.00    +0.000 A 
ATOM     19  C   UNL     1       1.451   3.873  20.959  0.00  0.00    +0.000 A 
ATOM     20  C   UNL     1       1.939   4.918  20.172  0.00  0.00    +0.000 A 
ENDBRANCH  14  15
ENDBRANCH  13  14
ENDBRANCH  11  13
ENDBRANCH   4  11
BRANCH   5  21
ATOM     21  O   UNL     1       4.502   2.746  17.302  0.00  0.00    +0.000 OA
ATOM     22  H   UNL     1       5.110   2.151  17.759  0.00  0.00    +0.000 HD
ENDBRANCH   5  21
TORSDOF 7
ENDMDL
MODEL 6
REMARK VINA RESULT:      -6.7      1.777      3.684
REMARK  Name = 
REMARK  8 active torsions:
REMARK  status: ('A' for Active; 'I' for Inactive)
REMARK    1  A    between atoms: C_1  and  O_2
REMARK    2  A    between atoms: O_2  and  C_3
REMARK    3  A    between atoms: C_5  and  O_6
REMARK    4  A    between atoms: C_7  and  C_8
REMARK    5  A    between atoms: C_8  and  C_10
REMARK    6  A    between atoms: C_10  and  C_11
REMARK    7  A    between atoms: C_11  and  C_12
REMARK    8  A    between atoms: C_18  and  O_19
REMARK                            x       y       z     vdW  Elec       q    Type
REMARK                         _______ _______ _______ _____ _____    ______ ____
ROOT
ATOM      1  C   UNL     1       7.508   6.797  18.236  0.00  0.00    +0.000 A 
ATOM      2  C   UNL     1       6.968   7.129  16.998  0.00  0.00    +0.000 A 
ATOM      3  C   UNL     1       6.035   6.285  16.380  0.00  0.00    +0.000 A 
ATOM      4  C   UNL     1       5.624   5.062  16.963  0.00  0.00    +0.000 A 
ATOM      5  C   UNL     1       6.223   4.733  18.199  0.00  0.00    +0.000 A 
ATOM      6  C   UNL     1       7.145   5.595  18.822  0.00  0.00    +0.000 A 
ENDROOT
BRANCH   1   8
ATOM      7  C   UNL     1       8.373   8.996  18.186  0.00  0.00    +0.000 C 
ATOM      8  O   UNL     1       8.416   7.685  18.741  0.00  0.00    +0.000 OA
ENDBRANCH   1   8
BRANCH   3   9
ATOM      9  O   UNL     1       5.540   6.698  15.171  0.00  0.00    +0.000 OA
ATOM     10  H   UNL     1       5.328   7.645  15.190  0.00  0.00    +0.000 HD
ENDBRANCH   3   9
BRANCH   4  11
ATOM     11  C   UNL     1       4.608   4.195  16.221  0.00  0.00    +0.000 C 
ATOM     12  O   UNL     1       4.869   3.696  15.130  0.00  0.00    +0.000 OA
BRANCH  11  13
ATOM     13  C   UNL     1       3.243   3.960  16.831  0.00  0.00    +0.000 C 
BRANCH  13  14
ATOM     14  C   UNL     1       2.872   5.000  17.894  0.00  0.00    +0.000 C 
BRANCH  14  15
ATOM     15  C   UNL     1       2.308   4.312  19.116  0.00  0.00    +0.000 A 
ATOM     16  C   UNL     1       2.708   4.694  20.404  0.00  0.00    +0.000 A 
ATOM     17  C   UNL     1       2.219   4.022  21.525  0.00  0.00    +0.000 A 
ATOM     18  C   UNL     1       1.327   2.962  21.370  0.00  0.00    +0.000 A 
ATOM     19  C   UNL     1       0.924   2.573  20.095  0.00  0.00    +0.000 A 
ATOM     20  C   UNL     1       1.412   3.244  18.972  0.00  0.00    +0.000 A 
ENDBRANCH  14  15
ENDBRANCH  13  14
ENDBRANCH  11  13
ENDBRANCH   4  11
BRANCH   5  21
ATOM     21  O   UNL     1       6.062   3.574  18.911  0.00  0.00    +0.000 OA
ATOM     22  H   UNL     1       6.107   3.722  19.865  0.00  0.00    +0.000 HD
ENDBRANCH   5  21
TORSDOF 7
ENDMDL
MODEL 7
REMARK VINA RESULT:      -6.6      1.820      3.849
REMARK  Name = 
REMARK  8 active torsions:
REMARK  status: ('A' for Active; 'I' for Inactive)
REMARK    1  A    between atoms: C_1  and  O_2
REMARK    2  A    between atoms: O_2  and  C_3
REMARK    3  A    between atoms: C_5  and  O_6
REMARK    4  A    between atoms: C_7  and  C_8
REMARK    5  A    between atoms: C_8  and  C_10
REMARK    6  A    between atoms: C_10  and  C_11
REMARK    7  A    between atoms: C_11  and  C_12
REMARK    8  A    between atoms: C_18  and  O_19
REMARK                            x       y       z     vdW  Elec       q    Type
REMARK                         _______ _______ _______ _____ _____    ______ ____
ROOT
ATOM      1  C   UNL     1       7.559   6.917  18.192  0.00  0.00    +0.000 A 
ATOM      2  C   UNL     1       6.984   7.250  16.971  0.00  0.00    +0.000 A 
ATOM      3  C   UNL     1       6.064   6.386  16.358  0.00  0.00    +0.000 A 
ATOM      4  C   UNL     1       5.704   5.143  16.931  0.00  0.00    +0.000 A 
ATOM      5  C   UNL     1       6.338   4.815  18.148  0.00  0.00    +0.000 A 
ATOM      6  C   UNL     1       7.246   5.695  18.766  0.00  0.00    +0.000 A 
ENDROOT
BRANCH   1   8
ATOM      7  C   UNL     1       8.354   9.142  18.160  0.00  0.00    +0.000 C 
ATOM      8  O   UNL     1       8.449   7.825  18.692  0.00  0.00    +0.000 OA
ENDBRANCH   1   8
BRANCH   3   9
ATOM      9  O   UNL     1       5.532   6.803  15.166  0.00  0.00    +0.000 OA
ATOM     10  H   UNL     1       5.997   6.394  14.419  0.00  0.00    +0.000 HD
ENDBRANCH   3   9
BRANCH   4  11
ATOM     11  C   UNL     1       4.700   4.256  16.196  0.00  0.00    +0.000 C 
ATOM     12  O   UNL     1       4.793   4.049  14.989  0.00  0.00    +0.000 OA
BRANCH  11  13
ATOM     13  C   UNL     1       3.554   3.633  16.964  0.00  0.00    +0.000 C 
BRANCH  13  14
ATOM     14  C   UNL     1       2.692   4.665  17.700  0.00  0.00    +0.000 C 
BRANCH  14  15
ATOM     15  C   UNL     1       2.262   4.118  19.041  0.00  0.00    +0.000 A 
ATOM     16  C   UNL     1       1.244   3.158  19.131  0.00  0.00    +0.000 A 
ATOM     17  C   UNL     1       0.818   2.692  20.376  0.00  0.00    +0.000 A 
ATOM     18  C   UNL     1       1.403   3.183  21.542  0.00  0.00    +0.000 A 
ATOM     19  C   UNL     1       2.413   4.139  21.464  0.00  0.00    +0.000 A 
ATOM     20  C   UNL     1       2.841   4.605  20.220  0.00  0.00    +0.000 A 
ENDBRANCH  14  15
ENDBRANCH  13  14
ENDBRANCH  11  13
ENDBRANCH   4  11
BRANCH   5  21
ATOM     21  O   UNL     1       6.228   3.640  18.846  0.00  0.00    +0.000 OA
ATOM     22  H   UNL     1       7.019   3.451  19.368  0.00  0.00    +0.000 HD
ENDBRANCH   5  21
TORSDOF 7
ENDMDL
MODEL 8
REMARK VINA RESULT:      -6.6      1.901      6.121
REMARK  Name = 
REMARK  8 active torsions:
REMARK  status: ('A' for Active; 'I' for Inactive)
REMARK    1  A    between atoms: C_1  and  O_2
REMARK    2  A    between atoms: O_2  and  C_3
REMARK    3  A    between atoms: C_5  and  O_6
REMARK    4  A    between atoms: C_7  and  C_8
REMARK    5  A    between atoms: C_8  and  C_10
REMARK    6  A    between atoms: C_10  and  C_11
REMARK    7  A    between atoms: C_11  and  C_12
REMARK    8  A    between atoms: C_18  and  O_19
REMARK                            x       y       z     vdW  Elec       q    Type
REMARK                         _______ _______ _______ _____ _____    ______ ____
ROOT
ATOM      1  C   UNL     1       2.184   4.374  19.327  0.00  0.00    +0.000 A 
ATOM      2  C   UNL     1       3.135   3.381  19.533  0.00  0.00    +0.000 A 
ATOM      3  C   UNL     1       4.481   3.607  19.210  0.00  0.00    +0.000 A 
ATOM      4  C   UNL     1       4.924   4.827  18.643  0.00  0.00    +0.000 A 
ATOM      5  C   UNL     1       3.928   5.798  18.407  0.00  0.00    +0.000 A 
ATOM      6  C   UNL     1       2.582   5.570  18.751  0.00  0.00    +0.000 A 
ENDROOT
BRANCH   1   8
ATOM      7  C   UNL     1       0.515   2.702  19.383  0.00  0.00    +0.000 C 
ATOM      8  O   UNL     1       0.903   4.043  19.665  0.00  0.00    +0.000 OA
ENDBRANCH   1   8
BRANCH   3   9
ATOM      9  O   UNL     1       5.353   2.581  19.464  0.00  0.00    +0.000 OA
ATOM     10  H   UNL     1       6.249   2.808  19.169  0.00  0.00    +0.000 HD
ENDBRANCH   3   9
BRANCH   4  11
ATOM     11  C   UNL     1       6.407   4.991  18.314  0.00  0.00    +0.000 C 
ATOM     12  O   UNL     1       7.246   5.139  19.197  0.00  0.00    +0.000 OA
BRANCH  11  13
ATOM     13  C   UNL     1       6.853   4.989  16.868  0.00  0.00    +0.000 C 
BRANCH  13  14
ATOM     14  C   UNL     1       5.776   4.472  15.906  0.00  0.00    +0.000 C 
BRANCH  14  15
ATOM     15  C   UNL     1       6.332   4.388  14.504  0.00  0.00    +0.000 A 
ATOM     16  C   UNL     1       7.425   5.176  14.116  0.00  0.00    +0.000 A 
ATOM     17  C   UNL     1       7.902   5.129  12.805  0.00  0.00    +0.000 A 
ATOM     18  C   UNL     1       7.290   4.296  11.869  0.00  0.00    +0.000 A 
ATOM     19  C   UNL     1       6.202   3.511  12.243  0.00  0.00    +0.000 A 
ATOM     20  C   UNL     1       5.724   3.557  13.554  0.00  0.00    +0.000 A 
ENDBRANCH  14  15
ENDBRANCH  13  14
ENDBRANCH  11  13
ENDBRANCH   4  11
BRANCH   5  21
ATOM     21  O   UNL     1       4.087   7.010  17.789  0.00  0.00    +0.000 OA
ATOM     22  H   UNL     1       4.494   7.666  18.370  0.00  0.00    +0.000 HD
ENDBRANCH   5  21
TORSDOF 7
ENDMDL
MODEL 9
REMARK VINA RESULT:      -6.5      1.922      3.729
REMARK  Name = 
REMARK  8 active torsions:
REMARK  status: ('A' for Active; 'I' for Inactive)
REMARK    1  A    between atoms: C_1  and  O_2
REMARK    2  A    between atoms: O_2  and  C_3
REMARK    3  A    between atoms: C_5  and  O_6
REMARK    4  A    between atoms: C_7  and  C_8
REMARK    5  A    between atoms: C_8  and  C_10
REMARK    6  A    between atoms: C_10  and  C_11
REMARK    7  A    between atoms: C_11  and  C_12
REMARK    8  A    between atoms: C_18  and  O_19
REMARK                            x       y       z     vdW  Elec       q    Type
REMARK                         _______ _______ _______ _____ _____    ______ ____
ROOT
ATOM      1  C   UNL     1       7.803   7.471  18.020  0.00  0.00    +0.000 A 
ATOM      2  C   UNL     1       8.024   6.146  18.379  0.00  0.00    +0.000 A 
ATOM      3  C   UNL     1       7.308   5.111  17.760  0.00  0.00    +0.000 A 
ATOM      4  C   UNL     1       6.322   5.364  16.775  0.00  0.00    +0.000 A 
ATOM      5  C   UNL     1       6.091   6.721  16.464  0.00  0.00    +0.000 A 
ATOM      6  C   UNL     1       6.827   7.753  17.077  0.00  0.00    +0.000 A 
ENDROOT
BRANCH   1   8
ATOM      7  C   UNL     1       8.482   9.728  18.191  0.00  0.00    +0.000 C 
ATOM      8  O   UNL     1       8.547   8.397  18.695  0.00  0.00    +0.000 OA
ENDBRANCH   1   8
BRANCH   3   9
ATOM      9  O   UNL     1       7.603   3.835  18.161  0.00  0.00    +0.000 OA
ATOM     10  H   UNL     1       8.329   3.834  18.805  0.00  0.00    +0.000 HD
ENDBRANCH   3   9
BRANCH   4  11
ATOM     11  C   UNL     1       5.581   4.181  16.154  0.00  0.00    +0.000 C 
ATOM     12  O   UNL     1       6.007   3.615  15.151  0.00  0.00    +0.000 OA
BRANCH  11  13
ATOM     13  C   UNL     1       4.284   3.707  16.773  0.00  0.00    +0.000 C 
BRANCH  13  14
ATOM     14  C   UNL     1       3.518   4.822  17.493  0.00  0.00    +0.000 C 
BRANCH  14  15
ATOM     15  C   UNL     1       2.537   4.226  18.476  0.00  0.00    +0.000 A 
ATOM     16  C   UNL     1       1.825   3.060  18.161  0.00  0.00    +0.000 A 
ATOM     17  C   UNL     1       0.885   2.542  19.053  0.00  0.00    +0.000 A 
ATOM     18  C   UNL     1       0.647   3.184  20.268  0.00  0.00    +0.000 A 
ATOM     19  C   UNL     1       1.348   4.344  20.590  0.00  0.00    +0.000 A 
ATOM     20  C   UNL     1       2.288   4.864  19.698  0.00  0.00    +0.000 A 
ENDBRANCH  14  15
ENDBRANCH  13  14
ENDBRANCH  11  13
ENDBRANCH   4  11
BRANCH   5  21
ATOM     21  O   UNL     1       5.135   7.223  15.621  0.00  0.00    +0.000 OA
ATOM     22  H   UNL     1       5.415   7.199  14.696  0.00  0.00    +0.000 HD
ENDBRANCH   5  21
TORSDOF 7
ENDMDL
