MODEL 1
REMARK VINA RESULT:      -8.6      0.000      0.000
REMARK  Name = 
REMARK  11 active torsions:
REMARK  status: ('A' for Active; 'I' for Inactive)
REMARK    1  A    between atoms: C_1  and  O_2
REMARK    2  A    between atoms: O_2  and  C_3
REMARK    3  A    between atoms: C_6  and  C_7
REMARK    4  A    between atoms: C_7  and  C_19
REMARK    5  A    between atoms: N_8  and  N_9
REMARK    6  A    between atoms: N_9  and  C_10
REMARK    7  A    between atoms: C_10  and  N_12
REMARK    8  A    between atoms: N_12  and  C_13
REMARK    9  A    between atoms: C_23  and  C_24
REMARK   10  A    between atoms: C_27  and  O_28
REMARK   11  A    between atoms: O_28  and  C_29
REMARK                            x       y       z     vdW  Elec       q    Type
REMARK                         _______ _______ _______ _____ _____    ______ ____
ROOT
ATOM      1  C   UNL     1       3.307   6.394  17.920  0.00  0.00    +0.000 C 
ATOM      2  N   UNL     1       4.246   6.718  17.075  0.00  0.00    +0.000 NA
ENDROOT
BRANCH   1   3
ATOM      3  C   UNL     1       2.915   4.983  18.295  0.00  0.00    +0.000 A 
ATOM      4  C   UNL     1       1.758   4.399  17.785  0.00  0.00    +0.000 A 
ATOM      5  C   UNL     1       1.466   3.081  18.124  0.00  0.00    +0.000 A 
ATOM      6  C   UNL     1       2.354   2.373  18.921  0.00  0.00    +0.000 A 
ATOM      7  C   UNL     1       3.511   3.006  19.367  0.00  0.00    +0.000 A 
ATOM      8  C   UNL     1       4.532   2.255  20.168  0.00  0.00    +0.000 C 
ATOM      9  N   UNL     1       3.798   4.301  19.075  0.00  0.00    +0.000 NA
ENDBRANCH   1   3
BRANCH   1  13
ATOM     10  C   UNL     1       0.952   9.699  19.355  0.00  0.00    +0.000 A 
ATOM     11  C   UNL     1       1.593   9.751  18.111  0.00  0.00    +0.000 A 
ATOM     12  C   UNL     1       2.355   8.675  17.662  0.00  0.00    +0.000 A 
ATOM     13  C   UNL     1       2.533   7.551  18.473  0.00  0.00    +0.000 A 
ATOM     14  C   UNL     1       2.022   7.566  19.772  0.00  0.00    +0.000 A 
ATOM     15  C   UNL     1       1.216   8.626  20.220  0.00  0.00    +0.000 A 
BRANCH  10  17
ATOM     16  C   UNL     1      -1.204  10.636  19.138  0.00  0.00    +0.000 C 
ATOM     17  O   UNL     1       0.093  10.695  19.734  0.00  0.00    +0.000 OA
ENDBRANCH  10  17
BRANCH  15  18
ATOM     18  O   UNL     1       0.765   8.412  21.496  0.00  0.00    +0.000 OA
ATOM     19  C   UNL     1       1.136   9.323  22.517  0.00  0.00    +0.000 C 
ENDBRANCH  15  18
ENDBRANCH   1  13
BRANCH   2  20
ATOM     20  N   UNL     1       5.077   5.761  16.615  0.00  0.00    +0.000 N 
ATOM     21  H   UNL     1       4.655   4.913  16.234  0.00  0.00    +0.000 HD
BRANCH  20  22
ATOM     22  C   UNL     1       6.445   5.867  16.709  0.00  0.00    +0.000 C 
ATOM     23  S   UNL     1       7.273   7.091  17.497  0.00  0.00    +0.000 S 
BRANCH  22  24
ATOM     24  N   UNL     1       7.158   4.922  16.013  0.00  0.00    +0.000 N 
ATOM     25  H   UNL     1       7.592   4.204  16.580  0.00  0.00    +0.000 HD
BRANCH  24  26
ATOM     26  C   UNL     1       7.096   4.678  14.626  0.00  0.00    +0.000 A 
ATOM     27  C   UNL     1       6.156   3.753  14.165  0.00  0.00    +0.000 A 
ATOM     28  C   UNL     1       6.051   3.490  12.797  0.00  0.00    +0.000 A 
ATOM     29  C   UNL     1       6.846   4.181  11.882  0.00  0.00    +0.000 A 
ATOM     30  C   UNL     1       7.755   5.136  12.337  0.00  0.00    +0.000 A 
ATOM     31  C   UNL     1       7.886   5.371  13.707  0.00  0.00    +0.000 A 
ENDBRANCH  24  26
ENDBRANCH  22  24
ENDBRANCH  20  22
ENDBRANCH   2  20
TORSDOF 8
ENDMDL
MODEL 2
REMARK VINA RESULT:      -8.2      0.848      1.892
REMARK  Name = 
REMARK  11 active torsions:
REMARK  status: ('A' for Active; 'I' for Inactive)
REMARK    1  A    between atoms: C_1  and  O_2
REMARK    2  A    between atoms: O_2  and  C_3
REMARK    3  A    between atoms: C_6  and  C_7
REMARK    4  A    between atoms: C_7  and  C_19
REMARK    5  A    between atoms: N_8  and  N_9
REMARK    6  A    between atoms: N_9  and  C_10
REMARK    7  A    between atoms: C_10  and  N_12
REMARK    8  A    between atoms: N_12  and  C_13
REMARK    9  A    between atoms: C_23  and  C_24
REMARK   10  A    between atoms: C_27  and  O_28
REMARK   11  A    between atoms: O_28  and  C_29
REMARK                            x       y       z     vdW  Elec       q    Type
REMARK                         _______ _______ _______ _____ _____    ______ ____
ROOT
ATOM      1  C   UNL     1       3.303   6.164  18.231  0.00  0.00    +0.000 C 
ATOM      2  N   UNL     1       4.209   6.592  17.396  0.00  0.00    +0.000 NA
ENDROOT
BRANCH   1   3
ATOM      3  C   UNL     1       2.977   4.713  18.502  0.00  0.00    +0.000 A 
ATOM      4  C   UNL     1       1.893   4.093  17.886  0.00  0.00    +0.000 A 
ATOM      5  C   UNL     1       1.663   2.743  18.132  0.00  0.00    +0.000 A 
ATOM      6  C   UNL     1       2.542   2.042  18.947  0.00  0.00    +0.000 A 
ATOM      7  C   UNL     1       3.627   2.715  19.502  0.00  0.00    +0.000 A 
ATOM      8  C   UNL     1       4.641   1.980  20.327  0.00  0.00    +0.000 C 
ATOM      9  N   UNL     1       3.850   4.040  19.301  0.00  0.00    +0.000 NA
ENDBRANCH   1   3
BRANCH   1  13
ATOM     10  C   UNL     1       1.122   9.270  20.262  0.00  0.00    +0.000 A 
ATOM     11  C   UNL     1       1.328   8.019  20.857  0.00  0.00    +0.000 A 
ATOM     12  C   UNL     1       2.032   7.023  20.187  0.00  0.00    +0.000 A 
ATOM     13  C   UNL     1       2.495   7.242  18.887  0.00  0.00    +0.000 A 
ATOM     14  C   UNL     1       2.155   8.431  18.238  0.00  0.00    +0.000 A 
ATOM     15  C   UNL     1       1.484   9.459  18.919  0.00  0.00    +0.000 A 
BRANCH  10  17
ATOM     16  C   UNL     1      -0.223   9.885  22.102  0.00  0.00    +0.000 C 
ATOM     17  O   UNL     1       0.553  10.291  20.973  0.00  0.00    +0.000 OA
ENDBRANCH  10  17
BRANCH  15  18
ATOM     18  O   UNL     1       1.308  10.560  18.123  0.00  0.00    +0.000 OA
ATOM     19  C   UNL     1       2.102  11.711  18.356  0.00  0.00    +0.000 C 
ENDBRANCH  15  18
ENDBRANCH   1  13
BRANCH   2  20
ATOM     20  N   UNL     1       5.068   5.709  16.847  0.00  0.00    +0.000 N 
ATOM     21  H   UNL     1       4.687   4.819  16.522  0.00  0.00    +0.000 HD
BRANCH  20  22
ATOM     22  C   UNL     1       6.422   5.942  16.781  0.00  0.00    +0.000 C 
ATOM     23  S   UNL     1       7.209   7.278  17.415  0.00  0.00    +0.000 S 
BRANCH  22  24
ATOM     24  N   UNL     1       7.142   5.028  16.052  0.00  0.00    +0.000 N 
ATOM     25  H   UNL     1       7.666   4.356  16.600  0.00  0.00    +0.000 HD
BRANCH  24  26
ATOM     26  C   UNL     1       6.992   4.744  14.680  0.00  0.00    +0.000 A 
ATOM     27  C   UNL     1       7.842   5.395  13.780  0.00  0.00    +0.000 A 
ATOM     28  C   UNL     1       7.737   5.135  12.412  0.00  0.00    +0.000 A 
ATOM     29  C   UNL     1       6.822   4.192  11.941  0.00  0.00    +0.000 A 
ATOM     30  C   UNL     1       6.004   3.511  12.841  0.00  0.00    +0.000 A 
ATOM     31  C   UNL     1       6.082   3.799  14.205  0.00  0.00    +0.000 A 
ENDBRANCH  24  26
ENDBRANCH  22  24
ENDBRANCH  20  22
ENDBRANCH   2  20
TORSDOF 8
ENDMDL
MODEL 3
REMARK VINA RESULT:      -8.1      3.339      7.921
REMARK  Name = 
REMARK  11 active torsions:
REMARK  status: ('A' for Active; 'I' for Inactive)
REMARK    1  A    between atoms: C_1  and  O_2
REMARK    2  A    between atoms: O_2  and  C_3
REMARK    3  A    between atoms: C_6  and  C_7
REMARK    4  A    between atoms: C_7  and  C_19
REMARK    5  A    between atoms: N_8  and  N_9
REMARK    6  A    between atoms: N_9  and  C_10
REMARK    7  A    between atoms: C_10  and  N_12
REMARK    8  A    between atoms: N_12  and  C_13
REMARK    9  A    between atoms: C_23  and  C_24
REMARK   10  A    between atoms: C_27  and  O_28
REMARK   11  A    between atoms: O_28  and  C_29
REMARK                            x       y       z     vdW  Elec       q    Type
REMARK                         _______ _______ _______ _____ _____    ______ ____
ROOT
ATOM      1  C   UNL     1       3.294   6.238  18.074  0.00  0.00    +0.000 C 
ATOM      2  N   UNL     1       3.093   7.512  18.272  0.00  0.00    +0.000 NA
ENDROOT
BRANCH   1   3
ATOM      3  C   UNL     1       2.436   5.120  18.622  0.00  0.00    +0.000 A 
ATOM      4  C   UNL     1       1.578   4.402  17.792  0.00  0.00    +0.000 A 
ATOM      5  C   UNL     1       0.844   3.352  18.335  0.00  0.00    +0.000 A 
ATOM      6  C   UNL     1       1.017   3.022  19.672  0.00  0.00    +0.000 A 
ATOM      7  C   UNL     1       1.919   3.758  20.435  0.00  0.00    +0.000 A 
ATOM      8  C   UNL     1       2.191   3.388  21.863  0.00  0.00    +0.000 C 
ATOM      9  N   UNL     1       2.620   4.807  19.933  0.00  0.00    +0.000 NA
ENDBRANCH   1   3
BRANCH   1  13
ATOM     10  C   UNL     1       6.755   5.329  15.682  0.00  0.00    +0.000 A 
ATOM     11  C   UNL     1       5.606   4.530  15.630  0.00  0.00    +0.000 A 
ATOM     12  C   UNL     1       4.495   4.834  16.412  0.00  0.00    +0.000 A 
ATOM     13  C   UNL     1       4.535   5.911  17.302  0.00  0.00    +0.000 A 
ATOM     14  C   UNL     1       5.732   6.611  17.465  0.00  0.00    +0.000 A 
ATOM     15  C   UNL     1       6.844   6.341  16.651  0.00  0.00    +0.000 A 
BRANCH  10  17
ATOM     16  C   UNL     1       7.411   4.957  13.445  0.00  0.00    +0.000 C 
ATOM     17  O   UNL     1       7.791   5.113  14.814  0.00  0.00    +0.000 OA
ENDBRANCH  10  17
BRANCH  15  18
ATOM     18  O   UNL     1       7.889   7.182  16.929  0.00  0.00    +0.000 OA
ATOM     19  C   UNL     1       7.632   8.391  17.623  0.00  0.00    +0.000 C 
ENDBRANCH  15  18
ENDBRANCH   1  13
BRANCH   2  20
ATOM     20  N   UNL     1       1.944   7.915  18.851  0.00  0.00    +0.000 N 
ATOM     21  H   UNL     1       1.415   7.222  19.383  0.00  0.00    +0.000 HD
BRANCH  20  22
ATOM     22  C   UNL     1       1.444   9.186  18.687  0.00  0.00    +0.000 C 
ATOM     23  S   UNL     1       2.275  10.479  18.021  0.00  0.00    +0.000 S 
BRANCH  22  24
ATOM     24  N   UNL     1       0.189   9.396  19.204  0.00  0.00    +0.000 N 
ATOM     25  H   UNL     1      -0.573   9.019  18.654  0.00  0.00    +0.000 HD
BRANCH  24  26
ATOM     26  C   UNL     1      -0.120   9.794  20.520  0.00  0.00    +0.000 A 
ATOM     27  C   UNL     1      -0.586  11.098  20.717  0.00  0.00    +0.000 A 
ATOM     28  C   UNL     1      -0.917  11.532  22.003  0.00  0.00    +0.000 A 
ATOM     29  C   UNL     1      -0.831  10.657  23.087  0.00  0.00    +0.000 A 
ATOM     30  C   UNL     1      -0.407   9.344  22.886  0.00  0.00    +0.000 A 
ATOM     31  C   UNL     1      -0.041   8.922  21.606  0.00  0.00    +0.000 A 
ENDBRANCH  24  26
ENDBRANCH  22  24
ENDBRANCH  20  22
ENDBRANCH   2  20
TORSDOF 8
ENDMDL
MODEL 4
REMARK VINA RESULT:      -8.1      3.326      7.423
REMARK  Name = 
REMARK  11 active torsions:
REMARK  status: ('A' for Active; 'I' for Inactive)
REMARK    1  A    between atoms: C_1  and  O_2
REMARK    2  A    between atoms: O_2  and  C_3
REMARK    3  A    between atoms: C_6  and  C_7
REMARK    4  A    between atoms: C_7  and  C_19
REMARK    5  A    between atoms: N_8  and  N_9
REMARK    6  A    between atoms: N_9  and  C_10
REMARK    7  A    between atoms: C_10  and  N_12
REMARK    8  A    between atoms: N_12  and  C_13
REMARK    9  A    between atoms: C_23  and  C_24
REMARK   10  A    between atoms: C_27  and  O_28
REMARK   11  A    between atoms: O_28  and  C_29
REMARK                            x       y       z     vdW  Elec       q    Type
REMARK                         _______ _______ _______ _____ _____    ______ ____
ROOT
ATOM      1  C   UNL     1       3.177   5.917  18.369  0.00  0.00    +0.000 C 
ATOM      2  N   UNL     1       2.915   7.153  18.693  0.00  0.00    +0.000 NA
ENDROOT
BRANCH   1   3
ATOM      3  C   UNL     1       2.392   4.707  18.823  0.00  0.00    +0.000 A 
ATOM      4  C   UNL     1       1.573   4.009  17.937  0.00  0.00    +0.000 A 
ATOM      5  C   UNL     1       0.909   2.874  18.392  0.00  0.00    +0.000 A 
ATOM      6  C   UNL     1       1.111   2.445  19.696  0.00  0.00    +0.000 A 
ATOM      7  C   UNL     1       1.972   3.169  20.517  0.00  0.00    +0.000 A 
ATOM      8  C   UNL     1       2.276   2.698  21.908  0.00  0.00    +0.000 C 
ATOM      9  N   UNL     1       2.604   4.297  20.103  0.00  0.00    +0.000 NA
ENDBRANCH   1   3
BRANCH   1  13
ATOM     10  C   UNL     1       6.613   5.375  15.834  0.00  0.00    +0.000 A 
ATOM     11  C   UNL     1       5.649   4.369  15.975  0.00  0.00    +0.000 A 
ATOM     12  C   UNL     1       4.545   4.557  16.802  0.00  0.00    +0.000 A 
ATOM     13  C   UNL     1       4.414   5.733  17.544  0.00  0.00    +0.000 A 
ATOM     14  C   UNL     1       5.451   6.667  17.522  0.00  0.00    +0.000 A 
ATOM     15  C   UNL     1       6.548   6.509  16.659  0.00  0.00    +0.000 A 
BRANCH  10  17
ATOM     16  C   UNL     1       7.211   4.799  13.624  0.00  0.00    +0.000 C 
ATOM     17  O   UNL     1       7.621   5.245  14.918  0.00  0.00    +0.000 OA
ENDBRANCH  10  17
BRANCH  15  18
ATOM     18  O   UNL     1       7.415   7.566  16.744  0.00  0.00    +0.000 OA
ATOM     19  C   UNL     1       7.937   7.926  18.012  0.00  0.00    +0.000 C 
ENDBRANCH  15  18
ENDBRANCH   1  13
BRANCH   2  20
ATOM     20  N   UNL     1       1.760   7.436  19.331  0.00  0.00    +0.000 N 
ATOM     21  H   UNL     1       1.050   6.704  19.368  0.00  0.00    +0.000 HD
BRANCH  20  22
ATOM     22  C   UNL     1       1.496   8.679  19.857  0.00  0.00    +0.000 C 
ATOM     23  S   UNL     1       1.196   9.007  21.472  0.00  0.00    +0.000 S 
BRANCH  22  24
ATOM     24  N   UNL     1       1.391   9.696  18.940  0.00  0.00    +0.000 N 
ATOM     25  H   UNL     1       2.211   9.845  18.365  0.00  0.00    +0.000 HD
BRANCH  24  26
ATOM     26  C   UNL     1       0.203  10.326  18.520  0.00  0.00    +0.000 A 
ATOM     27  C   UNL     1       0.040  11.682  18.819  0.00  0.00    +0.000 A 
ATOM     28  C   UNL     1      -1.117  12.351  18.411  0.00  0.00    +0.000 A 
ATOM     29  C   UNL     1      -2.090  11.686  17.663  0.00  0.00    +0.000 A 
ATOM     30  C   UNL     1      -1.909  10.345  17.327  0.00  0.00    +0.000 A 
ATOM     31  C   UNL     1      -0.771   9.667  17.768  0.00  0.00    +0.000 A 
ENDBRANCH  24  26
ENDBRANCH  22  24
ENDBRANCH  20  22
ENDBRANCH   2  20
TORSDOF 8
ENDMDL
MODEL 5
REMARK VINA RESULT:      -8.0      0.701      1.133
REMARK  Name = 
REMARK  11 active torsions:
REMARK  status: ('A' for Active; 'I' for Inactive)
REMARK    1  A    between atoms: C_1  and  O_2
REMARK    2  A    between atoms: O_2  and  C_3
REMARK    3  A    between atoms: C_6  and  C_7
REMARK    4  A    between atoms: C_7  and  C_19
REMARK    5  A    between atoms: N_8  and  N_9
REMARK    6  A    between atoms: N_9  and  C_10
REMARK    7  A    between atoms: C_10  and  N_12
REMARK    8  A    between atoms: N_12  and  C_13
REMARK    9  A    between atoms: C_23  and  C_24
REMARK   10  A    between atoms: C_27  and  O_28
REMARK   11  A    between atoms: O_28  and  C_29
REMARK                            x       y       z     vdW  Elec       q    Type
REMARK                         _______ _______ _______ _____ _____    ______ ____
ROOT
ATOM      1  C   UNL     1       3.060   6.275  18.242  0.00  0.00    +0.000 C 
ATOM      2  N   UNL     1       4.087   6.474  17.464  0.00  0.00    +0.000 NA
ENDROOT
BRANCH   1   3
ATOM      3  C   UNL     1       2.495   4.923  18.618  0.00  0.00    +0.000 A 
ATOM      4  C   UNL     1       1.880   4.113  17.666  0.00  0.00    +0.000 A 
ATOM      5  C   UNL     1       1.419   2.858  18.051  0.00  0.00    +0.000 A 
ATOM      6  C   UNL     1       1.621   2.432  19.357  0.00  0.00    +0.000 A 
ATOM      7  C   UNL     1       2.276   3.278  20.247  0.00  0.00    +0.000 A 
ATOM      8  C   UNL     1       2.581   2.827  21.645  0.00  0.00    +0.000 C 
ATOM      9  N   UNL     1       2.704   4.519  19.900  0.00  0.00    +0.000 NA
ENDBRANCH   1   3
BRANCH   1  13
ATOM     10  C   UNL     1       0.964   9.843  19.427  0.00  0.00    +0.000 A 
ATOM     11  C   UNL     1       1.655   9.777  18.210  0.00  0.00    +0.000 A 
ATOM     12  C   UNL     1       2.332   8.617  17.842  0.00  0.00    +0.000 A 
ATOM     13  C   UNL     1       2.375   7.522  18.709  0.00  0.00    +0.000 A 
ATOM     14  C   UNL     1       1.817   7.645  19.983  0.00  0.00    +0.000 A 
ATOM     15  C   UNL     1       1.094   8.793  20.349  0.00  0.00    +0.000 A 
BRANCH  10  17
ATOM     16  C   UNL     1      -1.144  10.882  19.203  0.00  0.00    +0.000 C 
ATOM     17  O   UNL     1       0.186  10.928  19.724  0.00  0.00    +0.000 OA
ENDBRANCH  10  17
BRANCH  15  18
ATOM     18  O   UNL     1       0.576   8.682  21.612  0.00  0.00    +0.000 OA
ATOM     19  C   UNL     1       1.164   9.430  22.663  0.00  0.00    +0.000 C 
ENDBRANCH  15  18
ENDBRANCH   1  13
BRANCH   2  20
ATOM     20  N   UNL     1       4.844   5.422  17.089  0.00  0.00    +0.000 N 
ATOM     21  H   UNL     1       4.383   4.515  17.005  0.00  0.00    +0.000 HD
BRANCH  20  22
ATOM     22  C   UNL     1       6.201   5.526  16.892  0.00  0.00    +0.000 C 
ATOM     23  S   UNL     1       7.163   6.800  17.399  0.00  0.00    +0.000 S 
BRANCH  22  24
ATOM     24  N   UNL     1       6.764   4.526  16.136  0.00  0.00    +0.000 N 
ATOM     25  H   UNL     1       6.977   3.673  16.639  0.00  0.00    +0.000 HD
BRANCH  24  26
ATOM     26  C   UNL     1       6.791   4.453  14.729  0.00  0.00    +0.000 A 
ATOM     27  C   UNL     1       7.730   5.236  14.051  0.00  0.00    +0.000 A 
ATOM     28  C   UNL     1       7.801   5.186  12.657  0.00  0.00    +0.000 A 
ATOM     29  C   UNL     1       6.973   4.321  11.938  0.00  0.00    +0.000 A 
ATOM     30  C   UNL     1       6.067   3.508  12.616  0.00  0.00    +0.000 A 
ATOM     31  C   UNL     1       5.969   3.586  14.007  0.00  0.00    +0.000 A 
ENDBRANCH  24  26
ENDBRANCH  22  24
ENDBRANCH  20  22
ENDBRANCH   2  20
TORSDOF 8
ENDMDL
MODEL 6
REMARK VINA RESULT:      -7.9      0.767      1.327
REMARK  Name = 
REMARK  11 active torsions:
REMARK  status: ('A' for Active; 'I' for Inactive)
REMARK    1  A    between atoms: C_1  and  O_2
REMARK    2  A    between atoms: O_2  and  C_3
REMARK    3  A    between atoms: C_6  and  C_7
REMARK    4  A    between atoms: C_7  and  C_19
REMARK    5  A    between atoms: N_8  and  N_9
REMARK    6  A    between atoms: N_9  and  C_10
REMARK    7  A    between atoms: C_10  and  N_12
REMARK    8  A    between atoms: N_12  and  C_13
REMARK    9  A    between atoms: C_23  and  C_24
REMARK   10  A    between atoms: C_27  and  O_28
REMARK   11  A    between atoms: O_28  and  C_29
REMARK                            x       y       z     vdW  Elec       q    Type
REMARK                         _______ _______ _______ _____ _____    ______ ____
ROOT
ATOM      1  C   UNL     1       3.649   6.407  17.849  0.00  0.00    +0.000 C 
ATOM      2  N   UNL     1       4.402   6.766  16.846  0.00  0.00    +0.000 NA
ENDROOT
BRANCH   1   3
ATOM      3  C   UNL     1       3.559   5.011  18.422  0.00  0.00    +0.000 A 
ATOM      4  C   UNL     1       4.605   4.473  19.168  0.00  0.00    +0.000 A 
ATOM      5  C   UNL     1       4.455   3.202  19.714  0.00  0.00    +0.000 A 
ATOM      6  C   UNL     1       3.256   2.525  19.538  0.00  0.00    +0.000 A 
ATOM      7  C   UNL     1       2.238   3.137  18.812  0.00  0.00    +0.000 A 
ATOM      8  C   UNL     1       0.902   2.472  18.661  0.00  0.00    +0.000 C 
ATOM      9  N   UNL     1       2.376   4.362  18.244  0.00  0.00    +0.000 NA
ENDBRANCH   1   3
BRANCH   1  13
ATOM     10  C   UNL     1       0.973   9.478  19.243  0.00  0.00    +0.000 A 
ATOM     11  C   UNL     1       1.590   9.566  17.988  0.00  0.00    +0.000 A 
ATOM     12  C   UNL     1       2.456   8.567  17.552  0.00  0.00    +0.000 A 
ATOM     13  C   UNL     1       2.763   7.489  18.386  0.00  0.00    +0.000 A 
ATOM     14  C   UNL     1       2.270   7.482  19.693  0.00  0.00    +0.000 A 
ATOM     15  C   UNL     1       1.361   8.460  20.129  0.00  0.00    +0.000 A 
BRANCH  10  17
ATOM     16  C   UNL     1       0.509  11.693  19.915  0.00  0.00    +0.000 C 
ATOM     17  O   UNL     1       0.018  10.385  19.612  0.00  0.00    +0.000 OA
ENDBRANCH  10  17
BRANCH  15  18
ATOM     18  O   UNL     1       0.952   8.231  21.416  0.00  0.00    +0.000 OA
ATOM     19  C   UNL     1       1.403   9.097  22.444  0.00  0.00    +0.000 C 
ENDBRANCH  15  18
ENDBRANCH   1  13
BRANCH   2  20
ATOM     20  N   UNL     1       5.321   5.900  16.370  0.00  0.00    +0.000 N 
ATOM     21  H   UNL     1       4.980   5.058  15.905  0.00  0.00    +0.000 HD
BRANCH  20  22
ATOM     22  C   UNL     1       6.671   6.085  16.556  0.00  0.00    +0.000 C 
ATOM     23  S   UNL     1       7.365   7.182  17.615  0.00  0.00    +0.000 S 
BRANCH  22  24
ATOM     24  N   UNL     1       7.485   5.356  15.724  0.00  0.00    +0.000 N 
ATOM     25  H   UNL     1       8.326   4.992  16.154  0.00  0.00    +0.000 HD
BRANCH  24  26
ATOM     26  C   UNL     1       7.137   4.822  14.468  0.00  0.00    +0.000 A 
ATOM     27  C   UNL     1       6.059   3.933  14.410  0.00  0.00    +0.000 A 
ATOM     28  C   UNL     1       5.671   3.389  13.183  0.00  0.00    +0.000 A 
ATOM     29  C   UNL     1       6.321   3.764  12.007  0.00  0.00    +0.000 A 
ATOM     30  C   UNL     1       7.368   4.683  12.057  0.00  0.00    +0.000 A 
ATOM     31  C   UNL     1       7.781   5.198  13.288  0.00  0.00    +0.000 A 
ENDBRANCH  24  26
ENDBRANCH  22  24
ENDBRANCH  20  22
ENDBRANCH   2  20
TORSDOF 8
ENDMDL
MODEL 7
REMARK VINA RESULT:      -7.9      1.375      1.922
REMARK  Name = 
REMARK  11 active torsions:
REMARK  status: ('A' for Active; 'I' for Inactive)
REMARK    1  A    between atoms: C_1  and  O_2
REMARK    2  A    between atoms: O_2  and  C_3
REMARK    3  A    between atoms: C_6  and  C_7
REMARK    4  A    between atoms: C_7  and  C_19
REMARK    5  A    between atoms: N_8  and  N_9
REMARK    6  A    between atoms: N_9  and  C_10
REMARK    7  A    between atoms: C_10  and  N_12
REMARK    8  A    between atoms: N_12  and  C_13
REMARK    9  A    between atoms: C_23  and  C_24
REMARK   10  A    between atoms: C_27  and  O_28
REMARK   11  A    between atoms: O_28  and  C_29
REMARK                            x       y       z     vdW  Elec       q    Type
REMARK                         _______ _______ _______ _____ _____    ______ ____
ROOT
ATOM      1  C   UNL     1       2.988   6.363  18.572  0.00  0.00    +0.000 C 
ATOM      2  N   UNL     1       3.909   6.336  17.647  0.00  0.00    +0.000 NA
ENDROOT
BRANCH   1   3
ATOM      3  C   UNL     1       2.509   5.170  19.366  0.00  0.00    +0.000 A 
ATOM      4  C   UNL     1       2.662   5.120  20.750  0.00  0.00    +0.000 A 
ATOM      5  C   UNL     1       2.162   4.020  21.440  0.00  0.00    +0.000 A 
ATOM      6  C   UNL     1       1.488   3.028  20.741  0.00  0.00    +0.000 A 
ATOM      7  C   UNL     1       1.338   3.159  19.363  0.00  0.00    +0.000 A 
ATOM      8  C   UNL     1       0.554   2.149  18.581  0.00  0.00    +0.000 C 
ATOM      9  N   UNL     1       1.848   4.208  18.666  0.00  0.00    +0.000 NA
ENDBRANCH   1   3
BRANCH   1  13
ATOM     10  C   UNL     1       0.984  10.152  18.965  0.00  0.00    +0.000 A 
ATOM     11  C   UNL     1       1.741   9.846  17.827  0.00  0.00    +0.000 A 
ATOM     12  C   UNL     1       2.387   8.618  17.715  0.00  0.00    +0.000 A 
ATOM     13  C   UNL     1       2.332   7.696  18.764  0.00  0.00    +0.000 A 
ATOM     14  C   UNL     1       1.708   8.065  19.958  0.00  0.00    +0.000 A 
ATOM     15  C   UNL     1       1.017   9.282  20.066  0.00  0.00    +0.000 A 
BRANCH  10  17
ATOM     16  C   UNL     1       0.976  12.510  18.833  0.00  0.00    +0.000 C 
ATOM     17  O   UNL     1       0.239  11.298  19.014  0.00  0.00    +0.000 OA
ENDBRANCH  10  17
BRANCH  15  18
ATOM     18  O   UNL     1       0.423   9.418  21.293  0.00  0.00    +0.000 OA
ATOM     19  C   UNL     1      -0.333   8.338  21.813  0.00  0.00    +0.000 C 
ENDBRANCH  15  18
ENDBRANCH   1  13
BRANCH   2  20
ATOM     20  N   UNL     1       4.642   5.216  17.481  0.00  0.00    +0.000 N 
ATOM     21  H   UNL     1       4.245   4.338  17.818  0.00  0.00    +0.000 HD
BRANCH  20  22
ATOM     22  C   UNL     1       5.908   5.239  16.946  0.00  0.00    +0.000 C 
ATOM     23  S   UNL     1       7.306   4.759  17.735  0.00  0.00    +0.000 S 
BRANCH  22  24
ATOM     24  N   UNL     1       6.008   5.789  15.691  0.00  0.00    +0.000 N 
ATOM     25  H   UNL     1       6.149   6.791  15.669  0.00  0.00    +0.000 HD
BRANCH  24  26
ATOM     26  C   UNL     1       6.234   5.093  14.486  0.00  0.00    +0.000 A 
ATOM     27  C   UNL     1       7.403   5.379  13.775  0.00  0.00    +0.000 A 
ATOM     28  C   UNL     1       7.675   4.705  12.582  0.00  0.00    +0.000 A 
ATOM     29  C   UNL     1       6.809   3.712  12.120  0.00  0.00    +0.000 A 
ATOM     30  C   UNL     1       5.665   3.396  12.850  0.00  0.00    +0.000 A 
ATOM     31  C   UNL     1       5.374   4.096  14.022  0.00  0.00    +0.000 A 
ENDBRANCH  24  26
ENDBRANCH  22  24
ENDBRANCH  20  22
ENDBRANCH   2  20
TORSDOF 8
ENDMDL
MODEL 8
REMARK VINA RESULT:      -7.9      1.999      2.957
REMARK  Name = 
REMARK  11 active torsions:
REMARK  status: ('A' for Active; 'I' for Inactive)
REMARK    1  A    between atoms: C_1  and  O_2
REMARK    2  A    between atoms: O_2  and  C_3
REMARK    3  A    between atoms: C_6  and  C_7
REMARK    4  A    between atoms: C_7  and  C_19
REMARK    5  A    between atoms: N_8  and  N_9
REMARK    6  A    between atoms: N_9  and  C_10
REMARK    7  A    between atoms: C_10  and  N_12
REMARK    8  A    between atoms: N_12  and  C_13
REMARK    9  A    between atoms: C_23  and  C_24
REMARK   10  A    between atoms: C_27  and  O_28
REMARK   11  A    between atoms: O_28  and  C_29
REMARK                            x       y       z     vdW  Elec       q    Type
REMARK                         _______ _______ _______ _____ _____    ______ ____
ROOT
ATOM      1  C   UNL     1       3.012   5.594  18.243  0.00  0.00    +0.000 C 
ATOM      2  N   UNL     1       3.668   5.514  17.118  0.00  0.00    +0.000 NA
ENDROOT
BRANCH   1   3
ATOM      3  C   UNL     1       2.678   4.429  19.147  0.00  0.00    +0.000 A 
ATOM      4  C   UNL     1       1.355   4.085  19.416  0.00  0.00    +0.000 A 
ATOM      5  C   UNL     1       1.101   2.975  20.216  0.00  0.00    +0.000 A 
ATOM      6  C   UNL     1       2.165   2.219  20.687  0.00  0.00    +0.000 A 
ATOM      7  C   UNL     1       3.461   2.598  20.350  0.00  0.00    +0.000 A 
ATOM      8  C   UNL     1       4.635   1.768  20.776  0.00  0.00    +0.000 C 
ATOM      9  N   UNL     1       3.732   3.696  19.598  0.00  0.00    +0.000 NA
ENDBRANCH   1   3
BRANCH   1  13
ATOM     10  C   UNL     1       1.430   9.517  19.040  0.00  0.00    +0.000 A 
ATOM     11  C   UNL     1       2.157   9.250  17.873  0.00  0.00    +0.000 A 
ATOM     12  C   UNL     1       2.666   7.977  17.630  0.00  0.00    +0.000 A 
ATOM     13  C   UNL     1       2.504   6.962  18.577  0.00  0.00    +0.000 A 
ATOM     14  C   UNL     1       1.915   7.270  19.805  0.00  0.00    +0.000 A 
ATOM     15  C   UNL     1       1.359   8.538  20.043  0.00  0.00    +0.000 A 
BRANCH  10  17
ATOM     16  C   UNL     1      -0.579  10.747  18.892  0.00  0.00    +0.000 C 
ATOM     17  O   UNL     1       0.814  10.726  19.212  0.00  0.00    +0.000 OA
ENDBRANCH  10  17
BRANCH  15  18
ATOM     18  O   UNL     1       0.775   8.609  21.280  0.00  0.00    +0.000 OA
ATOM     19  C   UNL     1       1.419   9.350  22.303  0.00  0.00    +0.000 C 
ENDBRANCH  15  18
ENDBRANCH   1  13
BRANCH   2  20
ATOM     20  N   UNL     1       4.269   4.353  16.788  0.00  0.00    +0.000 N 
ATOM     21  H   UNL     1       3.844   3.488  17.125  0.00  0.00    +0.000 HD
BRANCH  20  22
ATOM     22  C   UNL     1       5.451   4.310  16.085  0.00  0.00    +0.000 C 
ATOM     23  S   UNL     1       5.588   4.159  14.422  0.00  0.00    +0.000 S 
BRANCH  22  24
ATOM     24  N   UNL     1       6.591   4.304  16.851  0.00  0.00    +0.000 N 
ATOM     25  H   UNL     1       7.161   3.471  16.770  0.00  0.00    +0.000 HD
BRANCH  24  26
ATOM     26  C   UNL     1       7.187   5.417  17.476  0.00  0.00    +0.000 A 
ATOM     27  C   UNL     1       7.126   6.649  16.817  0.00  0.00    +0.000 A 
ATOM     28  C   UNL     1       7.692   7.782  17.405  0.00  0.00    +0.000 A 
ATOM     29  C   UNL     1       8.277   7.703  18.671  0.00  0.00    +0.000 A 
ATOM     30  C   UNL     1       8.301   6.485  19.347  0.00  0.00    +0.000 A 
ATOM     31  C   UNL     1       7.769   5.344  18.743  0.00  0.00    +0.000 A 
ENDBRANCH  24  26
ENDBRANCH  22  24
ENDBRANCH  20  22
ENDBRANCH   2  20
TORSDOF 8
ENDMDL
MODEL 9
REMARK VINA RESULT:      -7.9      3.306      7.698
REMARK  Name = 
REMARK  11 active torsions:
REMARK  status: ('A' for Active; 'I' for Inactive)
REMARK    1  A    between atoms: C_1  and  O_2
REMARK    2  A    between atoms: O_2  and  C_3
REMARK    3  A    between atoms: C_6  and  C_7
REMARK    4  A    between atoms: C_7  and  C_19
REMARK    5  A    between atoms: N_8  and  N_9
REMARK    6  A    between atoms: N_9  and  C_10
REMARK    7  A    between atoms: C_10  and  N_12
REMARK    8  A    between atoms: N_12  and  C_13
REMARK    9  A    between atoms: C_23  and  C_24
REMARK   10  A    between atoms: C_27  and  O_28
REMARK   11  A    between atoms: O_28  and  C_29
REMARK                            x       y       z     vdW  Elec       q    Type
REMARK                         _______ _______ _______ _____ _____    ______ ____
ROOT
ATOM      1  C   UNL     1       3.295   6.278  18.016  0.00  0.00    +0.000 C 
ATOM      2  N   UNL     1       3.092   7.554  18.192  0.00  0.00    +0.000 NA
ENDROOT
BRANCH   1   3
ATOM      3  C   UNL     1       2.439   5.168  18.583  0.00  0.00    +0.000 A 
ATOM      4  C   UNL     1       1.574   4.441  17.768  0.00  0.00    +0.000 A 
ATOM      5  C   UNL     1       0.843   3.398  18.328  0.00  0.00    +0.000 A 
ATOM      6  C   UNL     1       1.025   3.084  19.667  0.00  0.00    +0.000 A 
ATOM      7  C   UNL     1       1.933   3.828  20.416  0.00  0.00    +0.000 A 
ATOM      8  C   UNL     1       2.216   3.474  21.845  0.00  0.00    +0.000 C 
ATOM      9  N   UNL     1       2.632   4.870  19.896  0.00  0.00    +0.000 NA
ENDBRANCH   1   3
BRANCH   1  13
ATOM     10  C   UNL     1       6.755   5.318  15.641  0.00  0.00    +0.000 A 
ATOM     11  C   UNL     1       5.645   4.464  15.687  0.00  0.00    +0.000 A 
ATOM     12  C   UNL     1       4.535   4.786  16.463  0.00  0.00    +0.000 A 
ATOM     13  C   UNL     1       4.537   5.941  17.249  0.00  0.00    +0.000 A 
ATOM     14  C   UNL     1       5.701   6.708  17.322  0.00  0.00    +0.000 A 
ATOM     15  C   UNL     1       6.811   6.418  16.511  0.00  0.00    +0.000 A 
BRANCH  10  17
ATOM     16  C   UNL     1       7.396   4.883  13.411  0.00  0.00    +0.000 C 
ATOM     17  O   UNL     1       7.784   5.072  14.774  0.00  0.00    +0.000 OA
ENDBRANCH  10  17
BRANCH  15  18
ATOM     18  O   UNL     1       7.818   7.330  16.689  0.00  0.00    +0.000 OA
ATOM     19  C   UNL     1       7.701   8.288  17.726  0.00  0.00    +0.000 C 
ENDBRANCH  15  18
ENDBRANCH   1  13
BRANCH   2  20
ATOM     20  N   UNL     1       1.941   7.965  18.764  0.00  0.00    +0.000 N 
ATOM     21  H   UNL     1       1.353   7.256  19.203  0.00  0.00    +0.000 HD
BRANCH  20  22
ATOM     22  C   UNL     1       1.519   9.273  18.710  0.00  0.00    +0.000 C 
ATOM     23  S   UNL     1       2.335  10.528  17.958  0.00  0.00    +0.000 S 
BRANCH  22  24
ATOM     24  N   UNL     1       0.374   9.551  19.415  0.00  0.00    +0.000 N 
ATOM     25  H   UNL     1       0.458   9.476  20.422  0.00  0.00    +0.000 HD
BRANCH  24  26
ATOM     26  C   UNL     1      -0.775  10.204  18.925  0.00  0.00    +0.000 A 
ATOM     27  C   UNL     1      -1.287  11.274  19.666  0.00  0.00    +0.000 A 
ATOM     28  C   UNL     1      -2.416  11.958  19.212  0.00  0.00    +0.000 A 
ATOM     29  C   UNL     1      -3.010  11.612  17.997  0.00  0.00    +0.000 A 
ATOM     30  C   UNL     1      -2.476  10.574  17.236  0.00  0.00    +0.000 A 
ATOM     31  C   UNL     1      -1.370   9.865  17.709  0.00  0.00    +0.000 A 
ENDBRANCH  24  26
ENDBRANCH  22  24
ENDBRANCH  20  22
ENDBRANCH   2  20
TORSDOF 8
ENDMDL
