MODEL 1
REMARK VINA RESULT:      -6.7      0.000      0.000
REMARK  Name = 
REMARK  5 active torsions:
REMARK  status: ('A' for Active; 'I' for Inactive)
REMARK    1  A    between atoms: C_2  and  C_4
REMARK    2  A    between atoms: C_4  and  N_5
REMARK    3  A    between atoms: C_6  and  C_7
REMARK    4  A    between atoms: C_7  and  C_8
REMARK    5  A    between atoms: C_8  and  C_9
REMARK                            x       y       z     vdW  Elec       q    Type
REMARK                         _______ _______ _______ _____ _____    ______ ____
ROOT
ATOM      1  N   UNL     1       5.064   4.301  17.551  0.00  0.00    +0.000 N 
ATOM      2  C   UNL     1       5.918   4.895  18.466  0.00  0.00    +0.000 A 
ATOM      3  N   UNL     1       5.260   5.229  19.559  0.00  0.00    +0.000 NA
ATOM      4  C   UNL     1       3.964   4.843  19.361  0.00  0.00    +0.000 A 
ATOM      5  C   UNL     1       2.865   4.955  20.226  0.00  0.00    +0.000 A 
ATOM      6  C   UNL     1       1.618   4.485  19.801  0.00  0.00    +0.000 A 
ATOM      7  C   UNL     1       1.470   3.908  18.541  0.00  0.00    +0.000 A 
ATOM      8  C   UNL     1       2.561   3.772  17.673  0.00  0.00    +0.000 A 
ATOM      9  C   UNL     1       3.802   4.258  18.112  0.00  0.00    +0.000 A 
ENDROOT
BRANCH   1  10
ATOM     10  C   UNL     1       5.441   3.694  16.274  0.00  0.00    +0.000 C 
BRANCH  10  12
ATOM     11  C   UNL     1       5.328   5.978  15.228  0.00  0.00    +0.000 C 
ATOM     12  C   UNL     1       5.594   4.667  15.129  0.00  0.00    +0.000 C 
ATOM     13 BR   UNL     1       6.134   3.925  13.496  0.00  0.00    +0.000 Br
ENDBRANCH  10  12
ENDBRANCH   1  10
BRANCH   2  14
ATOM     14  C   UNL     1       7.393   5.092  18.308  0.00  0.00    +0.000 C 
BRANCH  14  15
ATOM     15  C   UNL     1       7.884   6.489  18.689  0.00  0.00    +0.000 C 
ATOM     16  C   UNL     1       7.649   7.546  17.619  0.00  0.00    +0.000 C 
ENDBRANCH  14  15
ENDBRANCH   2  14
TORSDOF 4
ENDMDL
MODEL 2
REMARK VINA RESULT:      -6.3      0.971      1.046
REMARK  Name = 
REMARK  5 active torsions:
REMARK  status: ('A' for Active; 'I' for Inactive)
REMARK    1  A    between atoms: C_2  and  C_4
REMARK    2  A    between atoms: C_4  and  N_5
REMARK    3  A    between atoms: C_6  and  C_7
REMARK    4  A    between atoms: C_7  and  C_8
REMARK    5  A    between atoms: C_8  and  C_9
REMARK                            x       y       z     vdW  Elec       q    Type
REMARK                         _______ _______ _______ _____ _____    ______ ____
ROOT
ATOM      1  N   UNL     1       5.057   4.304  17.413  0.00  0.00    +0.000 N 
ATOM      2  C   UNL     1       5.896   4.804  18.396  0.00  0.00    +0.000 A 
ATOM      3  N   UNL     1       5.225   5.015  19.511  0.00  0.00    +0.000 NA
ATOM      4  C   UNL     1       3.934   4.643  19.258  0.00  0.00    +0.000 A 
ATOM      5  C   UNL     1       2.825   4.655  20.118  0.00  0.00    +0.000 A 
ATOM      6  C   UNL     1       1.586   4.223  19.633  0.00  0.00    +0.000 A 
ATOM      7  C   UNL     1       1.456   3.782  18.317  0.00  0.00    +0.000 A 
ATOM      8  C   UNL     1       2.557   3.747  17.452  0.00  0.00    +0.000 A 
ATOM      9  C   UNL     1       3.789   4.192  17.953  0.00  0.00    +0.000 A 
ENDROOT
BRANCH   1  10
ATOM     10  C   UNL     1       5.451   3.837  16.084  0.00  0.00    +0.000 C 
BRANCH  10  12
ATOM     11  C   UNL     1       6.780   4.748  14.152  0.00  0.00    +0.000 C 
ATOM     12  C   UNL     1       5.879   4.927  15.130  0.00  0.00    +0.000 C 
ATOM     13 BR   UNL     1       5.111   6.611  15.419  0.00  0.00    +0.000 Br
ENDBRANCH  10  12
ENDBRANCH   1  10
BRANCH   2  14
ATOM     14  C   UNL     1       7.371   5.026  18.275  0.00  0.00    +0.000 C 
BRANCH  14  15
ATOM     15  C   UNL     1       7.844   6.386  18.792  0.00  0.00    +0.000 C 
ATOM     16  C   UNL     1       7.790   7.500  17.756  0.00  0.00    +0.000 C 
ENDBRANCH  14  15
ENDBRANCH   2  14
TORSDOF 4
ENDMDL
MODEL 3
REMARK VINA RESULT:      -6.2      2.881      5.535
REMARK  Name = 
REMARK  5 active torsions:
REMARK  status: ('A' for Active; 'I' for Inactive)
REMARK    1  A    between atoms: C_2  and  C_4
REMARK    2  A    between atoms: C_4  and  N_5
REMARK    3  A    between atoms: C_6  and  C_7
REMARK    4  A    between atoms: C_7  and  C_8
REMARK    5  A    between atoms: C_8  and  C_9
REMARK                            x       y       z     vdW  Elec       q    Type
REMARK                         _______ _______ _______ _____ _____    ______ ____
ROOT
ATOM      1  N   UNL     1       3.605   5.243  18.331  0.00  0.00    +0.000 N 
ATOM      2  C   UNL     1       2.814   4.269  17.743  0.00  0.00    +0.000 A 
ATOM      3  N   UNL     1       3.472   3.665  16.774  0.00  0.00    +0.000 NA
ATOM      4  C   UNL     1       4.709   4.244  16.730  0.00  0.00    +0.000 A 
ATOM      5  C   UNL     1       5.794   3.952  15.889  0.00  0.00    +0.000 A 
ATOM      6  C   UNL     1       6.976   4.686  16.029  0.00  0.00    +0.000 A 
ATOM      7  C   UNL     1       7.078   5.688  16.992  0.00  0.00    +0.000 A 
ATOM      8  C   UNL     1       6.011   5.979  17.852  0.00  0.00    +0.000 A 
ATOM      9  C   UNL     1       4.830   5.239  17.691  0.00  0.00    +0.000 A 
ENDROOT
BRANCH   1  10
ATOM     10  C   UNL     1       3.271   6.043  19.509  0.00  0.00    +0.000 C 
BRANCH  10  12
ATOM     11  C   UNL     1       2.419   7.897  18.038  0.00  0.00    +0.000 C 
ATOM     12  C   UNL     1       2.443   7.274  19.227  0.00  0.00    +0.000 C 
ATOM     13 BR   UNL     1       1.465   7.948  20.675  0.00  0.00    +0.000 Br
ENDBRANCH  10  12
ENDBRANCH   1  10
BRANCH   2  14
ATOM     14  C   UNL     1       1.430   3.879  18.159  0.00  0.00    +0.000 C 
BRANCH  14  15
ATOM     15  C   UNL     1       1.381   2.809  19.250  0.00  0.00    +0.000 C 
ATOM     16  C   UNL     1       1.037   3.345  20.633  0.00  0.00    +0.000 C 
ENDBRANCH  14  15
ENDBRANCH   2  14
TORSDOF 4
ENDMDL
MODEL 4
REMARK VINA RESULT:      -6.2      2.047      3.611
REMARK  Name = 
REMARK  5 active torsions:
REMARK  status: ('A' for Active; 'I' for Inactive)
REMARK    1  A    between atoms: C_2  and  C_4
REMARK    2  A    between atoms: C_4  and  N_5
REMARK    3  A    between atoms: C_6  and  C_7
REMARK    4  A    between atoms: C_7  and  C_8
REMARK    5  A    between atoms: C_8  and  C_9
REMARK                            x       y       z     vdW  Elec       q    Type
REMARK                         _______ _______ _______ _____ _____    ______ ____
ROOT
ATOM      1  N   UNL     1       5.043   5.482  17.120  0.00  0.00    +0.000 N 
ATOM      2  C   UNL     1       5.076   4.271  16.447  0.00  0.00    +0.000 A 
ATOM      3  N   UNL     1       4.108   3.483  16.871  0.00  0.00    +0.000 NA
ATOM      4  C   UNL     1       3.430   4.186  17.827  0.00  0.00    +0.000 A 
ATOM      5  C   UNL     1       2.306   3.806  18.576  0.00  0.00    +0.000 A 
ATOM      6  C   UNL     1       1.778   4.703  19.509  0.00  0.00    +0.000 A 
ATOM      7  C   UNL     1       2.355   5.959  19.689  0.00  0.00    +0.000 A 
ATOM      8  C   UNL     1       3.466   6.361  18.936  0.00  0.00    +0.000 A 
ATOM      9  C   UNL     1       3.987   5.445  18.011  0.00  0.00    +0.000 A 
ENDROOT
BRANCH   1  10
ATOM     10  C   UNL     1       5.877   6.653  16.850  0.00  0.00    +0.000 C 
BRANCH  10  12
ATOM     11  C   UNL     1       7.594   5.761  18.457  0.00  0.00    +0.000 C 
ATOM     12  C   UNL     1       7.108   6.769  17.717  0.00  0.00    +0.000 C 
ATOM     13 BR   UNL     1       7.918   8.457  17.760  0.00  0.00    +0.000 Br
ENDBRANCH  10  12
ENDBRANCH   1  10
BRANCH   2  14
ATOM     14  C   UNL     1       6.014   3.893  15.344  0.00  0.00    +0.000 C 
BRANCH  14  15
ATOM     15  C   UNL     1       5.513   4.251  13.944  0.00  0.00    +0.000 C 
ATOM     16  C   UNL     1       6.306   3.608  12.815  0.00  0.00    +0.000 C 
ENDBRANCH  14  15
ENDBRANCH   2  14
TORSDOF 4
ENDMDL
MODEL 5
REMARK VINA RESULT:      -6.2      2.299      5.461
REMARK  Name = 
REMARK  5 active torsions:
REMARK  status: ('A' for Active; 'I' for Inactive)
REMARK    1  A    between atoms: C_2  and  C_4
REMARK    2  A    between atoms: C_4  and  N_5
REMARK    3  A    between atoms: C_6  and  C_7
REMARK    4  A    between atoms: C_7  and  C_8
REMARK    5  A    between atoms: C_8  and  C_9
REMARK                            x       y       z     vdW  Elec       q    Type
REMARK                         _______ _______ _______ _____ _____    ______ ____
ROOT
ATOM      1  N   UNL     1       3.717   5.017  18.446  0.00  0.00    +0.000 N 
ATOM      2  C   UNL     1       2.868   4.071  17.894  0.00  0.00    +0.000 A 
ATOM      3  N   UNL     1       3.418   3.525  16.827  0.00  0.00    +0.000 NA
ATOM      4  C   UNL     1       4.643   4.114  16.683  0.00  0.00    +0.000 A 
ATOM      5  C   UNL     1       5.631   3.876  15.715  0.00  0.00    +0.000 A 
ATOM      6  C   UNL     1       6.821   4.609  15.766  0.00  0.00    +0.000 A 
ATOM      7  C   UNL     1       7.026   5.557  16.768  0.00  0.00    +0.000 A 
ATOM      8  C   UNL     1       6.057   5.793  17.752  0.00  0.00    +0.000 A 
ATOM      9  C   UNL     1       4.867   5.055  17.679  0.00  0.00    +0.000 A 
ENDROOT
BRANCH   1  10
ATOM     10  C   UNL     1       3.513   5.748  19.696  0.00  0.00    +0.000 C 
BRANCH  10  12
ATOM     11  C   UNL     1       1.505   6.991  20.561  0.00  0.00    +0.000 C 
ATOM     12  C   UNL     1       2.461   6.829  19.633  0.00  0.00    +0.000 C 
ATOM     13 BR   UNL     1       2.517   7.936  18.123  0.00  0.00    +0.000 Br
ENDBRANCH  10  12
ENDBRANCH   1  10
BRANCH   2  14
ATOM     14  C   UNL     1       1.537   3.650  18.434  0.00  0.00    +0.000 C 
BRANCH  14  15
ATOM     15  C   UNL     1       1.612   2.562  19.506  0.00  0.00    +0.000 C 
ATOM     16  C   UNL     1       1.155   3.014  20.886  0.00  0.00    +0.000 C 
ENDBRANCH  14  15
ENDBRANCH   2  14
TORSDOF 4
ENDMDL
MODEL 6
REMARK VINA RESULT:      -6.1      1.854      3.257
REMARK  Name = 
REMARK  5 active torsions:
REMARK  status: ('A' for Active; 'I' for Inactive)
REMARK    1  A    between atoms: C_2  and  C_4
REMARK    2  A    between atoms: C_4  and  N_5
REMARK    3  A    between atoms: C_6  and  C_7
REMARK    4  A    between atoms: C_7  and  C_8
REMARK    5  A    between atoms: C_8  and  C_9
REMARK                            x       y       z     vdW  Elec       q    Type
REMARK                         _______ _______ _______ _____ _____    ______ ____
ROOT
ATOM      1  N   UNL     1       4.485   4.380  18.449  0.00  0.00    +0.000 N 
ATOM      2  C   UNL     1       4.505   3.575  17.321  0.00  0.00    +0.000 A 
ATOM      3  N   UNL     1       3.394   2.870  17.239  0.00  0.00    +0.000 NA
ATOM      4  C   UNL     1       2.635   3.222  18.321  0.00  0.00    +0.000 A 
ATOM      5  C   UNL     1       1.357   2.774  18.689  0.00  0.00    +0.000 A 
ATOM      6  C   UNL     1       0.771   3.280  19.853  0.00  0.00    +0.000 A 
ATOM      7  C   UNL     1       1.442   4.221  20.632  0.00  0.00    +0.000 A 
ATOM      8  C   UNL     1       2.710   4.693  20.268  0.00  0.00    +0.000 A 
ATOM      9  C   UNL     1       3.287   4.167  19.103  0.00  0.00    +0.000 A 
ENDROOT
BRANCH   1  10
ATOM     10  C   UNL     1       5.481   5.386  18.820  0.00  0.00    +0.000 C 
BRANCH  10  12
ATOM     11  C   UNL     1       4.516   7.153  17.312  0.00  0.00    +0.000 C 
ATOM     12  C   UNL     1       5.580   6.559  17.874  0.00  0.00    +0.000 C 
ATOM     13 BR   UNL     1       7.316   7.129  17.461  0.00  0.00    +0.000 Br
ENDBRANCH  10  12
ENDBRANCH   1  10
BRANCH   2  14
ATOM     14  C   UNL     1       5.582   3.528  16.283  0.00  0.00    +0.000 C 
BRANCH  14  15
ATOM     15  C   UNL     1       5.285   4.359  15.034  0.00  0.00    +0.000 C 
ATOM     16  C   UNL     1       6.078   3.940  13.803  0.00  0.00    +0.000 C 
ENDBRANCH  14  15
ENDBRANCH   2  14
TORSDOF 4
ENDMDL
MODEL 7
REMARK VINA RESULT:      -6.1      1.942      3.386
REMARK  Name = 
REMARK  5 active torsions:
REMARK  status: ('A' for Active; 'I' for Inactive)
REMARK    1  A    between atoms: C_2  and  C_4
REMARK    2  A    between atoms: C_4  and  N_5
REMARK    3  A    between atoms: C_6  and  C_7
REMARK    4  A    between atoms: C_7  and  C_8
REMARK    5  A    between atoms: C_8  and  C_9
REMARK                            x       y       z     vdW  Elec       q    Type
REMARK                         _______ _______ _______ _____ _____    ______ ____
ROOT
ATOM      1  N   UNL     1       4.816   5.411  17.561  0.00  0.00    +0.000 N 
ATOM      2  C   UNL     1       5.029   4.215  16.893  0.00  0.00    +0.000 A 
ATOM      3  N   UNL     1       4.193   3.292  17.325  0.00  0.00    +0.000 NA
ATOM      4  C   UNL     1       3.420   3.890  18.280  0.00  0.00    +0.000 A 
ATOM      5  C   UNL     1       2.368   3.347  19.035  0.00  0.00    +0.000 A 
ATOM      6  C   UNL     1       1.714   4.159  19.966  0.00  0.00    +0.000 A 
ATOM      7  C   UNL     1       2.095   5.489  20.138  0.00  0.00    +0.000 A 
ATOM      8  C   UNL     1       3.130   6.050  19.379  0.00  0.00    +0.000 A 
ATOM      9  C   UNL     1       3.781   5.219  18.457  0.00  0.00    +0.000 A 
ENDROOT
BRANCH   1  10
ATOM     10  C   UNL     1       5.463   6.693  17.282  0.00  0.00    +0.000 C 
BRANCH  10  12
ATOM     11  C   UNL     1       7.756   7.724  17.370  0.00  0.00    +0.000 C 
ATOM     12  C   UNL     1       6.866   6.827  17.824  0.00  0.00    +0.000 C 
ATOM     13 BR   UNL     1       7.343   5.607  19.163  0.00  0.00    +0.000 Br
ENDBRANCH  10  12
ENDBRANCH   1  10
BRANCH   2  14
ATOM     14  C   UNL     1       6.011   3.978  15.789  0.00  0.00    +0.000 C 
BRANCH  14  15
ATOM     15  C   UNL     1       5.522   4.423  14.410  0.00  0.00    +0.000 C 
ATOM     16  C   UNL     1       6.220   3.730  13.247  0.00  0.00    +0.000 C 
ENDBRANCH  14  15
ENDBRANCH   2  14
TORSDOF 4
ENDMDL
MODEL 8
REMARK VINA RESULT:      -6.1      1.809      3.391
REMARK  Name = 
REMARK  5 active torsions:
REMARK  status: ('A' for Active; 'I' for Inactive)
REMARK    1  A    between atoms: C_2  and  C_4
REMARK    2  A    between atoms: C_4  and  N_5
REMARK    3  A    between atoms: C_6  and  C_7
REMARK    4  A    between atoms: C_7  and  C_8
REMARK    5  A    between atoms: C_8  and  C_9
REMARK                            x       y       z     vdW  Elec       q    Type
REMARK                         _______ _______ _______ _____ _____    ______ ____
ROOT
ATOM      1  N   UNL     1       4.213   4.774  17.977  0.00  0.00    +0.000 N 
ATOM      2  C   UNL     1       4.527   3.701  17.158  0.00  0.00    +0.000 A 
ATOM      3  N   UNL     1       3.682   2.709  17.355  0.00  0.00    +0.000 NA
ATOM      4  C   UNL     1       2.800   3.139  18.307  0.00  0.00    +0.000 A 
ATOM      5  C   UNL     1       1.696   2.469  18.858  0.00  0.00    +0.000 A 
ATOM      6  C   UNL     1       0.928   3.116  19.832  0.00  0.00    +0.000 A 
ATOM      7  C   UNL     1       1.249   4.408  20.244  0.00  0.00    +0.000 A 
ATOM      8  C   UNL     1       2.336   5.097  19.690  0.00  0.00    +0.000 A 
ATOM      9  C   UNL     1       3.100   4.429  18.722  0.00  0.00    +0.000 A 
ENDROOT
BRANCH   1  10
ATOM     10  C   UNL     1       4.844   6.094  17.966  0.00  0.00    +0.000 C 
BRANCH  10  12
ATOM     11  C   UNL     1       6.778   5.406  19.419  0.00  0.00    +0.000 C 
ATOM     12  C   UNL     1       6.296   6.106  18.381  0.00  0.00    +0.000 C 
ATOM     13 BR   UNL     1       7.419   7.225  17.384  0.00  0.00    +0.000 Br
ENDBRANCH  10  12
ENDBRANCH   1  10
BRANCH   2  14
ATOM     14  C   UNL     1       5.620   3.654  16.137  0.00  0.00    +0.000 C 
BRANCH  14  15
ATOM     15  C   UNL     1       5.296   4.396  14.839  0.00  0.00    +0.000 C 
ATOM     16  C   UNL     1       6.098   3.923  13.634  0.00  0.00    +0.000 C 
ENDBRANCH  14  15
ENDBRANCH   2  14
TORSDOF 4
ENDMDL
MODEL 9
REMARK VINA RESULT:      -6.1      2.586      3.380
REMARK  Name = 
REMARK  5 active torsions:
REMARK  status: ('A' for Active; 'I' for Inactive)
REMARK    1  A    between atoms: C_2  and  C_4
REMARK    2  A    between atoms: C_4  and  N_5
REMARK    3  A    between atoms: C_6  and  C_7
REMARK    4  A    between atoms: C_7  and  C_8
REMARK    5  A    between atoms: C_8  and  C_9
REMARK                            x       y       z     vdW  Elec       q    Type
REMARK                         _______ _______ _______ _____ _____    ______ ____
ROOT
ATOM      1  N   UNL     1       3.886   5.291  18.475  0.00  0.00    +0.000 N 
ATOM      2  C   UNL     1       5.121   4.841  18.915  0.00  0.00    +0.000 A 
ATOM      3  N   UNL     1       5.046   3.576  19.279  0.00  0.00    +0.000 NA
ATOM      4  C   UNL     1       3.752   3.191  19.068  0.00  0.00    +0.000 A 
ATOM      5  C   UNL     1       3.155   1.938  19.278  0.00  0.00    +0.000 A 
ATOM      6  C   UNL     1       1.797   1.777  18.988  0.00  0.00    +0.000 A 
ATOM      7  C   UNL     1       1.048   2.842  18.492  0.00  0.00    +0.000 A 
ATOM      8  C   UNL     1       1.632   4.094  18.260  0.00  0.00    +0.000 A 
ATOM      9  C   UNL     1       2.993   4.240  18.565  0.00  0.00    +0.000 A 
ENDROOT
BRANCH   1  10
ATOM     10  C   UNL     1       3.594   6.597  17.884  0.00  0.00    +0.000 C 
BRANCH  10  12
ATOM     11  C   UNL     1       2.285   7.186  19.949  0.00  0.00    +0.000 C 
ATOM     12  C   UNL     1       2.654   7.462  18.689  0.00  0.00    +0.000 C 
ATOM     13 BR   UNL     1       1.958   8.956  17.799  0.00  0.00    +0.000 Br
ENDBRANCH  10  12
ENDBRANCH   1  10
BRANCH   2  14
ATOM     14  C   UNL     1       6.396   5.623  18.931  0.00  0.00    +0.000 C 
BRANCH  14  15
ATOM     15  C   UNL     1       7.518   5.009  18.093  0.00  0.00    +0.000 C 
ATOM     16  C   UNL     1       7.129   4.715  16.650  0.00  0.00    +0.000 C 
ENDBRANCH  14  15
ENDBRANCH   2  14
TORSDOF 4
ENDMDL
