MODEL 1
REMARK VINA RESULT:      -6.3      0.000      0.000
REMARK  Name = 
REMARK  7 active torsions:
REMARK  status: ('A' for Active; 'I' for Inactive)
REMARK    1  A    between atoms: C_2  and  C_3
REMARK    2  A    between atoms: C_2  and  C_10
REMARK    3  A    between atoms: C_6  and  O_7
REMARK    4  A    between atoms: N_13  and  C_14
REMARK    5  A    between atoms: C_14  and  C_15
REMARK    6  A    between atoms: N_23  and  C_24
REMARK    7  A    between atoms: C_24  and  C_25
REMARK                            x       y       z     vdW  Elec       q    Type
REMARK                         _______ _______ _______ _____ _____    ______ ____
ROOT
ATOM      1  C   UNL     1      -1.920  13.178  23.691  0.00  0.00    +0.000 C 
ATOM      2  C   UNL     1      -3.396  13.022  23.566  0.00  0.00    +0.000 C 
ATOM      3  O   UNL     1      -3.928  11.969  23.927  0.00  0.00    +0.000 OA
ATOM      4  N   UNL     1      -4.113  14.101  23.080  0.00  0.00    +0.000 N 
ATOM      5  C   UNL     1      -3.550  15.273  22.586  0.00  0.00    +0.000 C 
ATOM      6  O   UNL     1      -4.250  16.213  22.203  0.00  0.00    +0.000 OA
ATOM      7  N   UNL     1      -2.172  15.380  22.653  0.00  0.00    +0.000 N 
ATOM      8  C   UNL     1      -1.410  14.561  23.456  0.00  0.00    +0.000 C 
ATOM      9  O   UNL     1      -0.351  14.916  23.984  0.00  0.00    +0.000 OA
ENDROOT
BRANCH   1  11
ATOM     10  O   UNL     1      -0.589  11.245  23.292  0.00  0.00    +0.000 OA
ATOM     11  C   UNL     1      -1.190  12.203  22.800  0.00  0.00    +0.000 C 
BRANCH  11  12
ATOM     12  C   UNL     1      -1.181  12.375  21.314  0.00  0.00    +0.000 A 
ATOM     13  C   UNL     1       0.042  12.704  20.708  0.00  0.00    +0.000 A 
ATOM     14  C   UNL     1       0.140  12.854  19.322  0.00  0.00    +0.000 A 
ATOM     15  C   UNL     1      -0.993  12.670  18.538  0.00  0.00    +0.000 A 
ATOM     16  C   UNL     1      -2.215  12.361  19.120  0.00  0.00    +0.000 A 
ATOM     17  C   UNL     1      -2.316  12.218  20.509  0.00  0.00    +0.000 A 
BRANCH  15  18
ATOM     18  O   UNL     1      -0.944  12.791  17.184  0.00  0.00    +0.000 OA
ATOM     19  H   UNL     1      -0.320  13.500  16.955  0.00  0.00    +0.000 HD
ENDBRANCH  15  18
ENDBRANCH  11  12
ENDBRANCH   1  11
BRANCH   4  20
ATOM     20  C   UNL     1      -5.569  14.032  23.155  0.00  0.00    +0.000 C 
BRANCH  20  21
ATOM     21  C   UNL     1      -6.222  13.203  22.074  0.00  0.00    +0.000 A 
ATOM     22  C   UNL     1      -5.765  13.259  20.750  0.00  0.00    +0.000 A 
ATOM     23  C   UNL     1      -6.301  12.408  19.780  0.00  0.00    +0.000 A 
ATOM     24  C   UNL     1      -7.306  11.504  20.118  0.00  0.00    +0.000 A 
ATOM     25  C   UNL     1      -7.793  11.464  21.423  0.00  0.00    +0.000 A 
ATOM     26  C   UNL     1      -7.258  12.311  22.394  0.00  0.00    +0.000 A 
ENDBRANCH  20  21
ENDBRANCH   4  20
BRANCH   7  27
ATOM     27  C   UNL     1      -1.572  16.633  22.205  0.00  0.00    +0.000 C 
BRANCH  27  28
ATOM     28  C   UNL     1      -0.704  16.480  20.972  0.00  0.00    +0.000 A 
ATOM     29  C   UNL     1      -1.293  16.424  19.700  0.00  0.00    +0.000 A 
ATOM     30  C   UNL     1      -0.500  16.405  18.550  0.00  0.00    +0.000 A 
ATOM     31  C   UNL     1       0.889  16.430  18.656  0.00  0.00    +0.000 A 
ATOM     32  C   UNL     1       1.485  16.452  19.914  0.00  0.00    +0.000 A 
ATOM     33  C   UNL     1       0.695  16.475  21.068  0.00  0.00    +0.000 A 
ENDBRANCH  27  28
ENDBRANCH   7  27
TORSDOF 7
ENDMDL
MODEL 2
REMARK VINA RESULT:      -6.0      2.976      6.689
REMARK  Name = 
REMARK  7 active torsions:
REMARK  status: ('A' for Active; 'I' for Inactive)
REMARK    1  A    between atoms: C_2  and  C_3
REMARK    2  A    between atoms: C_2  and  C_10
REMARK    3  A    between atoms: C_6  and  O_7
REMARK    4  A    between atoms: N_13  and  C_14
REMARK    5  A    between atoms: C_14  and  C_15
REMARK    6  A    between atoms: N_23  and  C_24
REMARK    7  A    between atoms: C_24  and  C_25
REMARK                            x       y       z     vdW  Elec       q    Type
REMARK                         _______ _______ _______ _____ _____    ______ ____
ROOT
ATOM      1  C   UNL     1      -0.057  12.156  19.203  0.00  0.00    +0.000 C 
ATOM      2  C   UNL     1       0.643  13.425  19.549  0.00  0.00    +0.000 C 
ATOM      3  O   UNL     1       1.862  13.509  19.385  0.00  0.00    +0.000 OA
ATOM      4  N   UNL     1      -0.131  14.476  20.009  0.00  0.00    +0.000 N 
ATOM      5  C   UNL     1      -1.491  14.400  20.287  0.00  0.00    +0.000 C 
ATOM      6  O   UNL     1      -2.130  15.388  20.659  0.00  0.00    +0.000 OA
ATOM      7  N   UNL     1      -2.117  13.196  20.017  0.00  0.00    +0.000 N 
ATOM      8  C   UNL     1      -1.548  12.237  19.210  0.00  0.00    +0.000 C 
ATOM      9  O   UNL     1      -2.201  11.463  18.504  0.00  0.00    +0.000 OA
ENDROOT
BRANCH   1  11
ATOM     10  O   UNL     1       0.193  11.057  21.299  0.00  0.00    +0.000 OA
ATOM     11  C   UNL     1       0.401  11.021  20.085  0.00  0.00    +0.000 C 
BRANCH  11  12
ATOM     12  C   UNL     1       1.109   9.836  19.509  0.00  0.00    +0.000 A 
ATOM     13  C   UNL     1       1.374   8.759  20.371  0.00  0.00    +0.000 A 
ATOM     14  C   UNL     1       2.007   7.604  19.904  0.00  0.00    +0.000 A 
ATOM     15  C   UNL     1       2.374   7.525  18.566  0.00  0.00    +0.000 A 
ATOM     16  C   UNL     1       2.136   8.586  17.702  0.00  0.00    +0.000 A 
ATOM     17  C   UNL     1       1.509   9.747  18.170  0.00  0.00    +0.000 A 
BRANCH  15  18
ATOM     18  O   UNL     1       2.978   6.415  18.062  0.00  0.00    +0.000 OA
ATOM     19  H   UNL     1       3.033   6.500  17.094  0.00  0.00    +0.000 HD
ENDBRANCH  15  18
ENDBRANCH  11  12
ENDBRANCH   1  11
BRANCH   4  20
ATOM     20  C   UNL     1       0.514  15.779  20.147  0.00  0.00    +0.000 C 
BRANCH  20  21
ATOM     21  C   UNL     1       0.596  16.583  18.870  0.00  0.00    +0.000 A 
ATOM     22  C   UNL     1      -0.548  17.178  18.321  0.00  0.00    +0.000 A 
ATOM     23  C   UNL     1      -0.444  18.010  17.203  0.00  0.00    +0.000 A 
ATOM     24  C   UNL     1       0.797  18.244  16.615  0.00  0.00    +0.000 A 
ATOM     25  C   UNL     1       1.936  17.629  17.131  0.00  0.00    +0.000 A 
ATOM     26  C   UNL     1       1.835  16.800  18.249  0.00  0.00    +0.000 A 
ENDBRANCH  20  21
ENDBRANCH   4  20
BRANCH   7  27
ATOM     27  C   UNL     1      -3.559  13.123  20.236  0.00  0.00    +0.000 C 
BRANCH  27  28
ATOM     28  C   UNL     1      -3.938  12.843  21.676  0.00  0.00    +0.000 A 
ATOM     29  C   UNL     1      -2.959  12.432  22.593  0.00  0.00    +0.000 A 
ATOM     30  C   UNL     1      -3.270  12.288  23.948  0.00  0.00    +0.000 A 
ATOM     31  C   UNL     1      -4.563  12.541  24.400  0.00  0.00    +0.000 A 
ATOM     32  C   UNL     1      -5.551  12.918  23.494  0.00  0.00    +0.000 A 
ATOM     33  C   UNL     1      -5.243  13.066  22.138  0.00  0.00    +0.000 A 
ENDBRANCH  27  28
ENDBRANCH   7  27
TORSDOF 7
ENDMDL
MODEL 3
REMARK VINA RESULT:      -5.9      1.773      2.071
REMARK  Name = 
REMARK  7 active torsions:
REMARK  status: ('A' for Active; 'I' for Inactive)
REMARK    1  A    between atoms: C_2  and  C_3
REMARK    2  A    between atoms: C_2  and  C_10
REMARK    3  A    between atoms: C_6  and  O_7
REMARK    4  A    between atoms: N_13  and  C_14
REMARK    5  A    between atoms: C_14  and  C_15
REMARK    6  A    between atoms: N_23  and  C_24
REMARK    7  A    between atoms: C_24  and  C_25
REMARK                            x       y       z     vdW  Elec       q    Type
REMARK                         _______ _______ _______ _____ _____    ______ ____
ROOT
ATOM      1  C   UNL     1      -1.542  12.766  23.084  0.00  0.00    +0.000 C 
ATOM      2  C   UNL     1      -2.984  12.774  22.708  0.00  0.00    +0.000 C 
ATOM      3  O   UNL     1      -3.760  11.995  23.266  0.00  0.00    +0.000 OA
ATOM      4  N   UNL     1      -3.392  13.698  21.764  0.00  0.00    +0.000 N 
ATOM      5  C   UNL     1      -2.541  14.537  21.051  0.00  0.00    +0.000 C 
ATOM      6  O   UNL     1      -2.976  15.367  20.249  0.00  0.00    +0.000 OA
ATOM      7  N   UNL     1      -1.195  14.476  21.369  0.00  0.00    +0.000 N 
ATOM      8  C   UNL     1      -0.741  13.898  22.533  0.00  0.00    +0.000 C 
ATOM      9  O   UNL     1       0.274  14.271  23.130  0.00  0.00    +0.000 OA
ENDROOT
BRANCH   1  11
ATOM     10  O   UNL     1      -0.582  10.653  23.612  0.00  0.00    +0.000 OA
ATOM     11  C   UNL     1      -0.891  11.453  22.726  0.00  0.00    +0.000 C 
BRANCH  11  12
ATOM     12  C   UNL     1      -0.610  11.095  21.301  0.00  0.00    +0.000 A 
ATOM     13  C   UNL     1       0.704  10.720  20.976  0.00  0.00    +0.000 A 
ATOM     14  C   UNL     1       1.041  10.345  19.672  0.00  0.00    +0.000 A 
ATOM     15  C   UNL     1       0.057  10.342  18.691  0.00  0.00    +0.000 A 
ATOM     16  C   UNL     1      -1.243  10.725  18.989  0.00  0.00    +0.000 A 
ATOM     17  C   UNL     1      -1.581  11.109  20.293  0.00  0.00    +0.000 A 
BRANCH  15  18
ATOM     18  O   UNL     1       0.334   9.969  17.412  0.00  0.00    +0.000 OA
ATOM     19  H   UNL     1       1.215  10.304  17.172  0.00  0.00    +0.000 HD
ENDBRANCH  15  18
ENDBRANCH  11  12
ENDBRANCH   1  11
BRANCH   4  20
ATOM     20  C   UNL     1      -4.827  13.855  21.548  0.00  0.00    +0.000 C 
BRANCH  20  21
ATOM     21  C   UNL     1      -5.451  12.811  20.652  0.00  0.00    +0.000 A 
ATOM     22  C   UNL     1      -4.876  12.489  19.415  0.00  0.00    +0.000 A 
ATOM     23  C   UNL     1      -5.396  11.447  18.642  0.00  0.00    +0.000 A 
ATOM     24  C   UNL     1      -6.502  10.728  19.090  0.00  0.00    +0.000 A 
ATOM     25  C   UNL     1      -7.104  11.062  20.301  0.00  0.00    +0.000 A 
ATOM     26  C   UNL     1      -6.585  12.101  21.074  0.00  0.00    +0.000 A 
ENDBRANCH  20  21
ENDBRANCH   4  20
BRANCH   7  27
ATOM     27  C   UNL     1      -0.299  15.401  20.680  0.00  0.00    +0.000 C 
BRANCH  27  28
ATOM     28  C   UNL     1       0.838  14.712  19.954  0.00  0.00    +0.000 A 
ATOM     29  C   UNL     1       0.590  14.005  18.768  0.00  0.00    +0.000 A 
ATOM     30  C   UNL     1       1.645  13.470  18.025  0.00  0.00    +0.000 A 
ATOM     31  C   UNL     1       2.958  13.621  18.464  0.00  0.00    +0.000 A 
ATOM     32  C   UNL     1       3.215  14.292  19.657  0.00  0.00    +0.000 A 
ATOM     33  C   UNL     1       2.162  14.833  20.402  0.00  0.00    +0.000 A 
ENDBRANCH  27  28
ENDBRANCH   7  27
TORSDOF 7
ENDMDL
MODEL 4
REMARK VINA RESULT:      -5.8      2.176      6.068
REMARK  Name = 
REMARK  7 active torsions:
REMARK  status: ('A' for Active; 'I' for Inactive)
REMARK    1  A    between atoms: C_2  and  C_3
REMARK    2  A    between atoms: C_2  and  C_10
REMARK    3  A    between atoms: C_6  and  O_7
REMARK    4  A    between atoms: N_13  and  C_14
REMARK    5  A    between atoms: C_14  and  C_15
REMARK    6  A    between atoms: N_23  and  C_24
REMARK    7  A    between atoms: C_24  and  C_25
REMARK                            x       y       z     vdW  Elec       q    Type
REMARK                         _______ _______ _______ _____ _____    ______ ____
ROOT
ATOM      1  C   UNL     1       0.118  11.757  21.706  0.00  0.00    +0.000 C 
ATOM      2  C   UNL     1       0.378  13.184  21.365  0.00  0.00    +0.000 C 
ATOM      3  O   UNL     1       0.729  13.965  22.253  0.00  0.00    +0.000 OA
ATOM      4  N   UNL     1       0.248  13.557  20.040  0.00  0.00    +0.000 N 
ATOM      5  C   UNL     1      -0.223  12.734  19.023  0.00  0.00    +0.000 C 
ATOM      6  O   UNL     1      -0.277  13.119  17.853  0.00  0.00    +0.000 OA
ATOM      7  N   UNL     1      -0.518  11.426  19.366  0.00  0.00    +0.000 N 
ATOM      8  C   UNL     1      -0.063  10.852  20.532  0.00  0.00    +0.000 C 
ATOM      9  O   UNL     1       0.200   9.651  20.645  0.00  0.00    +0.000 OA
ENDROOT
BRANCH   1  11
ATOM     10  O   UNL     1      -1.089  10.706  23.467  0.00  0.00    +0.000 OA
ATOM     11  C   UNL     1      -1.055  11.623  22.644  0.00  0.00    +0.000 C 
BRANCH  11  12
ATOM     12  C   UNL     1      -2.192  12.594  22.599  0.00  0.00    +0.000 A 
ATOM     13  C   UNL     1      -2.319  13.492  23.671  0.00  0.00    +0.000 A 
ATOM     14  C   UNL     1      -3.339  14.448  23.690  0.00  0.00    +0.000 A 
ATOM     15  C   UNL     1      -4.234  14.507  22.629  0.00  0.00    +0.000 A 
ATOM     16  C   UNL     1      -4.135  13.617  21.568  0.00  0.00    +0.000 A 
ATOM     17  C   UNL     1      -3.120  12.653  21.551  0.00  0.00    +0.000 A 
BRANCH  15  18
ATOM     18  O   UNL     1      -5.233  15.430  22.596  0.00  0.00    +0.000 OA
ATOM     19  H   UNL     1      -5.400  15.677  21.670  0.00  0.00    +0.000 HD
ENDBRANCH  15  18
ENDBRANCH  11  12
ENDBRANCH   1  11
BRANCH   4  20
ATOM     20  C   UNL     1       0.704  14.893  19.667  0.00  0.00    +0.000 C 
BRANCH  20  21
ATOM     21  C   UNL     1      -0.399  15.902  19.448  0.00  0.00    +0.000 A 
ATOM     22  C   UNL     1      -1.481  15.988  20.334  0.00  0.00    +0.000 A 
ATOM     23  C   UNL     1      -2.439  16.995  20.186  0.00  0.00    +0.000 A 
ATOM     24  C   UNL     1      -2.334  17.914  19.144  0.00  0.00    +0.000 A 
ATOM     25  C   UNL     1      -1.282  17.817  18.236  0.00  0.00    +0.000 A 
ATOM     26  C   UNL     1      -0.324  16.813  18.383  0.00  0.00    +0.000 A 
ENDBRANCH  20  21
ENDBRANCH   4  20
BRANCH   7  27
ATOM     27  C   UNL     1      -0.944  10.529  18.295  0.00  0.00    +0.000 C 
BRANCH  27  28
ATOM     28  C   UNL     1      -2.286  10.899  17.697  0.00  0.00    +0.000 A 
ATOM     29  C   UNL     1      -2.533  10.678  16.333  0.00  0.00    +0.000 A 
ATOM     30  C   UNL     1      -3.804  10.900  15.796  0.00  0.00    +0.000 A 
ATOM     31  C   UNL     1      -4.837  11.358  16.609  0.00  0.00    +0.000 A 
ATOM     32  C   UNL     1      -4.596  11.614  17.957  0.00  0.00    +0.000 A 
ATOM     33  C   UNL     1      -3.326  11.388  18.499  0.00  0.00    +0.000 A 
ENDBRANCH  27  28
ENDBRANCH   7  27
TORSDOF 7
ENDMDL
MODEL 5
REMARK VINA RESULT:      -5.8      7.780     11.679
REMARK  Name = 
REMARK  7 active torsions:
REMARK  status: ('A' for Active; 'I' for Inactive)
REMARK    1  A    between atoms: C_2  and  C_3
REMARK    2  A    between atoms: C_2  and  C_10
REMARK    3  A    between atoms: C_6  and  O_7
REMARK    4  A    between atoms: N_13  and  C_14
REMARK    5  A    between atoms: C_14  and  C_15
REMARK    6  A    between atoms: N_23  and  C_24
REMARK    7  A    between atoms: C_24  and  C_25
REMARK                            x       y       z     vdW  Elec       q    Type
REMARK                         _______ _______ _______ _____ _____    ______ ____
ROOT
ATOM      1  C   UNL     1       9.150  17.270  20.127  0.00  0.00    +0.000 C 
ATOM      2  C   UNL     1       9.989  16.066  19.874  0.00  0.00    +0.000 C 
ATOM      3  O   UNL     1      10.821  16.087  18.965  0.00  0.00    +0.000 OA
ATOM      4  N   UNL     1       9.815  14.979  20.712  0.00  0.00    +0.000 N 
ATOM      5  C   UNL     1       8.835  14.880  21.694  0.00  0.00    +0.000 C 
ATOM      6  O   UNL     1       8.761  13.896  22.434  0.00  0.00    +0.000 OA
ATOM      7  N   UNL     1       8.023  15.984  21.879  0.00  0.00    +0.000 N 
ATOM      8  C   UNL     1       8.352  17.229  21.389  0.00  0.00    +0.000 C 
ATOM      9  O   UNL     1       8.030  18.286  21.939  0.00  0.00    +0.000 OA
ENDROOT
BRANCH   1  11
ATOM     10  O   UNL     1       8.447  18.551  18.248  0.00  0.00    +0.000 OA
ATOM     11  C   UNL     1       8.244  17.562  18.957  0.00  0.00    +0.000 C 
BRANCH  11  12
ATOM     12  C   UNL     1       7.092  16.666  18.631  0.00  0.00    +0.000 A 
ATOM     13  C   UNL     1       5.802  17.136  18.928  0.00  0.00    +0.000 A 
ATOM     14  C   UNL     1       4.672  16.370  18.628  0.00  0.00    +0.000 A 
ATOM     15  C   UNL     1       4.834  15.128  18.026  0.00  0.00    +0.000 A 
ATOM     16  C   UNL     1       6.101  14.639  17.739  0.00  0.00    +0.000 A 
ATOM     17  C   UNL     1       7.235  15.402  18.046  0.00  0.00    +0.000 A 
BRANCH  15  18
ATOM     18  O   UNL     1       3.763  14.354  17.701  0.00  0.00    +0.000 OA
ATOM     19  H   UNL     1       3.623  14.400  16.740  0.00  0.00    +0.000 HD
ENDBRANCH  15  18
ENDBRANCH  11  12
ENDBRANCH   1  11
BRANCH   4  20
ATOM     20  C   UNL     1      10.775  13.884  20.605  0.00  0.00    +0.000 C 
BRANCH  20  21
ATOM     21  C   UNL     1      10.279  12.679  19.841  0.00  0.00    +0.000 A 
ATOM     22  C   UNL     1      10.105  11.443  20.481  0.00  0.00    +0.000 A 
ATOM     23  C   UNL     1       9.543  10.364  19.794  0.00  0.00    +0.000 A 
ATOM     24  C   UNL     1       9.162  10.503  18.461  0.00  0.00    +0.000 A 
ATOM     25  C   UNL     1       9.363  11.715  17.804  0.00  0.00    +0.000 A 
ATOM     26  C   UNL     1       9.923  12.795  18.489  0.00  0.00    +0.000 A 
ENDBRANCH  20  21
ENDBRANCH   4  20
BRANCH   7  27
ATOM     27  C   UNL     1       7.037  15.922  22.954  0.00  0.00    +0.000 C 
BRANCH  27  28
ATOM     28  C   UNL     1       5.620  15.703  22.462  0.00  0.00    +0.000 A 
ATOM     29  C   UNL     1       5.255  14.473  21.895  0.00  0.00    +0.000 A 
ATOM     30  C   UNL     1       3.926  14.215  21.550  0.00  0.00    +0.000 A 
ATOM     31  C   UNL     1       2.949  15.186  21.755  0.00  0.00    +0.000 A 
ATOM     32  C   UNL     1       3.305  16.424  22.286  0.00  0.00    +0.000 A 
ATOM     33  C   UNL     1       4.634  16.684  22.636  0.00  0.00    +0.000 A 
ENDBRANCH  27  28
ENDBRANCH   7  27
TORSDOF 7
ENDMDL
MODEL 6
REMARK VINA RESULT:      -5.7      4.135      5.600
REMARK  Name = 
REMARK  7 active torsions:
REMARK  status: ('A' for Active; 'I' for Inactive)
REMARK    1  A    between atoms: C_2  and  C_3
REMARK    2  A    between atoms: C_2  and  C_10
REMARK    3  A    between atoms: C_6  and  O_7
REMARK    4  A    between atoms: N_13  and  C_14
REMARK    5  A    between atoms: C_14  and  C_15
REMARK    6  A    between atoms: N_23  and  C_24
REMARK    7  A    between atoms: C_24  and  C_25
REMARK                            x       y       z     vdW  Elec       q    Type
REMARK                         _______ _______ _______ _____ _____    ______ ____
ROOT
ATOM      1  C   UNL     1       0.365   9.921  19.261  0.00  0.00    +0.000 C 
ATOM      2  C   UNL     1      -0.742  10.297  18.338  0.00  0.00    +0.000 C 
ATOM      3  O   UNL     1      -1.267   9.429  17.636  0.00  0.00    +0.000 OA
ATOM      4  N   UNL     1      -1.159  11.616  18.344  0.00  0.00    +0.000 N 
ATOM      5  C   UNL     1      -0.546  12.641  19.056  0.00  0.00    +0.000 C 
ATOM      6  O   UNL     1      -0.993  13.790  19.047  0.00  0.00    +0.000 OA
ATOM      7  N   UNL     1       0.521  12.288  19.864  0.00  0.00    +0.000 N 
ATOM      8  C   UNL     1       0.764  10.984  20.231  0.00  0.00    +0.000 C 
ATOM      9  O   UNL     1       1.280  10.662  21.306  0.00  0.00    +0.000 OA
ENDROOT
BRANCH   1  11
ATOM     10  O   UNL     1       2.086  10.158  17.634  0.00  0.00    +0.000 OA
ATOM     11  C   UNL     1       1.575   9.442  18.498  0.00  0.00    +0.000 C 
BRANCH  11  12
ATOM     12  C   UNL     1       2.177   8.100  18.771  0.00  0.00    +0.000 A 
ATOM     13  C   UNL     1       3.045   7.571  17.802  0.00  0.00    +0.000 A 
ATOM     14  C   UNL     1       3.670   6.336  17.995  0.00  0.00    +0.000 A 
ATOM     15  C   UNL     1       3.426   5.628  19.166  0.00  0.00    +0.000 A 
ATOM     16  C   UNL     1       2.558   6.126  20.128  0.00  0.00    +0.000 A 
ATOM     17  C   UNL     1       1.925   7.360  19.933  0.00  0.00    +0.000 A 
BRANCH  15  18
ATOM     18  O   UNL     1       4.023   4.429  19.406  0.00  0.00    +0.000 OA
ATOM     19  H   UNL     1       3.335   3.770  19.602  0.00  0.00    +0.000 HD
ENDBRANCH  15  18
ENDBRANCH  11  12
ENDBRANCH   1  11
BRANCH   4  20
ATOM     20  C   UNL     1      -2.375  11.942  17.605  0.00  0.00    +0.000 C 
BRANCH  20  21
ATOM     21  C   UNL     1      -3.661  11.699  18.361  0.00  0.00    +0.000 A 
ATOM     22  C   UNL     1      -3.955  12.415  19.530  0.00  0.00    +0.000 A 
ATOM     23  C   UNL     1      -5.193  12.263  20.160  0.00  0.00    +0.000 A 
ATOM     24  C   UNL     1      -6.142  11.387  19.638  0.00  0.00    +0.000 A 
ATOM     25  C   UNL     1      -5.848  10.644  18.497  0.00  0.00    +0.000 A 
ATOM     26  C   UNL     1      -4.613  10.795  17.866  0.00  0.00    +0.000 A 
ENDBRANCH  20  21
ENDBRANCH   4  20
BRANCH   7  27
ATOM     27  C   UNL     1       1.130  13.341  20.672  0.00  0.00    +0.000 C 
BRANCH  27  28
ATOM     28  C   UNL     1       2.101  14.211  19.898  0.00  0.00    +0.000 A 
ATOM     29  C   UNL     1       2.890  13.651  18.881  0.00  0.00    +0.000 A 
ATOM     30  C   UNL     1       3.697  14.462  18.080  0.00  0.00    +0.000 A 
ATOM     31  C   UNL     1       3.737  15.838  18.293  0.00  0.00    +0.000 A 
ATOM     32  C   UNL     1       2.984  16.401  19.320  0.00  0.00    +0.000 A 
ATOM     33  C   UNL     1       2.171  15.593  20.122  0.00  0.00    +0.000 A 
ENDBRANCH  27  28
ENDBRANCH   7  27
TORSDOF 7
ENDMDL
MODEL 7
REMARK VINA RESULT:      -5.7      3.595      5.448
REMARK  Name = 
REMARK  7 active torsions:
REMARK  status: ('A' for Active; 'I' for Inactive)
REMARK    1  A    between atoms: C_2  and  C_3
REMARK    2  A    between atoms: C_2  and  C_10
REMARK    3  A    between atoms: C_6  and  O_7
REMARK    4  A    between atoms: N_13  and  C_14
REMARK    5  A    between atoms: C_14  and  C_15
REMARK    6  A    between atoms: N_23  and  C_24
REMARK    7  A    between atoms: C_24  and  C_25
REMARK                            x       y       z     vdW  Elec       q    Type
REMARK                         _______ _______ _______ _____ _____    ______ ____
ROOT
ATOM      1  C   UNL     1      -0.466  10.103  19.770  0.00  0.00    +0.000 C 
ATOM      2  C   UNL     1      -1.483  10.598  18.801  0.00  0.00    +0.000 C 
ATOM      3  O   UNL     1      -1.759   9.916  17.811  0.00  0.00    +0.000 OA
ATOM      4  N   UNL     1      -2.106  11.800  19.086  0.00  0.00    +0.000 N 
ATOM      5  C   UNL     1      -1.769  12.639  20.143  0.00  0.00    +0.000 C 
ATOM      6  O   UNL     1      -2.392  13.680  20.363  0.00  0.00    +0.000 OA
ATOM      7  N   UNL     1      -0.779  12.195  21.002  0.00  0.00    +0.000 N 
ATOM      8  C   UNL     1      -0.380  10.877  21.044  0.00  0.00    +0.000 C 
ATOM      9  O   UNL     1       0.030  10.320  22.067  0.00  0.00    +0.000 OA
ENDROOT
BRANCH   1  11
ATOM     10  O   UNL     1       1.424  11.016  18.647  0.00  0.00    +0.000 OA
ATOM     11  C   UNL     1       0.898  10.012  19.132  0.00  0.00    +0.000 C 
BRANCH  11  12
ATOM     12  C   UNL     1       1.637   8.712  19.076  0.00  0.00    +0.000 A 
ATOM     13  C   UNL     1       1.590   7.892  20.214  0.00  0.00    +0.000 A 
ATOM     14  C   UNL     1       2.232   6.650  20.232  0.00  0.00    +0.000 A 
ATOM     15  C   UNL     1       2.921   6.226  19.102  0.00  0.00    +0.000 A 
ATOM     16  C   UNL     1       2.993   7.031  17.973  0.00  0.00    +0.000 A 
ATOM     17  C   UNL     1       2.358   8.278  17.957  0.00  0.00    +0.000 A 
BRANCH  15  18
ATOM     18  O   UNL     1       3.548   5.019  19.066  0.00  0.00    +0.000 OA
ATOM     19  H   UNL     1       3.713   4.725  19.978  0.00  0.00    +0.000 HD
ENDBRANCH  15  18
ENDBRANCH  11  12
ENDBRANCH   1  11
BRANCH   4  20
ATOM     20  C   UNL     1      -3.246  12.182  18.259  0.00  0.00    +0.000 C 
BRANCH  20  21
ATOM     21  C   UNL     1      -4.592  11.757  18.800  0.00  0.00    +0.000 A 
ATOM     22  C   UNL     1      -5.304  10.705  18.208  0.00  0.00    +0.000 A 
ATOM     23  C   UNL     1      -6.494  10.246  18.780  0.00  0.00    +0.000 A 
ATOM     24  C   UNL     1      -6.991  10.842  19.937  0.00  0.00    +0.000 A 
ATOM     25  C   UNL     1      -6.310  11.912  20.514  0.00  0.00    +0.000 A 
ATOM     26  C   UNL     1      -5.121  12.370  19.945  0.00  0.00    +0.000 A 
ENDBRANCH  20  21
ENDBRANCH   4  20
BRANCH   7  27
ATOM     27  C   UNL     1      -0.464  13.032  22.156  0.00  0.00    +0.000 C 
BRANCH  27  28
ATOM     28  C   UNL     1      -1.619  13.180  23.127  0.00  0.00    +0.000 A 
ATOM     29  C   UNL     1      -1.777  14.369  23.855  0.00  0.00    +0.000 A 
ATOM     30  C   UNL     1      -2.902  14.566  24.660  0.00  0.00    +0.000 A 
ATOM     31  C   UNL     1      -3.875  13.574  24.757  0.00  0.00    +0.000 A 
ATOM     32  C   UNL     1      -3.713  12.376  24.065  0.00  0.00    +0.000 A 
ATOM     33  C   UNL     1      -2.590  12.177  23.255  0.00  0.00    +0.000 A 
ENDBRANCH  27  28
ENDBRANCH   7  27
TORSDOF 7
ENDMDL
MODEL 8
REMARK VINA RESULT:      -5.7      2.831      6.488
REMARK  Name = 
REMARK  7 active torsions:
REMARK  status: ('A' for Active; 'I' for Inactive)
REMARK    1  A    between atoms: C_2  and  C_3
REMARK    2  A    between atoms: C_2  and  C_10
REMARK    3  A    between atoms: C_6  and  O_7
REMARK    4  A    between atoms: N_13  and  C_14
REMARK    5  A    between atoms: C_14  and  C_15
REMARK    6  A    between atoms: N_23  and  C_24
REMARK    7  A    between atoms: C_24  and  C_25
REMARK                            x       y       z     vdW  Elec       q    Type
REMARK                         _______ _______ _______ _____ _____    ______ ____
ROOT
ATOM      1  C   UNL     1      -0.230  12.365  19.392  0.00  0.00    +0.000 C 
ATOM      2  C   UNL     1       0.481  13.621  19.762  0.00  0.00    +0.000 C 
ATOM      3  O   UNL     1       1.700  13.699  19.592  0.00  0.00    +0.000 OA
ATOM      4  N   UNL     1      -0.281  14.666  20.250  0.00  0.00    +0.000 N 
ATOM      5  C   UNL     1      -1.641  14.595  20.535  0.00  0.00    +0.000 C 
ATOM      6  O   UNL     1      -2.269  15.579  20.932  0.00  0.00    +0.000 OA
ATOM      7  N   UNL     1      -2.278  13.402  20.242  0.00  0.00    +0.000 N 
ATOM      8  C   UNL     1      -1.720  12.456  19.410  0.00  0.00    +0.000 C 
ATOM      9  O   UNL     1      -2.384  11.703  18.691  0.00  0.00    +0.000 OA
ENDROOT
BRANCH   1  11
ATOM     10  O   UNL     1      -0.009  11.200  21.456  0.00  0.00    +0.000 OA
ATOM     11  C   UNL     1       0.224  11.207  20.245  0.00  0.00    +0.000 C 
BRANCH  11  12
ATOM     12  C   UNL     1       0.959  10.050  19.646  0.00  0.00    +0.000 A 
ATOM     13  C   UNL     1       1.202   8.940  20.472  0.00  0.00    +0.000 A 
ATOM     14  C   UNL     1       1.859   7.809  19.979  0.00  0.00    +0.000 A 
ATOM     15  C   UNL     1       2.270   7.787  18.652  0.00  0.00    +0.000 A 
ATOM     16  C   UNL     1       2.054   8.880  17.824  0.00  0.00    +0.000 A 
ATOM     17  C   UNL     1       1.404  10.018  18.318  0.00  0.00    +0.000 A 
BRANCH  15  18
ATOM     18  O   UNL     1       2.898   6.702  18.123  0.00  0.00    +0.000 OA
ATOM     19  H   UNL     1       3.729   6.992  17.709  0.00  0.00    +0.000 HD
ENDBRANCH  15  18
ENDBRANCH  11  12
ENDBRANCH   1  11
BRANCH   4  20
ATOM     20  C   UNL     1       0.374  15.961  20.412  0.00  0.00    +0.000 C 
BRANCH  20  21
ATOM     21  C   UNL     1       0.472  16.784  19.150  0.00  0.00    +0.000 A 
ATOM     22  C   UNL     1       1.705  16.979  18.512  0.00  0.00    +0.000 A 
ATOM     23  C   UNL     1       1.770  17.649  17.287  0.00  0.00    +0.000 A 
ATOM     24  C   UNL     1       0.609  18.142  16.695  0.00  0.00    +0.000 A 
ATOM     25  C   UNL     1      -0.617  17.986  17.337  0.00  0.00    +0.000 A 
ATOM     26  C   UNL     1      -0.685  17.316  18.559  0.00  0.00    +0.000 A 
ENDBRANCH  20  21
ENDBRANCH   4  20
BRANCH   7  27
ATOM     27  C   UNL     1      -3.719  13.335  20.468  0.00  0.00    +0.000 C 
BRANCH  27  28
ATOM     28  C   UNL     1      -4.092  13.094  21.917  0.00  0.00    +0.000 A 
ATOM     29  C   UNL     1      -5.394  13.368  22.362  0.00  0.00    +0.000 A 
ATOM     30  C   UNL     1      -5.785  13.038  23.662  0.00  0.00    +0.000 A 
ATOM     31  C   UNL     1      -4.878  12.442  24.535  0.00  0.00    +0.000 A 
ATOM     32  C   UNL     1      -3.573  12.195  24.116  0.00  0.00    +0.000 A 
ATOM     33  C   UNL     1      -3.179  12.521  22.814  0.00  0.00    +0.000 A 
ENDBRANCH  27  28
ENDBRANCH   7  27
TORSDOF 7
ENDMDL
MODEL 9
REMARK VINA RESULT:      -5.7      3.770      5.612
REMARK  Name = 
REMARK  7 active torsions:
REMARK  status: ('A' for Active; 'I' for Inactive)
REMARK    1  A    between atoms: C_2  and  C_3
REMARK    2  A    between atoms: C_2  and  C_10
REMARK    3  A    between atoms: C_6  and  O_7
REMARK    4  A    between atoms: N_13  and  C_14
REMARK    5  A    between atoms: C_14  and  C_15
REMARK    6  A    between atoms: N_23  and  C_24
REMARK    7  A    between atoms: C_24  and  C_25
REMARK                            x       y       z     vdW  Elec       q    Type
REMARK                         _______ _______ _______ _____ _____    ______ ____
ROOT
ATOM      1  C   UNL     1      -0.243   9.904  19.552  0.00  0.00    +0.000 C 
ATOM      2  C   UNL     1      -1.260  10.431  18.600  0.00  0.00    +0.000 C 
ATOM      3  O   UNL     1      -1.566   9.765  17.609  0.00  0.00    +0.000 OA
ATOM      4  N   UNL     1      -1.848  11.647  18.903  0.00  0.00    +0.000 N 
ATOM      5  C   UNL     1      -1.476  12.469  19.961  0.00  0.00    +0.000 C 
ATOM      6  O   UNL     1      -2.069  13.524  20.197  0.00  0.00    +0.000 OA
ATOM      7  N   UNL     1      -0.487  11.993  20.804  0.00  0.00    +0.000 N 
ATOM      8  C   UNL     1      -0.122  10.665  20.831  0.00  0.00    +0.000 C 
ATOM      9  O   UNL     1       0.286  10.090  21.844  0.00  0.00    +0.000 OA
ENDROOT
BRANCH   1  11
ATOM     10  O   UNL     1       1.614  10.755  18.331  0.00  0.00    +0.000 OA
ATOM     11  C   UNL     1       1.110   9.782  18.896  0.00  0.00    +0.000 C 
BRANCH  11  12
ATOM     12  C   UNL     1       1.864   8.490  18.919  0.00  0.00    +0.000 A 
ATOM     13  C   UNL     1       2.677   8.197  17.812  0.00  0.00    +0.000 A 
ATOM     14  C   UNL     1       3.435   7.023  17.769  0.00  0.00    +0.000 A 
ATOM     15  C   UNL     1       3.381   6.141  18.841  0.00  0.00    +0.000 A 
ATOM     16  C   UNL     1       2.570   6.405  19.937  0.00  0.00    +0.000 A 
ATOM     17  C   UNL     1       1.805   7.576  19.978  0.00  0.00    +0.000 A 
BRANCH  15  18
ATOM     18  O   UNL     1       4.113   4.994  18.851  0.00  0.00    +0.000 OA
ATOM     19  H   UNL     1       3.958   4.516  18.019  0.00  0.00    +0.000 HD
ENDBRANCH  15  18
ENDBRANCH  11  12
ENDBRANCH   1  11
BRANCH   4  20
ATOM     20  C   UNL     1      -2.988  12.065  18.093  0.00  0.00    +0.000 C 
BRANCH  20  21
ATOM     21  C   UNL     1      -4.339  11.700  18.664  0.00  0.00    +0.000 A 
ATOM     22  C   UNL     1      -4.838  12.350  19.801  0.00  0.00    +0.000 A 
ATOM     23  C   UNL     1      -6.132  12.085  20.257  0.00  0.00    +0.000 A 
ATOM     24  C   UNL     1      -6.933  11.159  19.592  0.00  0.00    +0.000 A 
ATOM     25  C   UNL     1      -6.435  10.480  18.483  0.00  0.00    +0.000 A 
ATOM     26  C   UNL     1      -5.144  10.745  18.025  0.00  0.00    +0.000 A 
ENDBRANCH  20  21
ENDBRANCH   4  20
BRANCH   7  27
ATOM     27  C   UNL     1      -0.137  12.812  21.961  0.00  0.00    +0.000 C 
BRANCH  27  28
ATOM     28  C   UNL     1      -1.294  13.036  22.914  0.00  0.00    +0.000 A 
ATOM     29  C   UNL     1      -1.460  14.283  23.537  0.00  0.00    +0.000 A 
ATOM     30  C   UNL     1      -2.587  14.541  24.321  0.00  0.00    +0.000 A 
ATOM     31  C   UNL     1      -3.554  13.556  24.502  0.00  0.00    +0.000 A 
ATOM     32  C   UNL     1      -3.384  12.304  23.916  0.00  0.00    +0.000 A 
ATOM     33  C   UNL     1      -2.259  12.042  23.127  0.00  0.00    +0.000 A 
ENDBRANCH  27  28
ENDBRANCH   7  27
TORSDOF 7
ENDMDL
