MODEL 1
REMARK VINA RESULT:      -6.7      0.000      0.000
REMARK  Name = 
REMARK  10 active torsions:
REMARK  status: ('A' for Active; 'I' for Inactive)
REMARK    1  A    between atoms: C_1  and  C_2
REMARK    2  A    between atoms: C_2  and  C_3
REMARK    3  A    between atoms: N_5  and  C_6
REMARK    4  A    between atoms: C_14  and  C_15
REMARK    5  A    between atoms: N_16  and  C_17
REMARK    6  A    between atoms: C_17  and  C_18
REMARK    7  A    between atoms: C_25  and  C_26
REMARK    8  A    between atoms: C_27  and  O_28
REMARK    9  A    between atoms: O_28  and  C_29
REMARK   10  A    between atoms: N_31  and  C_32
REMARK                            x       y       z     vdW  Elec       q    Type
REMARK                         _______ _______ _______ _____ _____    ______ ____
ROOT
ATOM      1  C   UNL     1       6.563  14.895  18.165  0.00  0.00    +0.000 A 
ATOM      2  C   UNL     1       6.660  16.171  18.729  0.00  0.00    +0.000 A 
ATOM      3  C   UNL     1       5.529  16.809  19.235  0.00  0.00    +0.000 A 
ATOM      4  C   UNL     1       4.292  16.170  19.180  0.00  0.00    +0.000 A 
ATOM      5  C   UNL     1       4.179  14.866  18.665  0.00  0.00    +0.000 A 
ATOM      6  C   UNL     1       5.315  14.254  18.123  0.00  0.00    +0.000 A 
ATOM      7  O   UNL     1       2.956  14.276  18.765  0.00  0.00    +0.000 OA
ATOM      8  C   UNL     1       2.763  12.962  18.279  0.00  0.00    +0.000 C 
ATOM      9  C   UNL     1       1.251  12.495  18.266  0.00  0.00    +0.000 C 
ATOM     10  C   UNL     1       1.315  10.964  18.486  0.00  0.00    +0.000 C 
ATOM     11  N   UNL     1       0.262  13.196  19.145  0.00  0.00    +0.000 NA
ATOM     12  C   UNL     1       0.102  14.618  18.720  0.00  0.00    +0.000 C 
ATOM     13  C   UNL     1      -0.482  15.616  19.749  0.00  0.00    +0.000 C 
ATOM     14  C   UNL     1       0.119  15.498  21.150  0.00  0.00    +0.000 C 
ATOM     15  C   UNL     1      -0.433  17.083  19.198  0.00  0.00    +0.000 C 
ATOM     16  C   UNL     1       0.888  17.886  19.404  0.00  0.00    +0.000 C 
ATOM     17  N   UNL     1       2.116  17.300  18.856  0.00  0.00    +0.000 N 
ATOM     18  C   UNL     1       2.359  17.436  17.425  0.00  0.00    +0.000 C 
ATOM     19  C   UNL     1       3.127  16.895  19.733  0.00  0.00    +0.000 C 
ATOM     20  O   UNL     1       3.130  17.136  20.937  0.00  0.00    +0.000 OA
ENDROOT
BRANCH   1  23
ATOM     21  C   UNL     1       8.744  13.707  18.360  0.00  0.00    +0.000 C 
ATOM     22  O   UNL     1       8.863  13.744  19.580  0.00  0.00    +0.000 OA
ATOM     23  N   UNL     1       7.675  14.206  17.632  0.00  0.00    +0.000 N 
ATOM     24  H   UNL     1       7.635  13.963  16.649  0.00  0.00    +0.000 HD
BRANCH  21  26
ATOM     25  C   UNL     1      10.071  11.634  17.888  0.00  0.00    +0.000 C 
ATOM     26  C   UNL     1       9.800  13.073  17.477  0.00  0.00    +0.000 C 
ENDBRANCH  21  26
ENDBRANCH   1  23
BRANCH  15  27
ATOM     27  O   UNL     1      -0.777  17.127  17.798  0.00  0.00    +0.000 OA
ATOM     28  C   UNL     1      -1.044  18.435  17.309  0.00  0.00    +0.000 C 
ENDBRANCH  15  27
BRANCH  11  29
ATOM     29  C   UNL     1      -1.078  12.531  19.223  0.00  0.00    +0.000 C 
BRANCH  29  30
ATOM     30  C   UNL     1      -1.598  12.238  20.628  0.00  0.00    +0.000 A 
ATOM     31  C   UNL     1      -2.829  12.735  21.083  0.00  0.00    +0.000 A 
ATOM     32  C   UNL     1      -3.133  12.774  22.441  0.00  0.00    +0.000 A 
ATOM     33  C   UNL     1      -2.255  12.215  23.360  0.00  0.00    +0.000 A 
ATOM     34  C   UNL     1      -1.107  11.566  22.911  0.00  0.00    +0.000 A 
ATOM     35  C   UNL     1      -0.780  11.574  21.552  0.00  0.00    +0.000 A 
ENDBRANCH  29  30
ENDBRANCH  11  29
TORSDOF 5
ENDMDL
MODEL 2
REMARK VINA RESULT:      -6.6      2.883      8.739
REMARK  Name = 
REMARK  10 active torsions:
REMARK  status: ('A' for Active; 'I' for Inactive)
REMARK    1  A    between atoms: C_1  and  C_2
REMARK    2  A    between atoms: C_2  and  C_3
REMARK    3  A    between atoms: N_5  and  C_6
REMARK    4  A    between atoms: C_14  and  C_15
REMARK    5  A    between atoms: N_16  and  C_17
REMARK    6  A    between atoms: C_17  and  C_18
REMARK    7  A    between atoms: C_25  and  C_26
REMARK    8  A    between atoms: C_27  and  O_28
REMARK    9  A    between atoms: O_28  and  C_29
REMARK   10  A    between atoms: N_31  and  C_32
REMARK                            x       y       z     vdW  Elec       q    Type
REMARK                         _______ _______ _______ _____ _____    ______ ____
ROOT
ATOM      1  C   UNL     1       1.325  14.985  21.147  0.00  0.00    +0.000 A 
ATOM      2  C   UNL     1       1.216  15.649  19.921  0.00  0.00    +0.000 A 
ATOM      3  C   UNL     1       2.353  15.954  19.177  0.00  0.00    +0.000 A 
ATOM      4  C   UNL     1       3.611  15.594  19.657  0.00  0.00    +0.000 A 
ATOM      5  C   UNL     1       3.741  14.879  20.862  0.00  0.00    +0.000 A 
ATOM      6  C   UNL     1       2.594  14.616  21.618  0.00  0.00    +0.000 A 
ATOM      7  O   UNL     1       4.996  14.462  21.188  0.00  0.00    +0.000 OA
ATOM      8  C   UNL     1       5.210  13.730  22.379  0.00  0.00    +0.000 C 
ATOM      9  C   UNL     1       6.735  13.505  22.733  0.00  0.00    +0.000 C 
ATOM     10  C   UNL     1       6.765  12.152  23.484  0.00  0.00    +0.000 C 
ATOM     11  N   UNL     1       7.762  13.622  21.649  0.00  0.00    +0.000 NA
ATOM     12  C   UNL     1       7.815  15.021  21.130  0.00  0.00    +0.000 C 
ATOM     13  C   UNL     1       8.438  15.248  19.731  0.00  0.00    +0.000 C 
ATOM     14  C   UNL     1       7.967  14.256  18.666  0.00  0.00    +0.000 C 
ATOM     15  C   UNL     1       8.270  16.739  19.277  0.00  0.00    +0.000 C 
ATOM     16  C   UNL     1       6.934  17.131  18.573  0.00  0.00    +0.000 C 
ATOM     17  N   UNL     1       5.693  16.884  19.315  0.00  0.00    +0.000 N 
ATOM     18  C   UNL     1       5.320  17.831  20.359  0.00  0.00    +0.000 C 
ATOM     19  C   UNL     1       4.783  15.943  18.824  0.00  0.00    +0.000 C 
ATOM     20  O   UNL     1       4.873  15.408  17.722  0.00  0.00    +0.000 OA
ENDROOT
BRANCH   1  23
ATOM     21  C   UNL     1      -0.260  13.378  22.200  0.00  0.00    +0.000 C 
ATOM     22  O   UNL     1       0.255  12.334  21.814  0.00  0.00    +0.000 OA
ATOM     23  N   UNL     1       0.205  14.658  21.943  0.00  0.00    +0.000 N 
ATOM     24  H   UNL     1      -0.228  15.416  22.457  0.00  0.00    +0.000 HD
BRANCH  21  26
ATOM     25  C   UNL     1      -1.502  14.513  24.057  0.00  0.00    +0.000 C 
ATOM     26  C   UNL     1      -1.519  13.378  23.045  0.00  0.00    +0.000 C 
ENDBRANCH  21  26
ENDBRANCH   1  23
BRANCH  15  27
ATOM     27  O   UNL     1       8.488  17.647  20.375  0.00  0.00    +0.000 OA
ATOM     28  C   UNL     1       9.731  18.335  20.317  0.00  0.00    +0.000 C 
ENDBRANCH  15  27
BRANCH  11  29
ATOM     29  C   UNL     1       9.134  13.170  22.044  0.00  0.00    +0.000 C 
BRANCH  29  30
ATOM     30  C   UNL     1       9.891  12.347  21.005  0.00  0.00    +0.000 A 
ATOM     31  C   UNL     1      11.102  12.786  20.447  0.00  0.00    +0.000 A 
ATOM     32  C   UNL     1      11.597  12.229  19.271  0.00  0.00    +0.000 A 
ATOM     33  C   UNL     1      10.945  11.149  18.692  0.00  0.00    +0.000 A 
ATOM     34  C   UNL     1       9.836  10.591  19.325  0.00  0.00    +0.000 A 
ATOM     35  C   UNL     1       9.312  11.185  20.477  0.00  0.00    +0.000 A 
ENDBRANCH  29  30
ENDBRANCH  11  29
TORSDOF 5
ENDMDL
MODEL 3
REMARK VINA RESULT:      -6.6      5.338      8.555
REMARK  Name = 
REMARK  10 active torsions:
REMARK  status: ('A' for Active; 'I' for Inactive)
REMARK    1  A    between atoms: C_1  and  C_2
REMARK    2  A    between atoms: C_2  and  C_3
REMARK    3  A    between atoms: N_5  and  C_6
REMARK    4  A    between atoms: C_14  and  C_15
REMARK    5  A    between atoms: N_16  and  C_17
REMARK    6  A    between atoms: C_17  and  C_18
REMARK    7  A    between atoms: C_25  and  C_26
REMARK    8  A    between atoms: C_27  and  O_28
REMARK    9  A    between atoms: O_28  and  C_29
REMARK   10  A    between atoms: N_31  and  C_32
REMARK                            x       y       z     vdW  Elec       q    Type
REMARK                         _______ _______ _______ _____ _____    ______ ____
ROOT
ATOM      1  C   UNL     1      -3.371  10.381  16.340  0.00  0.00    +0.000 A 
ATOM      2  C   UNL     1      -2.031   9.985  16.393  0.00  0.00    +0.000 A 
ATOM      3  C   UNL     1      -1.262  10.234  17.527  0.00  0.00    +0.000 A 
ATOM      4  C   UNL     1      -1.833  10.884  18.620  0.00  0.00    +0.000 A 
ATOM      5  C   UNL     1      -3.193  11.245  18.610  0.00  0.00    +0.000 A 
ATOM      6  C   UNL     1      -3.942  11.025  17.448  0.00  0.00    +0.000 A 
ATOM      7  O   UNL     1      -3.692  11.762  19.767  0.00  0.00    +0.000 OA
ATOM      8  C   UNL     1      -5.053  12.141  19.842  0.00  0.00    +0.000 C 
ATOM      9  C   UNL     1      -5.434  12.920  21.165  0.00  0.00    +0.000 C 
ATOM     10  C   UNL     1      -6.914  12.549  21.423  0.00  0.00    +0.000 C 
ATOM     11  N   UNL     1      -4.554  12.788  22.369  0.00  0.00    +0.000 NA
ATOM     12  C   UNL     1      -3.207  13.372  22.099  0.00  0.00    +0.000 C 
ATOM     13  C   UNL     1      -2.032  12.926  23.003  0.00  0.00    +0.000 C 
ATOM     14  C   UNL     1      -1.967  11.419  23.250  0.00  0.00    +0.000 C 
ATOM     15  C   UNL     1      -0.672  13.507  22.484  0.00  0.00    +0.000 C 
ATOM     16  C   UNL     1       0.080  12.702  21.379  0.00  0.00    +0.000 C 
ATOM     17  N   UNL     1      -0.649  12.440  20.134  0.00  0.00    +0.000 N 
ATOM     18  C   UNL     1      -0.747  13.520  19.159  0.00  0.00    +0.000 C 
ATOM     19  C   UNL     1      -0.969  11.122  19.798  0.00  0.00    +0.000 C 
ATOM     20  O   UNL     1      -0.548  10.137  20.399  0.00  0.00    +0.000 OA
ENDROOT
BRANCH   1  23
ATOM     21  C   UNL     1      -3.748   9.936  13.918  0.00  0.00    +0.000 C 
ATOM     22  O   UNL     1      -2.577   9.852  13.564  0.00  0.00    +0.000 OA
ATOM     23  N   UNL     1      -4.192  10.159  15.213  0.00  0.00    +0.000 N 
ATOM     24  H   UNL     1      -5.184  10.045  15.384  0.00  0.00    +0.000 HD
BRANCH  21  26
ATOM     25  C   UNL     1      -4.380   9.770  11.499  0.00  0.00    +0.000 C 
ATOM     26  C   UNL     1      -4.890   9.793  12.932  0.00  0.00    +0.000 C 
ENDBRANCH  21  26
ENDBRANCH   1  23
BRANCH  15  27
ATOM     27  O   UNL     1      -0.824  14.867  22.031  0.00  0.00    +0.000 OA
ATOM     28  C   UNL     1       0.330  15.674  22.227  0.00  0.00    +0.000 C 
ENDBRANCH  15  27
BRANCH  11  29
ATOM     29  C   UNL     1      -5.125  13.379  23.622  0.00  0.00    +0.000 C 
BRANCH  29  30
ATOM     30  C   UNL     1      -5.028  14.898  23.748  0.00  0.00    +0.000 A 
ATOM     31  C   UNL     1      -4.062  15.516  24.557  0.00  0.00    +0.000 A 
ATOM     32  C   UNL     1      -4.194  16.845  24.949  0.00  0.00    +0.000 A 
ATOM     33  C   UNL     1      -5.238  17.611  24.448  0.00  0.00    +0.000 A 
ATOM     34  C   UNL     1      -6.109  17.061  23.511  0.00  0.00    +0.000 A 
ATOM     35  C   UNL     1      -6.005  15.712  23.159  0.00  0.00    +0.000 A 
ENDBRANCH  29  30
ENDBRANCH  11  29
TORSDOF 5
ENDMDL
MODEL 4
REMARK VINA RESULT:      -6.6      5.111      6.888
REMARK  Name = 
REMARK  10 active torsions:
REMARK  status: ('A' for Active; 'I' for Inactive)
REMARK    1  A    between atoms: C_1  and  C_2
REMARK    2  A    between atoms: C_2  and  C_3
REMARK    3  A    between atoms: N_5  and  C_6
REMARK    4  A    between atoms: C_14  and  C_15
REMARK    5  A    between atoms: N_16  and  C_17
REMARK    6  A    between atoms: C_17  and  C_18
REMARK    7  A    between atoms: C_25  and  C_26
REMARK    8  A    between atoms: C_27  and  O_28
REMARK    9  A    between atoms: O_28  and  C_29
REMARK   10  A    between atoms: N_31  and  C_32
REMARK                            x       y       z     vdW  Elec       q    Type
REMARK                         _______ _______ _______ _____ _____    ______ ____
ROOT
ATOM      1  C   UNL     1       1.678   8.030  20.545  0.00  0.00    +0.000 A 
ATOM      2  C   UNL     1       1.982   8.421  21.853  0.00  0.00    +0.000 A 
ATOM      3  C   UNL     1       1.294   9.471  22.456  0.00  0.00    +0.000 A 
ATOM      4  C   UNL     1       0.292  10.136  21.751  0.00  0.00    +0.000 A 
ATOM      5  C   UNL     1      -0.067   9.726  20.454  0.00  0.00    +0.000 A 
ATOM      6  C   UNL     1       0.661   8.697  19.846  0.00  0.00    +0.000 A 
ATOM      7  O   UNL     1      -1.138  10.353  19.893  0.00  0.00    +0.000 OA
ATOM      8  C   UNL     1      -1.568   9.992  18.596  0.00  0.00    +0.000 C 
ATOM      9  C   UNL     1      -2.677  10.948  17.994  0.00  0.00    +0.000 C 
ATOM     10  C   UNL     1      -3.517  10.035  17.069  0.00  0.00    +0.000 C 
ATOM     11  N   UNL     1      -3.494  11.793  18.921  0.00  0.00    +0.000 NA
ATOM     12  C   UNL     1      -2.629  12.795  19.612  0.00  0.00    +0.000 C 
ATOM     13  C   UNL     1      -3.161  13.425  20.923  0.00  0.00    +0.000 C 
ATOM     14  C   UNL     1      -3.772  12.419  21.900  0.00  0.00    +0.000 C 
ATOM     15  C   UNL     1      -2.070  14.327  21.596  0.00  0.00    +0.000 C 
ATOM     16  C   UNL     1      -1.038  13.629  22.535  0.00  0.00    +0.000 C 
ATOM     17  N   UNL     1      -0.239  12.543  21.957  0.00  0.00    +0.000 N 
ATOM     18  C   UNL     1       0.898  12.903  21.117  0.00  0.00    +0.000 C 
ATOM     19  C   UNL     1      -0.406  11.243  22.443  0.00  0.00    +0.000 C 
ATOM     20  O   UNL     1      -1.070  10.960  23.437  0.00  0.00    +0.000 OA
ENDROOT
BRANCH   1  23
ATOM     21  C   UNL     1       2.097   5.624  20.052  0.00  0.00    +0.000 C 
ATOM     22  O   UNL     1       1.223   5.137  20.761  0.00  0.00    +0.000 OA
ATOM     23  N   UNL     1       2.350   6.977  19.884  0.00  0.00    +0.000 N 
ATOM     24  H   UNL     1       2.994   7.237  19.148  0.00  0.00    +0.000 HD
BRANCH  21  26
ATOM     25  C   UNL     1       2.313   4.114  18.063  0.00  0.00    +0.000 C 
ATOM     26  C   UNL     1       3.036   4.756  19.237  0.00  0.00    +0.000 C 
ENDBRANCH  21  26
ENDBRANCH   1  23
BRANCH  15  27
ATOM     27  O   UNL     1      -1.345  15.091  20.611  0.00  0.00    +0.000 OA
ATOM     28  C   UNL     1      -0.784  16.297  21.114  0.00  0.00    +0.000 C 
ENDBRANCH  15  27
BRANCH  11  29
ATOM     29  C   UNL     1      -4.655  12.481  18.271  0.00  0.00    +0.000 C 
BRANCH  29  30
ATOM     30  C   UNL     1      -5.937  12.553  19.096  0.00  0.00    +0.000 A 
ATOM     31  C   UNL     1      -6.509  13.777  19.476  0.00  0.00    +0.000 A 
ATOM     32  C   UNL     1      -7.447  13.846  20.503  0.00  0.00    +0.000 A 
ATOM     33  C   UNL     1      -7.910  12.678  21.093  0.00  0.00    +0.000 A 
ATOM     34  C   UNL     1      -7.478  11.444  20.614  0.00  0.00    +0.000 A 
ATOM     35  C   UNL     1      -6.498  11.379  19.618  0.00  0.00    +0.000 A 
ENDBRANCH  29  30
ENDBRANCH  11  29
TORSDOF 5
ENDMDL
MODEL 5
REMARK VINA RESULT:      -6.4      5.322      8.452
REMARK  Name = 
REMARK  10 active torsions:
REMARK  status: ('A' for Active; 'I' for Inactive)
REMARK    1  A    between atoms: C_1  and  C_2
REMARK    2  A    between atoms: C_2  and  C_3
REMARK    3  A    between atoms: N_5  and  C_6
REMARK    4  A    between atoms: C_14  and  C_15
REMARK    5  A    between atoms: N_16  and  C_17
REMARK    6  A    between atoms: C_17  and  C_18
REMARK    7  A    between atoms: C_25  and  C_26
REMARK    8  A    between atoms: C_27  and  O_28
REMARK    9  A    between atoms: O_28  and  C_29
REMARK   10  A    between atoms: N_31  and  C_32
REMARK                            x       y       z     vdW  Elec       q    Type
REMARK                         _______ _______ _______ _____ _____    ______ ____
ROOT
ATOM      1  C   UNL     1      -3.339  10.294  16.283  0.00  0.00    +0.000 A 
ATOM      2  C   UNL     1      -2.030   9.814  16.385  0.00  0.00    +0.000 A 
ATOM      3  C   UNL     1      -1.263  10.081  17.516  0.00  0.00    +0.000 A 
ATOM      4  C   UNL     1      -1.805  10.833  18.557  0.00  0.00    +0.000 A 
ATOM      5  C   UNL     1      -3.137  11.282  18.501  0.00  0.00    +0.000 A 
ATOM      6  C   UNL     1      -3.882  11.041  17.340  0.00  0.00    +0.000 A 
ATOM      7  O   UNL     1      -3.618  11.900  19.614  0.00  0.00    +0.000 OA
ATOM      8  C   UNL     1      -4.951  12.373  19.641  0.00  0.00    +0.000 C 
ATOM      9  C   UNL     1      -5.298  13.254  20.908  0.00  0.00    +0.000 C 
ATOM     10  C   UNL     1      -6.803  12.998  21.160  0.00  0.00    +0.000 C 
ATOM     11  N   UNL     1      -4.446  13.138  22.134  0.00  0.00    +0.000 NA
ATOM     12  C   UNL     1      -3.059  13.614  21.854  0.00  0.00    +0.000 C 
ATOM     13  C   UNL     1      -1.931  13.148  22.805  0.00  0.00    +0.000 C 
ATOM     14  C   UNL     1      -1.971  11.658  23.144  0.00  0.00    +0.000 C 
ATOM     15  C   UNL     1      -0.527  13.605  22.278  0.00  0.00    +0.000 C 
ATOM     16  C   UNL     1       0.185  12.686  21.238  0.00  0.00    +0.000 C 
ATOM     17  N   UNL     1      -0.541  12.397  19.997  0.00  0.00    +0.000 N 
ATOM     18  C   UNL     1      -0.552  13.420  18.957  0.00  0.00    +0.000 C 
ATOM     19  C   UNL     1      -0.945  11.085  19.734  0.00  0.00    +0.000 C 
ATOM     20  O   UNL     1      -0.599  10.113  20.401  0.00  0.00    +0.000 OA
ENDROOT
BRANCH   1  23
ATOM     21  C   UNL     1      -3.711   9.868  13.857  0.00  0.00    +0.000 C 
ATOM     22  O   UNL     1      -2.540   9.829  13.497  0.00  0.00    +0.000 OA
ATOM     23  N   UNL     1      -4.157  10.058  15.156  0.00  0.00    +0.000 N 
ATOM     24  H   UNL     1      -5.144   9.907  15.330  0.00  0.00    +0.000 HD
BRANCH  21  26
ATOM     25  C   UNL     1      -4.381   9.910  11.443  0.00  0.00    +0.000 C 
ATOM     26  C   UNL     1      -4.852   9.698  12.873  0.00  0.00    +0.000 C 
ENDBRANCH  21  26
ENDBRANCH   1  23
BRANCH  15  27
ATOM     27  O   UNL     1      -0.581  14.942  21.741  0.00  0.00    +0.000 OA
ATOM     28  C   UNL     1      -0.174  15.950  22.658  0.00  0.00    +0.000 C 
ENDBRANCH  15  27
BRANCH  11  29
ATOM     29  C   UNL     1      -4.995  13.841  23.338  0.00  0.00    +0.000 C 
BRANCH  29  30
ATOM     30  C   UNL     1      -4.686  15.333  23.439  0.00  0.00    +0.000 A 
ATOM     31  C   UNL     1      -5.124  16.250  22.470  0.00  0.00    +0.000 A 
ATOM     32  C   UNL     1      -4.555  17.517  22.368  0.00  0.00    +0.000 A 
ATOM     33  C   UNL     1      -3.615  17.928  23.303  0.00  0.00    +0.000 A 
ATOM     34  C   UNL     1      -3.293  17.093  24.371  0.00  0.00    +0.000 A 
ATOM     35  C   UNL     1      -3.826  15.803  24.441  0.00  0.00    +0.000 A 
ENDBRANCH  29  30
ENDBRANCH  11  29
TORSDOF 5
ENDMDL
MODEL 6
REMARK VINA RESULT:      -6.3      4.919      6.500
REMARK  Name = 
REMARK  10 active torsions:
REMARK  status: ('A' for Active; 'I' for Inactive)
REMARK    1  A    between atoms: C_1  and  C_2
REMARK    2  A    between atoms: C_2  and  C_3
REMARK    3  A    between atoms: N_5  and  C_6
REMARK    4  A    between atoms: C_14  and  C_15
REMARK    5  A    between atoms: N_16  and  C_17
REMARK    6  A    between atoms: C_17  and  C_18
REMARK    7  A    between atoms: C_25  and  C_26
REMARK    8  A    between atoms: C_27  and  O_28
REMARK    9  A    between atoms: O_28  and  C_29
REMARK   10  A    between atoms: N_31  and  C_32
REMARK                            x       y       z     vdW  Elec       q    Type
REMARK                         _______ _______ _______ _____ _____    ______ ____
ROOT
ATOM      1  C   UNL     1       1.573   8.051  20.339  0.00  0.00    +0.000 A 
ATOM      2  C   UNL     1       1.926   8.388  21.649  0.00  0.00    +0.000 A 
ATOM      3  C   UNL     1       1.269   9.419  22.317  0.00  0.00    +0.000 A 
ATOM      4  C   UNL     1       0.251  10.120  21.674  0.00  0.00    +0.000 A 
ATOM      5  C   UNL     1      -0.157   9.764  20.375  0.00  0.00    +0.000 A 
ATOM      6  C   UNL     1       0.539   8.754  19.702  0.00  0.00    +0.000 A 
ATOM      7  O   UNL     1      -1.240  10.422  19.877  0.00  0.00    +0.000 OA
ATOM      8  C   UNL     1      -1.718  10.116  18.581  0.00  0.00    +0.000 C 
ATOM      9  C   UNL     1      -2.837  11.104  18.057  0.00  0.00    +0.000 C 
ATOM     10  C   UNL     1      -3.718  10.235  17.127  0.00  0.00    +0.000 C 
ATOM     11  N   UNL     1      -3.614  11.919  19.044  0.00  0.00    +0.000 NA
ATOM     12  C   UNL     1      -2.716  12.886  19.743  0.00  0.00    +0.000 C 
ATOM     13  C   UNL     1      -3.196  13.468  21.095  0.00  0.00    +0.000 C 
ATOM     14  C   UNL     1      -3.783  12.430  22.052  0.00  0.00    +0.000 C 
ATOM     15  C   UNL     1      -2.074  14.334  21.764  0.00  0.00    +0.000 C 
ATOM     16  C   UNL     1      -1.017  13.590  22.638  0.00  0.00    +0.000 C 
ATOM     17  N   UNL     1      -0.249  12.522  21.991  0.00  0.00    +0.000 N 
ATOM     18  C   UNL     1       0.862  12.904  21.128  0.00  0.00    +0.000 C 
ATOM     19  C   UNL     1      -0.412  11.205  22.432  0.00  0.00    +0.000 C 
ATOM     20  O   UNL     1      -1.044  10.888  23.436  0.00  0.00    +0.000 OA
ENDROOT
BRANCH   1  23
ATOM     21  C   UNL     1       2.838   7.160  18.386  0.00  0.00    +0.000 C 
ATOM     22  O   UNL     1       2.976   8.208  17.764  0.00  0.00    +0.000 OA
ATOM     23  N   UNL     1       2.211   7.019  19.615  0.00  0.00    +0.000 N 
ATOM     24  H   UNL     1       2.313   6.126  20.083  0.00  0.00    +0.000 HD
BRANCH  21  26
ATOM     25  C   UNL     1       4.874   5.908  17.633  0.00  0.00    +0.000 C 
ATOM     26  C   UNL     1       3.371   5.844  17.854  0.00  0.00    +0.000 C 
ENDBRANCH  21  26
ENDBRANCH   1  23
BRANCH  15  27
ATOM     27  O   UNL     1      -1.375  15.129  20.786  0.00  0.00    +0.000 OA
ATOM     28  C   UNL     1      -1.858  16.462  20.673  0.00  0.00    +0.000 C 
ENDBRANCH  15  27
BRANCH  11  29
ATOM     29  C   UNL     1      -4.789  12.642  18.461  0.00  0.00    +0.000 C 
BRANCH  29  30
ATOM     30  C   UNL     1      -6.033  12.714  19.344  0.00  0.00    +0.000 A 
ATOM     31  C   UNL     1      -6.565  13.937  19.781  0.00  0.00    +0.000 A 
ATOM     32  C   UNL     1      -7.456  13.994  20.849  0.00  0.00    +0.000 A 
ATOM     33  C   UNL     1      -7.916  12.819  21.427  0.00  0.00    +0.000 A 
ATOM     34  C   UNL     1      -7.530  11.591  20.895  0.00  0.00    +0.000 A 
ATOM     35  C   UNL     1      -6.595  11.537  19.857  0.00  0.00    +0.000 A 
ENDBRANCH  29  30
ENDBRANCH  11  29
TORSDOF 5
ENDMDL
MODEL 7
REMARK VINA RESULT:      -6.1      1.340      1.685
REMARK  Name = 
REMARK  10 active torsions:
REMARK  status: ('A' for Active; 'I' for Inactive)
REMARK    1  A    between atoms: C_1  and  C_2
REMARK    2  A    between atoms: C_2  and  C_3
REMARK    3  A    between atoms: N_5  and  C_6
REMARK    4  A    between atoms: C_14  and  C_15
REMARK    5  A    between atoms: N_16  and  C_17
REMARK    6  A    between atoms: C_17  and  C_18
REMARK    7  A    between atoms: C_25  and  C_26
REMARK    8  A    between atoms: C_27  and  O_28
REMARK    9  A    between atoms: O_28  and  C_29
REMARK   10  A    between atoms: N_31  and  C_32
REMARK                            x       y       z     vdW  Elec       q    Type
REMARK                         _______ _______ _______ _____ _____    ______ ____
ROOT
ATOM      1  C   UNL     1       6.450  16.091  18.707  0.00  0.00    +0.000 A 
ATOM      2  C   UNL     1       6.327  17.212  19.534  0.00  0.00    +0.000 A 
ATOM      3  C   UNL     1       5.130  17.475  20.196  0.00  0.00    +0.000 A 
ATOM      4  C   UNL     1       4.046  16.614  20.033  0.00  0.00    +0.000 A 
ATOM      5  C   UNL     1       4.163  15.453  19.249  0.00  0.00    +0.000 A 
ATOM      6  C   UNL     1       5.358  15.223  18.557  0.00  0.00    +0.000 A 
ATOM      7  O   UNL     1       3.094  14.609  19.249  0.00  0.00    +0.000 OA
ATOM      8  C   UNL     1       3.136  13.415  18.492  0.00  0.00    +0.000 C 
ATOM      9  C   UNL     1       1.753  12.650  18.416  0.00  0.00    +0.000 C 
ATOM     10  C   UNL     1       2.140  11.157  18.294  0.00  0.00    +0.000 C 
ATOM     11  N   UNL     1       0.707  12.926  19.452  0.00  0.00    +0.000 NA
ATOM     12  C   UNL     1       0.234  14.338  19.352  0.00  0.00    +0.000 C 
ATOM     13  C   UNL     1      -0.466  14.953  20.589  0.00  0.00    +0.000 C 
ATOM     14  C   UNL     1       0.244  14.676  21.914  0.00  0.00    +0.000 C 
ATOM     15  C   UNL     1      -0.753  16.479  20.371  0.00  0.00    +0.000 C 
ATOM     16  C   UNL     1       0.390  17.482  20.714  0.00  0.00    +0.000 C 
ATOM     17  N   UNL     1       1.669  17.299  20.020  0.00  0.00    +0.000 N 
ATOM     18  C   UNL     1       1.777  17.779  18.648  0.00  0.00    +0.000 C 
ATOM     19  C   UNL     1       2.800  16.944  20.761  0.00  0.00    +0.000 C 
ATOM     20  O   UNL     1       2.840  16.923  21.989  0.00  0.00    +0.000 OA
ENDROOT
BRANCH   1  23
ATOM     21  C   UNL     1       8.743  15.132  18.536  0.00  0.00    +0.000 C 
ATOM     22  O   UNL     1       8.839  14.687  19.675  0.00  0.00    +0.000 OA
ATOM     23  N   UNL     1       7.638  15.781  18.008  0.00  0.00    +0.000 N 
ATOM     24  H   UNL     1       7.639  15.951  17.009  0.00  0.00    +0.000 HD
BRANCH  21  26
ATOM     25  C   UNL     1      10.360  16.375  17.080  0.00  0.00    +0.000 C 
ATOM     26  C   UNL     1       9.874  15.008  17.535  0.00  0.00    +0.000 C 
ENDBRANCH  21  26
ENDBRANCH   1  23
BRANCH  15  27
ATOM     27  O   UNL     1      -1.197  16.739  19.024  0.00  0.00    +0.000 OA
ATOM     28  C   UNL     1      -2.022  17.890  18.900  0.00  0.00    +0.000 C 
ENDBRANCH  15  27
BRANCH  11  29
ATOM     29  C   UNL     1      -0.462  11.990  19.416  0.00  0.00    +0.000 C 
BRANCH  29  30
ATOM     30  C   UNL     1      -0.665  11.127  20.659  0.00  0.00    +0.000 A 
ATOM     31  C   UNL     1      -1.305  11.618  21.808  0.00  0.00    +0.000 A 
ATOM     32  C   UNL     1      -1.176  10.974  23.035  0.00  0.00    +0.000 A 
ATOM     33  C   UNL     1      -0.493   9.767  23.112  0.00  0.00    +0.000 A 
ATOM     34  C   UNL     1       0.004   9.180  21.951  0.00  0.00    +0.000 A 
ATOM     35  C   UNL     1      -0.082   9.854  20.729  0.00  0.00    +0.000 A 
ENDBRANCH  29  30
ENDBRANCH  11  29
TORSDOF 5
ENDMDL
MODEL 8
REMARK VINA RESULT:      -6.0      6.932      9.438
REMARK  Name = 
REMARK  10 active torsions:
REMARK  status: ('A' for Active; 'I' for Inactive)
REMARK    1  A    between atoms: C_1  and  C_2
REMARK    2  A    between atoms: C_2  and  C_3
REMARK    3  A    between atoms: N_5  and  C_6
REMARK    4  A    between atoms: C_14  and  C_15
REMARK    5  A    between atoms: N_16  and  C_17
REMARK    6  A    between atoms: C_17  and  C_18
REMARK    7  A    between atoms: C_25  and  C_26
REMARK    8  A    between atoms: C_27  and  O_28
REMARK    9  A    between atoms: O_28  and  C_29
REMARK   10  A    between atoms: N_31  and  C_32
REMARK                            x       y       z     vdW  Elec       q    Type
REMARK                         _______ _______ _______ _____ _____    ______ ____
ROOT
ATOM      1  C   UNL     1       9.352  10.340  19.208  0.00  0.00    +0.000 A 
ATOM      2  C   UNL     1      10.009  11.079  18.219  0.00  0.00    +0.000 A 
ATOM      3  C   UNL     1      10.298  12.427  18.416  0.00  0.00    +0.000 A 
ATOM      4  C   UNL     1       9.931  13.045  19.610  0.00  0.00    +0.000 A 
ATOM      5  C   UNL     1       9.317  12.309  20.640  0.00  0.00    +0.000 A 
ATOM      6  C   UNL     1       8.995  10.967  20.412  0.00  0.00    +0.000 A 
ATOM      7  O   UNL     1       9.108  12.966  21.814  0.00  0.00    +0.000 OA
ATOM      8  C   UNL     1       8.503  12.295  22.902  0.00  0.00    +0.000 C 
ATOM      9  C   UNL     1       8.129  13.238  24.116  0.00  0.00    +0.000 C 
ATOM     10  C   UNL     1       8.253  12.333  25.365  0.00  0.00    +0.000 C 
ATOM     11  N   UNL     1       8.817  14.561  24.252  0.00  0.00    +0.000 NA
ATOM     12  C   UNL     1       8.465  15.452  23.108  0.00  0.00    +0.000 C 
ATOM     13  C   UNL     1       9.406  16.643  22.804  0.00  0.00    +0.000 C 
ATOM     14  C   UNL     1      10.893  16.287  22.821  0.00  0.00    +0.000 C 
ATOM     15  C   UNL     1       8.980  17.374  21.485  0.00  0.00    +0.000 C 
ATOM     16  C   UNL     1       9.524  16.805  20.138  0.00  0.00    +0.000 C 
ATOM     17  N   UNL     1       9.218  15.402  19.836  0.00  0.00    +0.000 N 
ATOM     18  C   UNL     1       7.887  15.086  19.333  0.00  0.00    +0.000 C 
ATOM     19  C   UNL     1      10.265  14.478  19.765  0.00  0.00    +0.000 C 
ATOM     20  O   UNL     1      11.454  14.783  19.785  0.00  0.00    +0.000 OA
ENDROOT
BRANCH   1  23
ATOM     21  C   UNL     1       8.120   8.452  18.148  0.00  0.00    +0.000 C 
ATOM     22  O   UNL     1       7.494   9.091  17.308  0.00  0.00    +0.000 OA
ATOM     23  N   UNL     1       9.028   8.973  19.056  0.00  0.00    +0.000 N 
ATOM     24  H   UNL     1       9.587   8.310  19.580  0.00  0.00    +0.000 HD
BRANCH  21  26
ATOM     25  C   UNL     1       7.128   6.379  17.149  0.00  0.00    +0.000 C 
ATOM     26  C   UNL     1       7.962   6.950  18.285  0.00  0.00    +0.000 C 
ENDBRANCH  21  26
ENDBRANCH   1  23
BRANCH  15  27
ATOM     27  O   UNL     1       7.546  17.481  21.387  0.00  0.00    +0.000 OA
ATOM     28  C   UNL     1       7.100  18.580  20.604  0.00  0.00    +0.000 C 
ENDBRANCH  15  27
BRANCH  11  29
ATOM     29  C   UNL     1       8.555  15.265  25.548  0.00  0.00    +0.000 C 
BRANCH  29  30
ATOM     30  C   UNL     1       9.776  15.520  26.428  0.00  0.00    +0.000 A 
ATOM     31  C   UNL     1      10.198  14.598  27.399  0.00  0.00    +0.000 A 
ATOM     32  C   UNL     1      11.067  14.974  28.420  0.00  0.00    +0.000 A 
ATOM     33  C   UNL     1      11.615  16.250  28.424  0.00  0.00    +0.000 A 
ATOM     34  C   UNL     1      11.339  17.123  27.374  0.00  0.00    +0.000 A 
ATOM     35  C   UNL     1      10.427  16.760  26.379  0.00  0.00    +0.000 A 
ENDBRANCH  29  30
ENDBRANCH  11  29
TORSDOF 5
ENDMDL
MODEL 9
REMARK VINA RESULT:      -5.9      5.455      7.181
REMARK  Name = 
REMARK  10 active torsions:
REMARK  status: ('A' for Active; 'I' for Inactive)
REMARK    1  A    between atoms: C_1  and  C_2
REMARK    2  A    between atoms: C_2  and  C_3
REMARK    3  A    between atoms: N_5  and  C_6
REMARK    4  A    between atoms: C_14  and  C_15
REMARK    5  A    between atoms: N_16  and  C_17
REMARK    6  A    between atoms: C_17  and  C_18
REMARK    7  A    between atoms: C_25  and  C_26
REMARK    8  A    between atoms: C_27  and  O_28
REMARK    9  A    between atoms: O_28  and  C_29
REMARK   10  A    between atoms: N_31  and  C_32
REMARK                            x       y       z     vdW  Elec       q    Type
REMARK                         _______ _______ _______ _____ _____    ______ ____
ROOT
ATOM      1  C   UNL     1       0.643  10.065  19.705  0.00  0.00    +0.000 A 
ATOM      2  C   UNL     1       1.019  10.284  21.034  0.00  0.00    +0.000 A 
ATOM      3  C   UNL     1       0.197  11.011  21.892  0.00  0.00    +0.000 A 
ATOM      4  C   UNL     1      -1.010  11.525  21.422  0.00  0.00    +0.000 A 
ATOM      5  C   UNL     1      -1.433  11.274  20.104  0.00  0.00    +0.000 A 
ATOM      6  C   UNL     1      -0.579  10.577  19.242  0.00  0.00    +0.000 A 
ATOM      7  O   UNL     1      -2.680  11.709  19.772  0.00  0.00    +0.000 OA
ATOM      8  C   UNL     1      -3.183  11.488  18.469  0.00  0.00    +0.000 C 
ATOM      9  C   UNL     1      -4.545  12.234  18.167  0.00  0.00    +0.000 C 
ATOM     10  C   UNL     1      -5.273  11.321  17.152  0.00  0.00    +0.000 C 
ATOM     11  N   UNL     1      -5.403  12.679  19.311  0.00  0.00    +0.000 NA
ATOM     12  C   UNL     1      -4.702  13.724  20.114  0.00  0.00    +0.000 C 
ATOM     13  C   UNL     1      -5.187  13.965  21.564  0.00  0.00    +0.000 C 
ATOM     14  C   UNL     1      -5.427  12.686  22.367  0.00  0.00    +0.000 C 
ATOM     15  C   UNL     1      -4.248  14.974  22.310  0.00  0.00    +0.000 C 
ATOM     16  C   UNL     1      -2.974  14.395  23.000  0.00  0.00    +0.000 C 
ATOM     17  N   UNL     1      -2.034  13.656  22.150  0.00  0.00    +0.000 N 
ATOM     18  C   UNL     1      -1.124  14.423  21.308  0.00  0.00    +0.000 C 
ATOM     19  C   UNL     1      -1.842  12.290  22.377  0.00  0.00    +0.000 C 
ATOM     20  O   UNL     1      -2.292  11.684  23.346  0.00  0.00    +0.000 OA
ENDROOT
BRANCH   1  23
ATOM     21  C   UNL     1       2.067   8.130  19.047  0.00  0.00    +0.000 C 
ATOM     22  O   UNL     1       1.985   7.482  20.084  0.00  0.00    +0.000 OA
ATOM     23  N   UNL     1       1.442   9.341  18.792  0.00  0.00    +0.000 N 
ATOM     24  H   UNL     1       1.470   9.681  17.838  0.00  0.00    +0.000 HD
BRANCH  21  26
ATOM     25  C   UNL     1       3.155   6.153  17.956  0.00  0.00    +0.000 C 
ATOM     26  C   UNL     1       2.897   7.650  17.872  0.00  0.00    +0.000 C 
ENDBRANCH  21  26
ENDBRANCH   1  23
BRANCH  15  27
ATOM     27  O   UNL     1      -3.844  16.052  21.442  0.00  0.00    +0.000 OA
ATOM     28  C   UNL     1      -3.612  17.281  22.117  0.00  0.00    +0.000 C 
ENDBRANCH  15  27
BRANCH  11  29
ATOM     29  C   UNL     1      -6.762  13.166  18.911  0.00  0.00    +0.000 C 
BRANCH  29  30
ATOM     30  C   UNL     1      -6.799  14.477  18.130  0.00  0.00    +0.000 A 
ATOM     31  C   UNL     1      -6.856  15.724  18.773  0.00  0.00    +0.000 A 
ATOM     32  C   UNL     1      -7.244  16.872  18.087  0.00  0.00    +0.000 A 
ATOM     33  C   UNL     1      -7.474  16.812  16.719  0.00  0.00    +0.000 A 
ATOM     34  C   UNL     1      -7.257  15.618  16.034  0.00  0.00    +0.000 A 
ATOM     35  C   UNL     1      -6.919  14.457  16.734  0.00  0.00    +0.000 A 
ENDBRANCH  29  30
ENDBRANCH  11  29
TORSDOF 5
ENDMDL
