MODEL 1
REMARK VINA RESULT:      -9.0      0.000      0.000
REMARK  Name = 
REMARK  10 active torsions:
REMARK  status: ('A' for Active; 'I' for Inactive)
REMARK    1  A    between atoms: C_2  and  C_3
REMARK    2  A    between atoms: C_3  and  C_4
REMARK    3  A    between atoms: N_14  and  C_15
REMARK    4  A    between atoms: C_19  and  C_20
REMARK    5  A    between atoms: C_20  and  C_22
REMARK    6  A    between atoms: N_24  and  C_25
REMARK    7  A    between atoms: C_25  and  C_26
REMARK    8  A    between atoms: C_25  and  C_28
REMARK    9  A    between atoms: C_26  and  O_27
REMARK   10  A    between atoms: C_28  and  O_29
REMARK                            x       y       z     vdW  Elec       q    Type
REMARK                         _______ _______ _______ _____ _____    ______ ____
ROOT
ATOM      1  C   UNL     1       2.065   6.692  19.896  0.00  0.00    +0.000 A 
ATOM      2  C   UNL     1       1.848   5.903  21.027  0.00  0.00    +0.000 A 
ATOM      3  N   UNL     1       1.960   4.552  21.055  0.00  0.00    +0.000 NA
ATOM      4  C   UNL     1       2.304   3.950  19.902  0.00  0.00    +0.000 A 
ATOM      5  C   UNL     1       2.501   4.624  18.703  0.00  0.00    +0.000 A 
ATOM      6  C   UNL     1       2.400   6.025  18.709  0.00  0.00    +0.000 A 
ENDROOT
BRANCH   1   9
ATOM      7  O   UNL     1       0.128   8.336  21.336  0.00  0.00    +0.000 OA
ATOM      8  C   UNL     1       0.930   8.812  20.534  0.00  0.00    +0.000 C 
ATOM      9  N   UNL     1       1.927   8.100  19.882  0.00  0.00    +0.000 N 
ATOM     10  H   UNL     1       2.660   8.635  19.428  0.00  0.00    +0.000 HD
BRANCH   8  11
ATOM     11  C   UNL     1       0.875  10.288  20.178  0.00  0.00    +0.000 C 
BRANCH  11  12
ATOM     12  C   UNL     1      -0.398  10.706  19.486  0.00  0.00    +0.000 A 
ATOM     13  C   UNL     1      -1.284  11.611  20.082  0.00  0.00    +0.000 A 
ATOM     14  C   UNL     1      -2.475  11.951  19.438  0.00  0.00    +0.000 A 
ATOM     15  C   UNL     1      -2.793  11.392  18.189  0.00  0.00    +0.000 A 
ATOM     16  C   UNL     1      -3.978  11.715  17.510  0.00  0.00    +0.000 A 
ATOM     17  C   UNL     1      -4.241  11.140  16.271  0.00  0.00    +0.000 A 
ATOM     18  C   UNL     1      -3.311  10.257  15.754  0.00  0.00    +0.000 A 
ATOM     19  N   UNL     1      -2.165   9.918  16.383  0.00  0.00    +0.000 NA
ATOM     20  C   UNL     1      -1.912  10.478  17.579  0.00  0.00    +0.000 A 
ATOM     21  C   UNL     1      -0.739  10.150  18.244  0.00  0.00    +0.000 A 
ENDBRANCH  11  12
ENDBRANCH   8  11
ENDBRANCH   1   9
BRANCH   5  22
ATOM     22  C   UNL     1       2.852   3.881  17.465  0.00  0.00    +0.000 C 
ATOM     23  O   UNL     1       2.015   3.142  16.954  0.00  0.00    +0.000 OA
BRANCH  22  24
ATOM     24  C   UNL     1       4.174   4.079  16.874  0.00  0.00    +0.000 A 
ATOM     25  C   UNL     1       4.506   3.966  15.530  0.00  0.00    +0.000 A 
ATOM     26  N   UNL     1       5.864   4.158  15.385  0.00  0.00    +0.000 N 
ATOM     27  C   UNL     1       6.406   4.436  16.616  0.00  0.00    +0.000 A 
ATOM     28  N   UNL     1       7.704   4.668  16.868  0.00  0.00    +0.000 NA
ATOM     29  C   UNL     1       7.939   4.898  18.170  0.00  0.00    +0.000 A 
ATOM     30  N   UNL     1       7.044   4.928  19.174  0.00  0.00    +0.000 NA
ATOM     31  C   UNL     1       5.746   4.696  18.872  0.00  0.00    +0.000 A 
ATOM     32  C   UNL     1       5.381   4.426  17.553  0.00  0.00    +0.000 A 
BRANCH  26  33
ATOM     33  C   UNL     1       6.557   4.072  14.095  0.00  0.00    +0.000 C 
BRANCH  33  34
ATOM     34  C   UNL     1       5.709   3.325  13.056  0.00  0.00    +0.000 C 
BRANCH  34  35
ATOM     35  O   UNL     1       6.485   2.548  12.152  0.00  0.00    +0.000 OA
ATOM     36  H   UNL     1       5.925   2.320  11.386  0.00  0.00    +0.000 HD
ENDBRANCH  34  35
ENDBRANCH  33  34
BRANCH  33  37
ATOM     37  C   UNL     1       7.082   5.403  13.535  0.00  0.00    +0.000 C 
BRANCH  37  38
ATOM     38  O   UNL     1       8.389   5.689  14.035  0.00  0.00    +0.000 OA
ATOM     39  H   UNL     1       8.867   6.135  13.311  0.00  0.00    +0.000 HD
ENDBRANCH  37  38
ENDBRANCH  33  37
ENDBRANCH  26  33
ENDBRANCH  22  24
ENDBRANCH   5  22
TORSDOF 10
ENDMDL
MODEL 2
REMARK VINA RESULT:      -8.9      3.312      4.729
REMARK  Name = 
REMARK  10 active torsions:
REMARK  status: ('A' for Active; 'I' for Inactive)
REMARK    1  A    between atoms: C_2  and  C_3
REMARK    2  A    between atoms: C_3  and  C_4
REMARK    3  A    between atoms: N_14  and  C_15
REMARK    4  A    between atoms: C_19  and  C_20
REMARK    5  A    between atoms: C_20  and  C_22
REMARK    6  A    between atoms: N_24  and  C_25
REMARK    7  A    between atoms: C_25  and  C_26
REMARK    8  A    between atoms: C_25  and  C_28
REMARK    9  A    between atoms: C_26  and  O_27
REMARK   10  A    between atoms: C_28  and  O_29
REMARK                            x       y       z     vdW  Elec       q    Type
REMARK                         _______ _______ _______ _____ _____    ______ ____
ROOT
ATOM      1  C   UNL     1       0.651   9.884  20.696  0.00  0.00    +0.000 A 
ATOM      2  C   UNL     1       0.584   8.888  21.672  0.00  0.00    +0.000 A 
ATOM      3  N   UNL     1       1.118   7.649  21.543  0.00  0.00    +0.000 NA
ATOM      4  C   UNL     1       1.750   7.380  20.386  0.00  0.00    +0.000 A 
ATOM      5  C   UNL     1       1.842   8.274  19.326  0.00  0.00    +0.000 A 
ATOM      6  C   UNL     1       1.299   9.558  19.496  0.00  0.00    +0.000 A 
ENDROOT
BRANCH   1   9
ATOM      7  O   UNL     1      -0.449  11.112  23.108  0.00  0.00    +0.000 OA
ATOM      8  C   UNL     1      -0.502  11.659  22.006  0.00  0.00    +0.000 C 
ATOM      9  N   UNL     1       0.073  11.168  20.842  0.00  0.00    +0.000 N 
ATOM     10  H   UNL     1       0.158  11.808  20.060  0.00  0.00    +0.000 HD
BRANCH   8  11
ATOM     11  C   UNL     1      -1.246  12.971  21.836  0.00  0.00    +0.000 C 
BRANCH  11  12
ATOM     12  C   UNL     1      -2.740  12.817  21.692  0.00  0.00    +0.000 A 
ATOM     13  C   UNL     1      -3.344  12.764  20.430  0.00  0.00    +0.000 A 
ATOM     14  C   UNL     1      -4.733  12.660  20.324  0.00  0.00    +0.000 A 
ATOM     15  C   UNL     1      -5.533  12.607  21.479  0.00  0.00    +0.000 A 
ATOM     16  C   UNL     1      -6.929  12.497  21.410  0.00  0.00    +0.000 A 
ATOM     17  C   UNL     1      -7.674  12.439  22.584  0.00  0.00    +0.000 A 
ATOM     18  C   UNL     1      -6.996  12.497  23.787  0.00  0.00    +0.000 A 
ATOM     19  N   UNL     1      -5.654  12.610  23.890  0.00  0.00    +0.000 NA
ATOM     20  C   UNL     1      -4.937  12.662  22.754  0.00  0.00    +0.000 A 
ATOM     21  C   UNL     1      -3.556  12.773  22.832  0.00  0.00    +0.000 A 
ENDBRANCH  11  12
ENDBRANCH   8  11
ENDBRANCH   1   9
BRANCH   5  22
ATOM     22  C   UNL     1       2.534   7.890  18.068  0.00  0.00    +0.000 C 
ATOM     23  O   UNL     1       2.410   8.604  17.076  0.00  0.00    +0.000 OA
BRANCH  22  24
ATOM     24  C   UNL     1       3.368   6.690  18.059  0.00  0.00    +0.000 A 
ATOM     25  C   UNL     1       4.751   6.641  18.172  0.00  0.00    +0.000 A 
ATOM     26  N   UNL     1       5.167   5.332  18.048  0.00  0.00    +0.000 N 
ATOM     27  C   UNL     1       4.062   4.529  17.900  0.00  0.00    +0.000 A 
ATOM     28  N   UNL     1       4.076   3.197  17.740  0.00  0.00    +0.000 NA
ATOM     29  C   UNL     1       2.841   2.684  17.606  0.00  0.00    +0.000 A 
ATOM     30  N   UNL     1       1.670   3.345  17.631  0.00  0.00    +0.000 NA
ATOM     31  C   UNL     1       1.704   4.687  17.802  0.00  0.00    +0.000 A 
ATOM     32  C   UNL     1       2.932   5.336  17.934  0.00  0.00    +0.000 A 
BRANCH  26  33
ATOM     33  C   UNL     1       6.575   4.926  18.085  0.00  0.00    +0.000 C 
BRANCH  33  34
ATOM     34  C   UNL     1       7.111   4.648  16.673  0.00  0.00    +0.000 C 
BRANCH  34  35
ATOM     35  O   UNL     1       7.417   5.832  15.945  0.00  0.00    +0.000 OA
ATOM     36  H   UNL     1       6.673   6.022  15.343  0.00  0.00    +0.000 HD
ENDBRANCH  34  35
ENDBRANCH  33  34
BRANCH  33  37
ATOM     37  C   UNL     1       7.515   5.859  18.864  0.00  0.00    +0.000 C 
BRANCH  37  38
ATOM     38  O   UNL     1       7.682   5.409  20.209  0.00  0.00    +0.000 OA
ATOM     39  H   UNL     1       7.060   5.930  20.751  0.00  0.00    +0.000 HD
ENDBRANCH  37  38
ENDBRANCH  33  37
ENDBRANCH  26  33
ENDBRANCH  22  24
ENDBRANCH   5  22
TORSDOF 10
ENDMDL
MODEL 3
REMARK VINA RESULT:      -8.7      0.916      1.387
REMARK  Name = 
REMARK  10 active torsions:
REMARK  status: ('A' for Active; 'I' for Inactive)
REMARK    1  A    between atoms: C_2  and  C_3
REMARK    2  A    between atoms: C_3  and  C_4
REMARK    3  A    between atoms: N_14  and  C_15
REMARK    4  A    between atoms: C_19  and  C_20
REMARK    5  A    between atoms: C_20  and  C_22
REMARK    6  A    between atoms: N_24  and  C_25
REMARK    7  A    between atoms: C_25  and  C_26
REMARK    8  A    between atoms: C_25  and  C_28
REMARK    9  A    between atoms: C_26  and  O_27
REMARK   10  A    between atoms: C_28  and  O_29
REMARK                            x       y       z     vdW  Elec       q    Type
REMARK                         _______ _______ _______ _____ _____    ______ ____
ROOT
ATOM      1  C   UNL     1       1.909   6.818  19.666  0.00  0.00    +0.000 A 
ATOM      2  C   UNL     1       1.645   6.127  20.851  0.00  0.00    +0.000 A 
ATOM      3  N   UNL     1       1.809   4.792  21.014  0.00  0.00    +0.000 NA
ATOM      4  C   UNL     1       2.256   4.103  19.949  0.00  0.00    +0.000 A 
ATOM      5  C   UNL     1       2.510   4.672  18.706  0.00  0.00    +0.000 A 
ATOM      6  C   UNL     1       2.352   6.062  18.572  0.00  0.00    +0.000 A 
ENDROOT
BRANCH   1   9
ATOM      7  O   UNL     1       0.750   8.711  21.565  0.00  0.00    +0.000 OA
ATOM      8  C   UNL     1       1.086   9.040  20.428  0.00  0.00    +0.000 C 
ATOM      9  N   UNL     1       1.716   8.211  19.510  0.00  0.00    +0.000 N 
ATOM     10  H   UNL     1       2.143   8.652  18.702  0.00  0.00    +0.000 HD
BRANCH   8  11
ATOM     11  C   UNL     1       0.810  10.445  19.922  0.00  0.00    +0.000 C 
BRANCH  11  12
ATOM     12  C   UNL     1      -0.484  10.582  19.160  0.00  0.00    +0.000 A 
ATOM     13  C   UNL     1      -0.656   9.977  17.910  0.00  0.00    +0.000 A 
ATOM     14  C   UNL     1      -1.849  10.151  17.206  0.00  0.00    +0.000 A 
ATOM     15  C   UNL     1      -2.886  10.932  17.746  0.00  0.00    +0.000 A 
ATOM     16  C   UNL     1      -4.100  11.124  17.071  0.00  0.00    +0.000 A 
ATOM     17  C   UNL     1      -5.098  11.899  17.654  0.00  0.00    +0.000 A 
ATOM     18  C   UNL     1      -4.845  12.459  18.892  0.00  0.00    +0.000 A 
ATOM     19  N   UNL     1      -3.685  12.301  19.568  0.00  0.00    +0.000 NA
ATOM     20  C   UNL     1      -2.725  11.548  19.003  0.00  0.00    +0.000 A 
ATOM     21  C   UNL     1      -1.525  11.366  19.677  0.00  0.00    +0.000 A 
ENDBRANCH  11  12
ENDBRANCH   8  11
ENDBRANCH   1   9
BRANCH   5  22
ATOM     22  C   UNL     1       2.976   3.836  17.570  0.00  0.00    +0.000 C 
ATOM     23  O   UNL     1       2.220   2.987  17.104  0.00  0.00    +0.000 OA
BRANCH  22  24
ATOM     24  C   UNL     1       4.309   4.072  17.020  0.00  0.00    +0.000 A 
ATOM     25  C   UNL     1       4.687   3.959  15.689  0.00  0.00    +0.000 A 
ATOM     26  N   UNL     1       6.043   4.194  15.585  0.00  0.00    +0.000 N 
ATOM     27  C   UNL     1       6.535   4.500  16.830  0.00  0.00    +0.000 A 
ATOM     28  N   UNL     1       7.816   4.775  17.122  0.00  0.00    +0.000 NA
ATOM     29  C   UNL     1       8.002   5.023  18.429  0.00  0.00    +0.000 A 
ATOM     30  N   UNL     1       7.074   5.032  19.403  0.00  0.00    +0.000 NA
ATOM     31  C   UNL     1       5.795   4.756  19.062  0.00  0.00    +0.000 A 
ATOM     32  C   UNL     1       5.481   4.463  17.735  0.00  0.00    +0.000 A 
BRANCH  26  33
ATOM     33  C   UNL     1       6.780   4.121  14.319  0.00  0.00    +0.000 C 
BRANCH  33  34
ATOM     34  C   UNL     1       5.866   3.675  13.169  0.00  0.00    +0.000 C 
BRANCH  34  35
ATOM     35  O   UNL     1       6.502   2.785  12.259  0.00  0.00    +0.000 OA
ATOM     36  H   UNL     1       5.854   2.108  11.989  0.00  0.00    +0.000 HD
ENDBRANCH  34  35
ENDBRANCH  33  34
BRANCH  33  37
ATOM     37  C   UNL     1       7.578   5.378  13.943  0.00  0.00    +0.000 C 
BRANCH  37  38
ATOM     38  O   UNL     1       7.824   5.426  12.537  0.00  0.00    +0.000 OA
ATOM     39  H   UNL     1       7.424   6.256  12.218  0.00  0.00    +0.000 HD
ENDBRANCH  37  38
ENDBRANCH  33  37
ENDBRANCH  26  33
ENDBRANCH  22  24
ENDBRANCH   5  22
TORSDOF 10
ENDMDL
MODEL 4
REMARK VINA RESULT:      -8.5      1.910      3.353
REMARK  Name = 
REMARK  10 active torsions:
REMARK  status: ('A' for Active; 'I' for Inactive)
REMARK    1  A    between atoms: C_2  and  C_3
REMARK    2  A    between atoms: C_3  and  C_4
REMARK    3  A    between atoms: N_14  and  C_15
REMARK    4  A    between atoms: C_19  and  C_20
REMARK    5  A    between atoms: C_20  and  C_22
REMARK    6  A    between atoms: N_24  and  C_25
REMARK    7  A    between atoms: C_25  and  C_26
REMARK    8  A    between atoms: C_25  and  C_28
REMARK    9  A    between atoms: C_26  and  O_27
REMARK   10  A    between atoms: C_28  and  O_29
REMARK                            x       y       z     vdW  Elec       q    Type
REMARK                         _______ _______ _______ _____ _____    ______ ____
ROOT
ATOM      1  C   UNL     1       1.636   4.984  20.442  0.00  0.00    +0.000 A 
ATOM      2  C   UNL     1       1.291   3.757  21.014  0.00  0.00    +0.000 A 
ATOM      3  N   UNL     1       1.547   2.549  20.454  0.00  0.00    +0.000 NA
ATOM      4  C   UNL     1       2.175   2.555  19.265  0.00  0.00    +0.000 A 
ATOM      5  C   UNL     1       2.527   3.711  18.578  0.00  0.00    +0.000 A 
ATOM      6  C   UNL     1       2.270   4.948  19.192  0.00  0.00    +0.000 A 
ENDROOT
BRANCH   1   9
ATOM      7  O   UNL     1       2.485   7.639  19.571  0.00  0.00    +0.000 OA
ATOM      8  C   UNL     1       1.848   7.458  20.608  0.00  0.00    +0.000 C 
ATOM      9  N   UNL     1       1.345   6.236  21.034  0.00  0.00    +0.000 N 
ATOM     10  H   UNL     1       0.652   6.251  21.775  0.00  0.00    +0.000 HD
BRANCH   8  11
ATOM     11  C   UNL     1       1.562   8.617  21.546  0.00  0.00    +0.000 C 
BRANCH  11  12
ATOM     12  C   UNL     1       0.540   9.595  21.022  0.00  0.00    +0.000 A 
ATOM     13  C   UNL     1       0.015  10.603  21.839  0.00  0.00    +0.000 A 
ATOM     14  C   UNL     1      -0.959  11.470  21.342  0.00  0.00    +0.000 A 
ATOM     15  C   UNL     1      -1.418  11.341  20.019  0.00  0.00    +0.000 A 
ATOM     16  C   UNL     1      -2.391  12.198  19.484  0.00  0.00    +0.000 A 
ATOM     17  C   UNL     1      -2.805  12.033  18.166  0.00  0.00    +0.000 A 
ATOM     18  C   UNL     1      -2.234  11.013  17.429  0.00  0.00    +0.000 A 
ATOM     19  N   UNL     1      -1.300  10.164  17.914  0.00  0.00    +0.000 NA
ATOM     20  C   UNL     1      -0.900  10.329  19.187  0.00  0.00    +0.000 A 
ATOM     21  C   UNL     1       0.061   9.475  19.709  0.00  0.00    +0.000 A 
ENDBRANCH  11  12
ENDBRANCH   8  11
ENDBRANCH   1   9
BRANCH   5  22
ATOM     22  C   UNL     1       3.195   3.633  17.253  0.00  0.00    +0.000 C 
ATOM     23  O   UNL     1       2.580   3.158  16.301  0.00  0.00    +0.000 OA
BRANCH  22  24
ATOM     24  C   UNL     1       4.553   4.154  17.115  0.00  0.00    +0.000 A 
ATOM     25  C   UNL     1       5.345   4.678  18.127  0.00  0.00    +0.000 A 
ATOM     26  N   UNL     1       6.531   5.127  17.583  0.00  0.00    +0.000 N 
ATOM     27  C   UNL     1       6.530   4.857  16.237  0.00  0.00    +0.000 A 
ATOM     28  N   UNL     1       7.513   5.162  15.374  0.00  0.00    +0.000 NA
ATOM     29  C   UNL     1       7.224   4.788  14.117  0.00  0.00    +0.000 A 
ATOM     30  N   UNL     1       6.116   4.164  13.679  0.00  0.00    +0.000 NA
ATOM     31  C   UNL     1       5.155   3.871  14.585  0.00  0.00    +0.000 A 
ATOM     32  C   UNL     1       5.332   4.228  15.921  0.00  0.00    +0.000 A 
BRANCH  26  33
ATOM     33  C   UNL     1       7.587   5.772  18.371  0.00  0.00    +0.000 C 
BRANCH  33  34
ATOM     34  C   UNL     1       7.715   7.261  18.015  0.00  0.00    +0.000 C 
BRANCH  34  35
ATOM     35  O   UNL     1       8.645   7.956  18.836  0.00  0.00    +0.000 OA
ATOM     36  H   UNL     1       8.267   8.031  19.732  0.00  0.00    +0.000 HD
ENDBRANCH  34  35
ENDBRANCH  33  34
BRANCH  33  37
ATOM     37  C   UNL     1       7.500   5.567  19.891  0.00  0.00    +0.000 C 
BRANCH  37  38
ATOM     38  O   UNL     1       8.766   5.183  20.428  0.00  0.00    +0.000 OA
ATOM     39  H   UNL     1       9.180   6.002  20.761  0.00  0.00    +0.000 HD
ENDBRANCH  37  38
ENDBRANCH  33  37
ENDBRANCH  26  33
ENDBRANCH  22  24
ENDBRANCH   5  22
TORSDOF 10
ENDMDL
MODEL 5
REMARK VINA RESULT:      -8.5      3.187      5.019
REMARK  Name = 
REMARK  10 active torsions:
REMARK  status: ('A' for Active; 'I' for Inactive)
REMARK    1  A    between atoms: C_2  and  C_3
REMARK    2  A    between atoms: C_3  and  C_4
REMARK    3  A    between atoms: N_14  and  C_15
REMARK    4  A    between atoms: C_19  and  C_20
REMARK    5  A    between atoms: C_20  and  C_22
REMARK    6  A    between atoms: N_24  and  C_25
REMARK    7  A    between atoms: C_25  and  C_26
REMARK    8  A    between atoms: C_25  and  C_28
REMARK    9  A    between atoms: C_26  and  O_27
REMARK   10  A    between atoms: C_28  and  O_29
REMARK                            x       y       z     vdW  Elec       q    Type
REMARK                         _______ _______ _______ _____ _____    ______ ____
ROOT
ATOM      1  C   UNL     1       0.277   9.715  20.338  0.00  0.00    +0.000 A 
ATOM      2  C   UNL     1       0.408   8.819  21.401  0.00  0.00    +0.000 A 
ATOM      3  N   UNL     1       1.222   7.734  21.396  0.00  0.00    +0.000 NA
ATOM      4  C   UNL     1       1.941   7.524  20.279  0.00  0.00    +0.000 A 
ATOM      5  C   UNL     1       1.861   8.319  19.141  0.00  0.00    +0.000 A 
ATOM      6  C   UNL     1       1.026   9.449  19.183  0.00  0.00    +0.000 A 
ENDROOT
BRANCH   1   9
ATOM      7  O   UNL     1      -1.872  10.369  18.470  0.00  0.00    +0.000 OA
ATOM      8  C   UNL     1      -1.544  11.121  19.388  0.00  0.00    +0.000 C 
ATOM      9  N   UNL     1      -0.591  10.833  20.355  0.00  0.00    +0.000 N 
ATOM     10  H   UNL     1      -0.572  11.423  21.180  0.00  0.00    +0.000 HD
BRANCH   8  11
ATOM     11  C   UNL     1      -2.186  12.490  19.526  0.00  0.00    +0.000 C 
BRANCH  11  12
ATOM     12  C   UNL     1      -3.574  12.462  20.114  0.00  0.00    +0.000 A 
ATOM     13  C   UNL     1      -4.703  12.304  19.302  0.00  0.00    +0.000 A 
ATOM     14  C   UNL     1      -5.980  12.321  19.866  0.00  0.00    +0.000 A 
ATOM     15  C   UNL     1      -6.142  12.495  21.252  0.00  0.00    +0.000 A 
ATOM     16  C   UNL     1      -7.409  12.511  21.855  0.00  0.00    +0.000 A 
ATOM     17  C   UNL     1      -7.514  12.678  23.232  0.00  0.00    +0.000 A 
ATOM     18  C   UNL     1      -6.348  12.826  23.959  0.00  0.00    +0.000 A 
ATOM     19  N   UNL     1      -5.113  12.822  23.411  0.00  0.00    +0.000 NA
ATOM     20  C   UNL     1      -5.015  12.658  22.081  0.00  0.00    +0.000 A 
ATOM     21  C   UNL     1      -3.758  12.645  21.493  0.00  0.00    +0.000 A 
ENDBRANCH  11  12
ENDBRANCH   8  11
ENDBRANCH   1   9
BRANCH   5  22
ATOM     22  C   UNL     1       2.670   8.002  17.936  0.00  0.00    +0.000 C 
ATOM     23  O   UNL     1       2.775   8.846  17.049  0.00  0.00    +0.000 OA
BRANCH  22  24
ATOM     24  C   UNL     1       3.342   6.708  17.857  0.00  0.00    +0.000 A 
ATOM     25  C   UNL     1       2.784   5.466  18.130  0.00  0.00    +0.000 A 
ATOM     26  N   UNL     1       3.759   4.498  18.010  0.00  0.00    +0.000 N 
ATOM     27  C   UNL     1       4.932   5.097  17.621  0.00  0.00    +0.000 A 
ATOM     28  N   UNL     1       6.102   4.473  17.416  0.00  0.00    +0.000 NA
ATOM     29  C   UNL     1       7.079   5.321  17.055  0.00  0.00    +0.000 A 
ATOM     30  N   UNL     1       6.988   6.652  16.879  0.00  0.00    +0.000 NA
ATOM     31  C   UNL     1       5.787   7.238  17.090  0.00  0.00    +0.000 A 
ATOM     32  C   UNL     1       4.699   6.460  17.488  0.00  0.00    +0.000 A 
BRANCH  26  33
ATOM     33  C   UNL     1       3.518   3.074  18.264  0.00  0.00    +0.000 C 
BRANCH  33  34
ATOM     34  C   UNL     1       3.981   2.674  19.672  0.00  0.00    +0.000 C 
BRANCH  34  35
ATOM     35  O   UNL     1       3.050   3.023  20.690  0.00  0.00    +0.000 OA
ATOM     36  H   UNL     1       3.105   2.354  21.397  0.00  0.00    +0.000 HD
ENDBRANCH  34  35
ENDBRANCH  33  34
BRANCH  33  37
ATOM     37  C   UNL     1       2.088   2.583  17.987  0.00  0.00    +0.000 C 
BRANCH  37  38
ATOM     38  O   UNL     1       1.792   1.412  18.749  0.00  0.00    +0.000 OA
ATOM     39  H   UNL     1       2.590   1.222  19.277  0.00  0.00    +0.000 HD
ENDBRANCH  37  38
ENDBRANCH  33  37
ENDBRANCH  26  33
ENDBRANCH  22  24
ENDBRANCH   5  22
TORSDOF 10
ENDMDL
MODEL 6
REMARK VINA RESULT:      -8.5      3.220      4.884
REMARK  Name = 
REMARK  10 active torsions:
REMARK  status: ('A' for Active; 'I' for Inactive)
REMARK    1  A    between atoms: C_2  and  C_3
REMARK    2  A    between atoms: C_3  and  C_4
REMARK    3  A    between atoms: N_14  and  C_15
REMARK    4  A    between atoms: C_19  and  C_20
REMARK    5  A    between atoms: C_20  and  C_22
REMARK    6  A    between atoms: N_24  and  C_25
REMARK    7  A    between atoms: C_25  and  C_26
REMARK    8  A    between atoms: C_25  and  C_28
REMARK    9  A    between atoms: C_26  and  O_27
REMARK   10  A    between atoms: C_28  and  O_29
REMARK                            x       y       z     vdW  Elec       q    Type
REMARK                         _______ _______ _______ _____ _____    ______ ____
ROOT
ATOM      1  C   UNL     1       0.528   9.665  19.824  0.00  0.00    +0.000 A 
ATOM      2  C   UNL     1       0.603   8.894  20.986  0.00  0.00    +0.000 A 
ATOM      3  N   UNL     1       1.390   7.800  21.133  0.00  0.00    +0.000 NA
ATOM      4  C   UNL     1       2.140   7.448  20.073  0.00  0.00    +0.000 A 
ATOM      5  C   UNL     1       2.116   8.109  18.850  0.00  0.00    +0.000 A 
ATOM      6  C   UNL     1       1.308   9.253  18.734  0.00  0.00    +0.000 A 
ENDROOT
BRANCH   1   9
ATOM      7  O   UNL     1       1.283  12.486  19.753  0.00  0.00    +0.000 OA
ATOM      8  C   UNL     1       0.109  12.116  19.735  0.00  0.00    +0.000 C 
ATOM      9  N   UNL     1      -0.312  10.795  19.684  0.00  0.00    +0.000 N 
ATOM     10  H   UNL     1      -1.283  10.625  19.445  0.00  0.00    +0.000 HD
BRANCH   8  11
ATOM     11  C   UNL     1      -1.016  13.135  19.780  0.00  0.00    +0.000 C 
BRANCH  11  12
ATOM     12  C   UNL     1      -1.875  13.047  21.017  0.00  0.00    +0.000 A 
ATOM     13  C   UNL     1      -1.304  12.986  22.293  0.00  0.00    +0.000 A 
ATOM     14  C   UNL     1      -2.121  12.865  23.420  0.00  0.00    +0.000 A 
ATOM     15  C   UNL     1      -3.518  12.807  23.283  0.00  0.00    +0.000 A 
ATOM     16  C   UNL     1      -4.369  12.692  24.391  0.00  0.00    +0.000 A 
ATOM     17  C   UNL     1      -5.747  12.647  24.201  0.00  0.00    +0.000 A 
ATOM     18  C   UNL     1      -6.226  12.715  22.907  0.00  0.00    +0.000 A 
ATOM     19  N   UNL     1      -5.436  12.818  21.816  0.00  0.00    +0.000 NA
ATOM     20  C   UNL     1      -4.106  12.865  22.003  0.00  0.00    +0.000 A 
ATOM     21  C   UNL     1      -3.271  12.976  20.900  0.00  0.00    +0.000 A 
ENDBRANCH  11  12
ENDBRANCH   8  11
ENDBRANCH   1   9
BRANCH   5  22
ATOM     22  C   UNL     1       2.955   7.640  17.718  0.00  0.00    +0.000 C 
ATOM     23  O   UNL     1       3.064   8.349  16.721  0.00  0.00    +0.000 OA
BRANCH  22  24
ATOM     24  C   UNL     1       3.652   6.361  17.838  0.00  0.00    +0.000 A 
ATOM     25  C   UNL     1       3.069   5.113  18.011  0.00  0.00    +0.000 A 
ATOM     26  N   UNL     1       4.064   4.167  18.152  0.00  0.00    +0.000 N 
ATOM     27  C   UNL     1       5.283   4.787  18.029  0.00  0.00    +0.000 A 
ATOM     28  N   UNL     1       6.481   4.188  18.123  0.00  0.00    +0.000 NA
ATOM     29  C   UNL     1       7.499   5.052  17.974  0.00  0.00    +0.000 A 
ATOM     30  N   UNL     1       7.426   6.375  17.741  0.00  0.00    +0.000 NA
ATOM     31  C   UNL     1       6.198   6.934  17.647  0.00  0.00    +0.000 A 
ATOM     32  C   UNL     1       5.062   6.140  17.804  0.00  0.00    +0.000 A 
BRANCH  26  33
ATOM     33  C   UNL     1       3.797   2.745  18.386  0.00  0.00    +0.000 C 
BRANCH  33  34
ATOM     34  C   UNL     1       3.961   2.385  19.870  0.00  0.00    +0.000 C 
BRANCH  34  35
ATOM     35  O   UNL     1       3.053   3.078  20.719  0.00  0.00    +0.000 OA
ATOM     36  H   UNL     1       3.466   3.169  21.598  0.00  0.00    +0.000 HD
ENDBRANCH  34  35
ENDBRANCH  33  34
BRANCH  33  37
ATOM     37  C   UNL     1       2.466   2.219  17.828  0.00  0.00    +0.000 C 
BRANCH  37  38
ATOM     38  O   UNL     1       1.756   1.471  18.817  0.00  0.00    +0.000 OA
ATOM     39  H   UNL     1       0.940   1.972  19.003  0.00  0.00    +0.000 HD
ENDBRANCH  37  38
ENDBRANCH  33  37
ENDBRANCH  26  33
ENDBRANCH  22  24
ENDBRANCH   5  22
TORSDOF 10
ENDMDL
MODEL 7
REMARK VINA RESULT:      -8.5      3.323      5.283
REMARK  Name = 
REMARK  10 active torsions:
REMARK  status: ('A' for Active; 'I' for Inactive)
REMARK    1  A    between atoms: C_2  and  C_3
REMARK    2  A    between atoms: C_3  and  C_4
REMARK    3  A    between atoms: N_14  and  C_15
REMARK    4  A    between atoms: C_19  and  C_20
REMARK    5  A    between atoms: C_20  and  C_22
REMARK    6  A    between atoms: N_24  and  C_25
REMARK    7  A    between atoms: C_25  and  C_26
REMARK    8  A    between atoms: C_25  and  C_28
REMARK    9  A    between atoms: C_26  and  O_27
REMARK   10  A    between atoms: C_28  and  O_29
REMARK                            x       y       z     vdW  Elec       q    Type
REMARK                         _______ _______ _______ _____ _____    ______ ____
ROOT
ATOM      1  C   UNL     1       0.006  10.020  20.103  0.00  0.00    +0.000 A 
ATOM      2  C   UNL     1       0.142   9.310  21.297  0.00  0.00    +0.000 A 
ATOM      3  N   UNL     1       0.974   8.253  21.472  0.00  0.00    +0.000 NA
ATOM      4  C   UNL     1       1.706   7.878  20.408  0.00  0.00    +0.000 A 
ATOM      5  C   UNL     1       1.623   8.478  19.157  0.00  0.00    +0.000 A 
ATOM      6  C   UNL     1       0.770   9.585  19.012  0.00  0.00    +0.000 A 
ENDROOT
BRANCH   1   9
ATOM      7  O   UNL     1       0.428  12.822  20.813  0.00  0.00    +0.000 OA
ATOM      8  C   UNL     1      -0.642  12.408  20.367  0.00  0.00    +0.000 C 
ATOM      9  N   UNL     1      -0.880  11.111  19.935  0.00  0.00    +0.000 N 
ATOM     10  H   UNL     1      -1.716  10.950  19.383  0.00  0.00    +0.000 HD
BRANCH   8  11
ATOM     11  C   UNL     1      -1.840  13.336  20.263  0.00  0.00    +0.000 C 
BRANCH  11  12
ATOM     12  C   UNL     1      -2.853  13.158  21.367  0.00  0.00    +0.000 A 
ATOM     13  C   UNL     1      -2.453  12.972  22.695  0.00  0.00    +0.000 A 
ATOM     14  C   UNL     1      -3.410  12.770  23.692  0.00  0.00    +0.000 A 
ATOM     15  C   UNL     1      -4.778  12.753  23.372  0.00  0.00    +0.000 A 
ATOM     16  C   UNL     1      -5.767  12.559  24.347  0.00  0.00    +0.000 A 
ATOM     17  C   UNL     1      -7.109  12.560  23.979  0.00  0.00    +0.000 A 
ATOM     18  C   UNL     1      -7.415  12.752  22.645  0.00  0.00    +0.000 A 
ATOM     19  N   UNL     1      -6.489  12.935  21.678  0.00  0.00    +0.000 NA
ATOM     20  C   UNL     1      -5.194  12.936  22.038  0.00  0.00    +0.000 A 
ATOM     21  C   UNL     1      -4.223  13.127  21.065  0.00  0.00    +0.000 A 
ENDBRANCH  11  12
ENDBRANCH   8  11
ENDBRANCH   1   9
BRANCH   5  22
ATOM     22  C   UNL     1       2.448   7.986  18.024  0.00  0.00    +0.000 C 
ATOM     23  O   UNL     1       2.659   8.731  17.071  0.00  0.00    +0.000 OA
BRANCH  22  24
ATOM     24  C   UNL     1       3.010   6.639  18.092  0.00  0.00    +0.000 A 
ATOM     25  C   UNL     1       2.349   5.485  18.493  0.00  0.00    +0.000 A 
ATOM     26  N   UNL     1       3.240   4.432  18.488  0.00  0.00    +0.000 N 
ATOM     27  C   UNL     1       4.459   4.885  18.047  0.00  0.00    +0.000 A 
ATOM     28  N   UNL     1       5.573   4.147  17.921  0.00  0.00    +0.000 NA
ATOM     29  C   UNL     1       6.617   4.867  17.479  0.00  0.00    +0.000 A 
ATOM     30  N   UNL     1       6.638   6.173  17.159  0.00  0.00    +0.000 NA
ATOM     31  C   UNL     1       5.490   6.876  17.294  0.00  0.00    +0.000 A 
ATOM     32  C   UNL     1       4.341   6.240  17.764  0.00  0.00    +0.000 A 
BRANCH  26  33
ATOM     33  C   UNL     1       2.880   3.069  18.893  0.00  0.00    +0.000 C 
BRANCH  33  34
ATOM     34  C   UNL     1       3.594   2.668  20.192  0.00  0.00    +0.000 C 
BRANCH  34  35
ATOM     35  O   UNL     1       4.779   1.913  19.972  0.00  0.00    +0.000 OA
ATOM     36  H   UNL     1       4.598   1.256  19.274  0.00  0.00    +0.000 HD
ENDBRANCH  34  35
ENDBRANCH  33  34
BRANCH  33  37
ATOM     37  C   UNL     1       1.374   2.775  18.970  0.00  0.00    +0.000 C 
BRANCH  37  38
ATOM     38  O   UNL     1       0.902   2.874  20.314  0.00  0.00    +0.000 OA
ATOM     39  H   UNL     1       0.571   1.988  20.553  0.00  0.00    +0.000 HD
ENDBRANCH  37  38
ENDBRANCH  33  37
ENDBRANCH  26  33
ENDBRANCH  22  24
ENDBRANCH   5  22
TORSDOF 10
ENDMDL
MODEL 8
REMARK VINA RESULT:      -8.4      2.850      4.202
REMARK  Name = 
REMARK  10 active torsions:
REMARK  status: ('A' for Active; 'I' for Inactive)
REMARK    1  A    between atoms: C_2  and  C_3
REMARK    2  A    between atoms: C_3  and  C_4
REMARK    3  A    between atoms: N_14  and  C_15
REMARK    4  A    between atoms: C_19  and  C_20
REMARK    5  A    between atoms: C_20  and  C_22
REMARK    6  A    between atoms: N_24  and  C_25
REMARK    7  A    between atoms: C_25  and  C_26
REMARK    8  A    between atoms: C_25  and  C_28
REMARK    9  A    between atoms: C_26  and  O_27
REMARK   10  A    between atoms: C_28  and  O_29
REMARK                            x       y       z     vdW  Elec       q    Type
REMARK                         _______ _______ _______ _____ _____    ______ ____
ROOT
ATOM      1  C   UNL     1       0.368   9.735  20.798  0.00  0.00    +0.000 A 
ATOM      2  C   UNL     1       0.577   8.761  21.776  0.00  0.00    +0.000 A 
ATOM      3  N   UNL     1       1.326   7.644  21.600  0.00  0.00    +0.000 NA
ATOM      4  C   UNL     1       1.895   7.482  20.392  0.00  0.00    +0.000 A 
ATOM      5  C   UNL     1       1.721   8.359  19.328  0.00  0.00    +0.000 A 
ATOM      6  C   UNL     1       0.959   9.519  19.546  0.00  0.00    +0.000 A 
ENDROOT
BRANCH   1   9
ATOM      7  O   UNL     1       1.237  12.479  21.296  0.00  0.00    +0.000 OA
ATOM      8  C   UNL     1       0.051  12.151  21.304  0.00  0.00    +0.000 C 
ATOM      9  N   UNL     1      -0.431  10.887  20.995  0.00  0.00    +0.000 N 
ATOM     10  H   UNL     1      -1.425  10.799  20.816  0.00  0.00    +0.000 HD
BRANCH   8  11
ATOM     11  C   UNL     1      -1.021  13.158  21.682  0.00  0.00    +0.000 C 
BRANCH  11  12
ATOM     12  C   UNL     1      -2.390  12.832  21.139  0.00  0.00    +0.000 A 
ATOM     13  C   UNL     1      -2.587  12.573  19.778  0.00  0.00    +0.000 A 
ATOM     14  C   UNL     1      -3.870  12.313  19.294  0.00  0.00    +0.000 A 
ATOM     15  C   UNL     1      -4.972  12.307  20.167  0.00  0.00    +0.000 A 
ATOM     16  C   UNL     1      -6.274  12.045  19.717  0.00  0.00    +0.000 A 
ATOM     17  C   UNL     1      -7.329  12.043  20.624  0.00  0.00    +0.000 A 
ATOM     18  C   UNL     1      -7.046  12.308  21.951  0.00  0.00    +0.000 A 
ATOM     19  N   UNL     1      -5.805  12.572  22.417  0.00  0.00    +0.000 NA
ATOM     20  C   UNL     1      -4.788  12.570  21.539  0.00  0.00    +0.000 A 
ATOM     21  C   UNL     1      -3.503  12.834  21.993  0.00  0.00    +0.000 A 
ENDBRANCH  11  12
ENDBRANCH   8  11
ENDBRANCH   1   9
BRANCH   5  22
ATOM     22  C   UNL     1       2.363   8.094  18.014  0.00  0.00    +0.000 C 
ATOM     23  O   UNL     1       2.226   8.910  17.107  0.00  0.00    +0.000 OA
BRANCH  22  24
ATOM     24  C   UNL     1       3.165   6.883  17.852  0.00  0.00    +0.000 A 
ATOM     25  C   UNL     1       4.543   6.817  17.692  0.00  0.00    +0.000 A 
ATOM     26  N   UNL     1       4.911   5.502  17.500  0.00  0.00    +0.000 N 
ATOM     27  C   UNL     1       3.789   4.713  17.576  0.00  0.00    +0.000 A 
ATOM     28  N   UNL     1       3.756   3.379  17.426  0.00  0.00    +0.000 NA
ATOM     29  C   UNL     1       2.513   2.882  17.540  0.00  0.00    +0.000 A 
ATOM     30  N   UNL     1       1.377   3.558  17.788  0.00  0.00    +0.000 NA
ATOM     31  C   UNL     1       1.460   4.900  17.939  0.00  0.00    +0.000 A 
ATOM     32  C   UNL     1       2.697   5.534  17.824  0.00  0.00    +0.000 A 
BRANCH  26  33
ATOM     33  C   UNL     1       6.295   5.078  17.264  0.00  0.00    +0.000 C 
BRANCH  33  34
ATOM     34  C   UNL     1       6.492   4.604  15.816  0.00  0.00    +0.000 C 
BRANCH  34  35
ATOM     35  O   UNL     1       6.215   3.221  15.635  0.00  0.00    +0.000 OA
ATOM     36  H   UNL     1       5.710   2.906  16.409  0.00  0.00    +0.000 HD
ENDBRANCH  34  35
ENDBRANCH  33  34
BRANCH  33  37
ATOM     37  C   UNL     1       7.377   6.088  17.673  0.00  0.00    +0.000 C 
BRANCH  37  38
ATOM     38  O   UNL     1       7.768   6.897  16.562  0.00  0.00    +0.000 OA
ATOM     39  H   UNL     1       7.336   6.510  15.778  0.00  0.00    +0.000 HD
ENDBRANCH  37  38
ENDBRANCH  33  37
ENDBRANCH  26  33
ENDBRANCH  22  24
ENDBRANCH   5  22
TORSDOF 10
ENDMDL
MODEL 9
REMARK VINA RESULT:      -8.4      3.226      4.597
REMARK  Name = 
REMARK  10 active torsions:
REMARK  status: ('A' for Active; 'I' for Inactive)
REMARK    1  A    between atoms: C_2  and  C_3
REMARK    2  A    between atoms: C_3  and  C_4
REMARK    3  A    between atoms: N_14  and  C_15
REMARK    4  A    between atoms: C_19  and  C_20
REMARK    5  A    between atoms: C_20  and  C_22
REMARK    6  A    between atoms: N_24  and  C_25
REMARK    7  A    between atoms: C_25  and  C_26
REMARK    8  A    between atoms: C_25  and  C_28
REMARK    9  A    between atoms: C_26  and  O_27
REMARK   10  A    between atoms: C_28  and  O_29
REMARK                            x       y       z     vdW  Elec       q    Type
REMARK                         _______ _______ _______ _____ _____    ______ ____
ROOT
ATOM      1  C   UNL     1       0.538   9.739  20.487  0.00  0.00    +0.000 A 
ATOM      2  C   UNL     1       0.701   8.822  21.527  0.00  0.00    +0.000 A 
ATOM      3  N   UNL     1       1.440   7.689  21.443  0.00  0.00    +0.000 NA
ATOM      4  C   UNL     1       2.047   7.449  20.267  0.00  0.00    +0.000 A 
ATOM      5  C   UNL     1       1.922   8.263  19.148  0.00  0.00    +0.000 A 
ATOM      6  C   UNL     1       1.169   9.443  19.271  0.00  0.00    +0.000 A 
ENDROOT
BRANCH   1   9
ATOM      7  O   UNL     1      -1.722  10.550  18.823  0.00  0.00    +0.000 OA
ATOM      8  C   UNL     1      -1.266  11.269  19.712  0.00  0.00    +0.000 C 
ATOM      9  N   UNL     1      -0.251  10.910  20.588  0.00  0.00    +0.000 N 
ATOM     10  H   UNL     1      -0.121  11.489  21.411  0.00  0.00    +0.000 HD
BRANCH   8  11
ATOM     11  C   UNL     1      -1.804  12.674  19.914  0.00  0.00    +0.000 C 
BRANCH  11  12
ATOM     12  C   UNL     1      -2.866  12.779  20.980  0.00  0.00    +0.000 A 
ATOM     13  C   UNL     1      -2.526  12.929  22.329  0.00  0.00    +0.000 A 
ATOM     14  C   UNL     1      -3.527  12.984  23.301  0.00  0.00    +0.000 A 
ATOM     15  C   UNL     1      -4.881  12.891  22.934  0.00  0.00    +0.000 A 
ATOM     16  C   UNL     1      -5.913  12.948  23.882  0.00  0.00    +0.000 A 
ATOM     17  C   UNL     1      -7.237  12.860  23.465  0.00  0.00    +0.000 A 
ATOM     18  C   UNL     1      -7.484  12.713  22.113  0.00  0.00    +0.000 A 
ATOM     19  N   UNL     1      -6.515  12.647  21.173  0.00  0.00    +0.000 NA
ATOM     20  C   UNL     1      -5.237  12.736  21.580  0.00  0.00    +0.000 A 
ATOM     21  C   UNL     1      -4.222  12.676  20.634  0.00  0.00    +0.000 A 
ENDBRANCH  11  12
ENDBRANCH   8  11
ENDBRANCH   1   9
BRANCH   5  22
ATOM     22  C   UNL     1       2.605   7.914  17.876  0.00  0.00    +0.000 C 
ATOM     23  O   UNL     1       2.529   8.688  16.925  0.00  0.00    +0.000 OA
BRANCH  22  24
ATOM     24  C   UNL     1       3.373   6.673  17.804  0.00  0.00    +0.000 A 
ATOM     25  C   UNL     1       4.754   6.557  17.713  0.00  0.00    +0.000 A 
ATOM     26  N   UNL     1       5.087   5.224  17.596  0.00  0.00    +0.000 N 
ATOM     27  C   UNL     1       3.938   4.474  17.654  0.00  0.00    +0.000 A 
ATOM     28  N   UNL     1       3.868   3.137  17.561  0.00  0.00    +0.000 NA
ATOM     29  C   UNL     1       2.605   2.684  17.638  0.00  0.00    +0.000 A 
ATOM     30  N   UNL     1       1.482   3.405  17.802  0.00  0.00    +0.000 NA
ATOM     31  C   UNL     1       1.602   4.750  17.898  0.00  0.00    +0.000 A 
ATOM     32  C   UNL     1       2.863   5.339  17.814  0.00  0.00    +0.000 A 
BRANCH  26  33
ATOM     33  C   UNL     1       6.466   4.747  17.444  0.00  0.00    +0.000 C 
BRANCH  33  34
ATOM     34  C   UNL     1       6.989   5.002  16.023  0.00  0.00    +0.000 C 
BRANCH  34  35
ATOM     35  O   UNL     1       6.157   4.449  15.011  0.00  0.00    +0.000 OA
ATOM     36  H   UNL     1       6.102   3.485  15.153  0.00  0.00    +0.000 HD
ENDBRANCH  34  35
ENDBRANCH  33  34
BRANCH  33  37
ATOM     37  C   UNL     1       7.460   5.246  18.504  0.00  0.00    +0.000 C 
BRANCH  37  38
ATOM     38  O   UNL     1       6.887   5.191  19.810  0.00  0.00    +0.000 OA
ATOM     39  H   UNL     1       7.621   5.336  20.436  0.00  0.00    +0.000 HD
ENDBRANCH  37  38
ENDBRANCH  33  37
ENDBRANCH  26  33
ENDBRANCH  22  24
ENDBRANCH   5  22
TORSDOF 10
ENDMDL
