MODEL 1
REMARK VINA RESULT:      -9.4      0.000      0.000
REMARK  Name = 
REMARK  4 active torsions:
REMARK  status: ('A' for Active; 'I' for Inactive)
REMARK    1  A    between atoms: C_2  and  C_11
REMARK    2  A    between atoms: N_3  and  C_4
REMARK    3  A    between atoms: C_13  and  C_14
REMARK    4  A    between atoms: C_19  and  C_21
REMARK                            x       y       z     vdW  Elec       q    Type
REMARK                         _______ _______ _______ _____ _____    ______ ____
ROOT
ATOM      1  C   UNL     1       8.099   8.495  18.048  0.00  0.00    +0.000 A 
ATOM      2  C   UNL     1       8.382   7.129  18.283  0.00  0.00    +0.000 A 
ATOM      3  C   UNL     1       7.555   6.450  17.429  0.00  0.00    +0.000 A 
ATOM      4  O   UNL     1       6.785   7.348  16.753  0.00  0.00    +0.000 OA
ATOM      5  N   UNL     1       7.112   8.635  17.143  0.00  0.00    +0.000 NA
ENDROOT
BRANCH   3   6
ATOM      6  C   UNL     1       7.369   4.997  17.138  0.00  0.00    +0.000 C 
ATOM      7  C   UNL     1       6.976   4.745  15.675  0.00  0.00    +0.000 C 
ATOM      8  C   UNL     1       5.511   5.083  15.383  0.00  0.00    +0.000 C 
ATOM      9  C   UNL     1       4.550   4.490  16.417  0.00  0.00    +0.000 C 
ATOM     10  N   UNL     1       4.985   4.776  17.785  0.00  0.00    +0.000 N 
ATOM     11  C   UNL     1       4.229   5.336  18.809  0.00  0.00    +0.000 C 
ATOM     12  O   UNL     1       4.708   5.475  19.939  0.00  0.00    +0.000 OA
ATOM     13  C   UNL     1       6.354   4.348  18.087  0.00  0.00    +0.000 C 
BRANCH  11  14
ATOM     14  C   UNL     1       2.786   5.785  18.520  0.00  0.00    +0.000 C 
ATOM     15  C   UNL     1       1.927   4.655  17.931  0.00  0.00    +0.000 C 
ATOM     16  C   UNL     1       1.496   3.591  18.938  0.00  0.00    +0.000 C 
ATOM     17  C   UNL     1       0.896   4.167  20.214  0.00  0.00    +0.000 C 
ATOM     18  C   UNL     1       1.661   5.356  20.784  0.00  0.00    +0.000 C 
ATOM     19  C   UNL     1       2.084   6.390  19.740  0.00  0.00    +0.000 C 
ENDBRANCH  11  14
ENDBRANCH   3   6
BRANCH   1  21
ATOM     20  O   UNL     1       8.711   9.786  19.890  0.00  0.00    +0.000 OA
ATOM     21  C   UNL     1       8.768   9.629  18.668  0.00  0.00    +0.000 C 
ATOM     22  N   UNL     1       9.377  10.505  17.793  0.00  0.00    +0.000 N 
ATOM     23  H   UNL     1       9.057  10.451  16.827  0.00  0.00    +0.000 HD
BRANCH  22  24
ATOM     24  C   UNL     1       9.961  11.712  18.231  0.00  0.00    +0.000 A 
ATOM     25  C   UNL     1      11.203  11.707  18.882  0.00  0.00    +0.000 A 
ATOM     26  C   UNL     1      11.759  12.893  19.354  0.00  0.00    +0.000 A 
ATOM     27  C   UNL     1      11.074  14.097  19.190  0.00  0.00    +0.000 A 
ATOM     28  C   UNL     1       9.841  14.115  18.536  0.00  0.00    +0.000 A 
ATOM     29  C   UNL     1       9.295  12.930  18.037  0.00  0.00    +0.000 A 
ATOM     30 CL   UNL     1       7.738  12.986  17.287  0.00  0.00    +0.000 Cl
ENDBRANCH  22  24
ENDBRANCH   1  21
TORSDOF 4
ENDMDL
MODEL 2
REMARK VINA RESULT:      -9.2      1.346      1.401
REMARK  Name = 
REMARK  4 active torsions:
REMARK  status: ('A' for Active; 'I' for Inactive)
REMARK    1  A    between atoms: C_2  and  C_11
REMARK    2  A    between atoms: N_3  and  C_4
REMARK    3  A    between atoms: C_13  and  C_14
REMARK    4  A    between atoms: C_19  and  C_21
REMARK                            x       y       z     vdW  Elec       q    Type
REMARK                         _______ _______ _______ _____ _____    ______ ____
ROOT
ATOM      1  C   UNL     1       7.705   8.604  17.708  0.00  0.00    +0.000 A 
ATOM      2  C   UNL     1       8.212   7.332  18.060  0.00  0.00    +0.000 A 
ATOM      3  C   UNL     1       7.380   6.441  17.438  0.00  0.00    +0.000 A 
ATOM      4  O   UNL     1       6.400   7.131  16.789  0.00  0.00    +0.000 OA
ATOM      5  N   UNL     1       6.591   8.491  16.962  0.00  0.00    +0.000 NA
ENDROOT
BRANCH   3   6
ATOM      6  C   UNL     1       7.366   4.949  17.359  0.00  0.00    +0.000 C 
ATOM      7  C   UNL     1       7.086   4.447  15.935  0.00  0.00    +0.000 C 
ATOM      8  C   UNL     1       5.612   4.571  15.536  0.00  0.00    +0.000 C 
ATOM      9  C   UNL     1       4.662   4.028  16.608  0.00  0.00    +0.000 C 
ATOM     10  N   UNL     1       4.986   4.555  17.934  0.00  0.00    +0.000 N 
ATOM     11  C   UNL     1       4.117   5.167  18.832  0.00  0.00    +0.000 C 
ATOM     12  O   UNL     1       4.514   5.520  19.947  0.00  0.00    +0.000 OA
ATOM     13  C   UNL     1       6.373   4.333  18.352  0.00  0.00    +0.000 C 
BRANCH  11  14
ATOM     14  C   UNL     1       2.654   5.404  18.420  0.00  0.00    +0.000 C 
ATOM     15  C   UNL     1       1.999   4.143  17.833  0.00  0.00    +0.000 C 
ATOM     16  C   UNL     1       1.637   3.075  18.863  0.00  0.00    +0.000 C 
ATOM     17  C   UNL     1       0.871   3.618  20.062  0.00  0.00    +0.000 C 
ATOM     18  C   UNL     1       1.427   4.923  20.621  0.00  0.00    +0.000 C 
ATOM     19  C   UNL     1       1.787   5.960  19.556  0.00  0.00    +0.000 C 
ENDBRANCH  11  14
ENDBRANCH   3   6
BRANCH   1  21
ATOM     20  O   UNL     1       7.850  10.927  17.565  0.00  0.00    +0.000 OA
ATOM     21  C   UNL     1       8.284   9.889  18.071  0.00  0.00    +0.000 C 
ATOM     22  N   UNL     1       9.357   9.829  18.936  0.00  0.00    +0.000 N 
ATOM     23  H   UNL     1       9.820   8.923  18.996  0.00  0.00    +0.000 HD
BRANCH  22  24
ATOM     24  C   UNL     1      10.099  10.977  19.286  0.00  0.00    +0.000 A 
ATOM     25  C   UNL     1      11.106  11.458  18.438  0.00  0.00    +0.000 A 
ATOM     26  C   UNL     1      11.869  12.565  18.804  0.00  0.00    +0.000 A 
ATOM     27  C   UNL     1      11.640  13.196  20.027  0.00  0.00    +0.000 A 
ATOM     28  C   UNL     1      10.634  12.730  20.874  0.00  0.00    +0.000 A 
ATOM     29  C   UNL     1       9.849  11.638  20.497  0.00  0.00    +0.000 A 
ATOM     30 CL   UNL     1       8.654  11.054  21.602  0.00  0.00    +0.000 Cl
ENDBRANCH  22  24
ENDBRANCH   1  21
TORSDOF 4
ENDMDL
MODEL 3
REMARK VINA RESULT:      -9.0      0.942      1.308
REMARK  Name = 
REMARK  4 active torsions:
REMARK  status: ('A' for Active; 'I' for Inactive)
REMARK    1  A    between atoms: C_2  and  C_11
REMARK    2  A    between atoms: N_3  and  C_4
REMARK    3  A    between atoms: C_13  and  C_14
REMARK    4  A    between atoms: C_19  and  C_21
REMARK                            x       y       z     vdW  Elec       q    Type
REMARK                         _______ _______ _______ _____ _____    ______ ____
ROOT
ATOM      1  C   UNL     1       7.968   8.675  17.964  0.00  0.00    +0.000 A 
ATOM      2  C   UNL     1       8.332   7.334  18.230  0.00  0.00    +0.000 A 
ATOM      3  C   UNL     1       7.520   6.586  17.421  0.00  0.00    +0.000 A 
ATOM      4  O   UNL     1       6.682   7.420  16.743  0.00  0.00    +0.000 OA
ATOM      5  N   UNL     1       6.949   8.734  17.087  0.00  0.00    +0.000 NA
ENDROOT
BRANCH   3   6
ATOM      6  C   UNL     1       7.406   5.117  17.176  0.00  0.00    +0.000 C 
ATOM      7  C   UNL     1       7.044   4.798  15.718  0.00  0.00    +0.000 C 
ATOM      8  C   UNL     1       5.568   5.057  15.399  0.00  0.00    +0.000 C 
ATOM      9  C   UNL     1       4.623   4.453  16.443  0.00  0.00    +0.000 C 
ATOM     10  N   UNL     1       5.028   4.804  17.805  0.00  0.00    +0.000 N 
ATOM     11  C   UNL     1       4.234   5.361  18.802  0.00  0.00    +0.000 C 
ATOM     12  O   UNL     1       4.692   5.559  19.931  0.00  0.00    +0.000 OA
ATOM     13  C   UNL     1       6.412   4.452  18.135  0.00  0.00    +0.000 C 
BRANCH  11  14
ATOM     14  C   UNL     1       2.776   5.731  18.483  0.00  0.00    +0.000 C 
ATOM     15  C   UNL     1       1.986   4.550  17.895  0.00  0.00    +0.000 C 
ATOM     16  C   UNL     1       1.593   3.478  18.909  0.00  0.00    +0.000 C 
ATOM     17  C   UNL     1       0.942   4.039  20.167  0.00  0.00    +0.000 C 
ATOM     18  C   UNL     1       1.635   5.273  20.734  0.00  0.00    +0.000 C 
ATOM     19  C   UNL     1       2.022   6.314  19.683  0.00  0.00    +0.000 C 
ENDBRANCH  11  14
ENDBRANCH   3   6
BRANCH   1  21
ATOM     20  O   UNL     1       8.963   9.861  19.708  0.00  0.00    +0.000 OA
ATOM     21  C   UNL     1       8.590   9.862  18.532  0.00  0.00    +0.000 C 
ATOM     22  N   UNL     1       8.652  10.954  17.692  0.00  0.00    +0.000 N 
ATOM     23  H   UNL     1       8.012  10.932  16.898  0.00  0.00    +0.000 HD
BRANCH  22  24
ATOM     24  C   UNL     1       9.115  12.211  18.134  0.00  0.00    +0.000 A 
ATOM     25  C   UNL     1       8.210  13.241  18.424  0.00  0.00    +0.000 A 
ATOM     26  C   UNL     1       8.669  14.496  18.819  0.00  0.00    +0.000 A 
ATOM     27  C   UNL     1      10.039  14.737  18.916  0.00  0.00    +0.000 A 
ATOM     28  C   UNL     1      10.949  13.716  18.638  0.00  0.00    +0.000 A 
ATOM     29  C   UNL     1      10.490  12.449  18.270  0.00  0.00    +0.000 A 
ATOM     30 CL   UNL     1      11.650  11.230  17.876  0.00  0.00    +0.000 Cl
ENDBRANCH  22  24
ENDBRANCH   1  21
TORSDOF 4
ENDMDL
MODEL 4
REMARK VINA RESULT:      -9.0      1.393      1.646
REMARK  Name = 
REMARK  4 active torsions:
REMARK  status: ('A' for Active; 'I' for Inactive)
REMARK    1  A    between atoms: C_2  and  C_11
REMARK    2  A    between atoms: N_3  and  C_4
REMARK    3  A    between atoms: C_13  and  C_14
REMARK    4  A    between atoms: C_19  and  C_21
REMARK                            x       y       z     vdW  Elec       q    Type
REMARK                         _______ _______ _______ _____ _____    ______ ____
ROOT
ATOM      1  C   UNL     1       7.725   8.604  17.708  0.00  0.00    +0.000 A 
ATOM      2  C   UNL     1       8.229   7.332  18.066  0.00  0.00    +0.000 A 
ATOM      3  C   UNL     1       7.415   6.440  17.420  0.00  0.00    +0.000 A 
ATOM      4  O   UNL     1       6.447   7.129  16.753  0.00  0.00    +0.000 OA
ATOM      5  N   UNL     1       6.628   8.489  16.937  0.00  0.00    +0.000 NA
ENDROOT
BRANCH   3   6
ATOM      6  C   UNL     1       7.410   4.949  17.334  0.00  0.00    +0.000 C 
ATOM      7  C   UNL     1       7.125   4.452  15.909  0.00  0.00    +0.000 C 
ATOM      8  C   UNL     1       5.648   4.570  15.519  0.00  0.00    +0.000 C 
ATOM      9  C   UNL     1       4.707   4.015  16.594  0.00  0.00    +0.000 C 
ATOM     10  N   UNL     1       5.036   4.537  17.921  0.00  0.00    +0.000 N 
ATOM     11  C   UNL     1       4.169   5.139  18.827  0.00  0.00    +0.000 C 
ATOM     12  O   UNL     1       4.570   5.489  19.941  0.00  0.00    +0.000 OA
ATOM     13  C   UNL     1       6.427   4.322  18.329  0.00  0.00    +0.000 C 
BRANCH  11  14
ATOM     14  C   UNL     1       2.702   5.369  18.426  0.00  0.00    +0.000 C 
ATOM     15  C   UNL     1       1.719   4.636  19.353  0.00  0.00    +0.000 C 
ATOM     16  C   UNL     1       1.543   5.277  20.728  0.00  0.00    +0.000 C 
ATOM     17  C   UNL     1       1.278   6.776  20.673  0.00  0.00    +0.000 C 
ATOM     18  C   UNL     1       2.165   7.533  19.692  0.00  0.00    +0.000 C 
ATOM     19  C   UNL     1       2.324   6.851  18.333  0.00  0.00    +0.000 C 
ENDBRANCH  11  14
ENDBRANCH   3   6
BRANCH   1  21
ATOM     20  O   UNL     1       7.807  10.933  17.644  0.00  0.00    +0.000 OA
ATOM     21  C   UNL     1       8.289   9.890  18.091  0.00  0.00    +0.000 C 
ATOM     22  N   UNL     1       9.403   9.826  18.903  0.00  0.00    +0.000 N 
ATOM     23  H   UNL     1       9.890   8.931  18.908  0.00  0.00    +0.000 HD
BRANCH  22  24
ATOM     24  C   UNL     1      10.133  10.980  19.260  0.00  0.00    +0.000 A 
ATOM     25  C   UNL     1      11.132  11.479  18.412  0.00  0.00    +0.000 A 
ATOM     26  C   UNL     1      11.883  12.592  18.784  0.00  0.00    +0.000 A 
ATOM     27  C   UNL     1      11.651  13.210  20.013  0.00  0.00    +0.000 A 
ATOM     28  C   UNL     1      10.654  12.726  20.860  0.00  0.00    +0.000 A 
ATOM     29  C   UNL     1       9.880  11.628  20.477  0.00  0.00    +0.000 A 
ATOM     30 CL   UNL     1       8.696  11.022  21.580  0.00  0.00    +0.000 Cl
ENDBRANCH  22  24
ENDBRANCH   1  21
TORSDOF 4
ENDMDL
MODEL 5
REMARK VINA RESULT:      -8.9      1.376      1.492
REMARK  Name = 
REMARK  4 active torsions:
REMARK  status: ('A' for Active; 'I' for Inactive)
REMARK    1  A    between atoms: C_2  and  C_11
REMARK    2  A    between atoms: N_3  and  C_4
REMARK    3  A    between atoms: C_13  and  C_14
REMARK    4  A    between atoms: C_19  and  C_21
REMARK                            x       y       z     vdW  Elec       q    Type
REMARK                         _______ _______ _______ _____ _____    ______ ____
ROOT
ATOM      1  C   UNL     1       7.683   8.627  17.792  0.00  0.00    +0.000 A 
ATOM      2  C   UNL     1       8.146   7.354  18.197  0.00  0.00    +0.000 A 
ATOM      3  C   UNL     1       7.446   6.466  17.425  0.00  0.00    +0.000 A 
ATOM      4  O   UNL     1       6.578   7.158  16.634  0.00  0.00    +0.000 OA
ATOM      5  N   UNL     1       6.712   8.515  16.866  0.00  0.00    +0.000 NA
ENDROOT
BRANCH   3   6
ATOM      6  C   UNL     1       7.472   4.977  17.314  0.00  0.00    +0.000 C 
ATOM      7  C   UNL     1       7.218   4.499  15.876  0.00  0.00    +0.000 C 
ATOM      8  C   UNL     1       5.745   4.594  15.466  0.00  0.00    +0.000 C 
ATOM      9  C   UNL     1       4.800   4.002  16.517  0.00  0.00    +0.000 C 
ATOM     10  N   UNL     1       5.099   4.508  17.858  0.00  0.00    +0.000 N 
ATOM     11  C   UNL     1       4.207   5.077  18.761  0.00  0.00    +0.000 C 
ATOM     12  O   UNL     1       4.584   5.415  19.886  0.00  0.00    +0.000 OA
ATOM     13  C   UNL     1       6.488   4.313  18.283  0.00  0.00    +0.000 C 
BRANCH  11  14
ATOM     14  C   UNL     1       2.741   5.284  18.341  0.00  0.00    +0.000 C 
ATOM     15  C   UNL     1       2.042   3.963  17.982  0.00  0.00    +0.000 C 
ATOM     16  C   UNL     1       1.676   3.090  19.180  0.00  0.00    +0.000 C 
ATOM     17  C   UNL     1       0.950   3.845  20.285  0.00  0.00    +0.000 C 
ATOM     18  C   UNL     1       1.551   5.208  20.611  0.00  0.00    +0.000 C 
ATOM     19  C   UNL     1       1.914   6.044  19.383  0.00  0.00    +0.000 C 
ENDBRANCH  11  14
ENDBRANCH   3   6
BRANCH   1  21
ATOM     20  O   UNL     1       7.881  10.947  17.670  0.00  0.00    +0.000 OA
ATOM     21  C   UNL     1       8.169   9.911  18.274  0.00  0.00    +0.000 C 
ATOM     22  N   UNL     1       8.999   9.851  19.375  0.00  0.00    +0.000 N 
ATOM     23  H   UNL     1       9.425   8.942  19.552  0.00  0.00    +0.000 HD
BRANCH  22  24
ATOM     24  C   UNL     1       9.646  10.997  19.885  0.00  0.00    +0.000 A 
ATOM     25  C   UNL     1       9.237  11.561  21.102  0.00  0.00    +0.000 A 
ATOM     26  C   UNL     1       9.845  12.717  21.584  0.00  0.00    +0.000 A 
ATOM     27  C   UNL     1      10.862  13.328  20.850  0.00  0.00    +0.000 A 
ATOM     28  C   UNL     1      11.283  12.769  19.643  0.00  0.00    +0.000 A 
ATOM     29  C   UNL     1      10.693  11.594  19.171  0.00  0.00    +0.000 A 
ATOM     30 CL   UNL     1      11.201  10.968  17.641  0.00  0.00    +0.000 Cl
ENDBRANCH  22  24
ENDBRANCH   1  21
TORSDOF 4
ENDMDL
MODEL 6
REMARK VINA RESULT:      -8.9      1.501      1.565
REMARK  Name = 
REMARK  4 active torsions:
REMARK  status: ('A' for Active; 'I' for Inactive)
REMARK    1  A    between atoms: C_2  and  C_11
REMARK    2  A    between atoms: N_3  and  C_4
REMARK    3  A    between atoms: C_13  and  C_14
REMARK    4  A    between atoms: C_19  and  C_21
REMARK                            x       y       z     vdW  Elec       q    Type
REMARK                         _______ _______ _______ _____ _____    ______ ____
ROOT
ATOM      1  C   UNL     1       8.120   7.882  18.113  0.00  0.00    +0.000 A 
ATOM      2  C   UNL     1       7.731   7.156  16.962  0.00  0.00    +0.000 A 
ATOM      3  C   UNL     1       7.626   5.859  17.387  0.00  0.00    +0.000 A 
ATOM      4  O   UNL     1       7.977   5.796  18.702  0.00  0.00    +0.000 OA
ATOM      5  N   UNL     1       8.299   7.060  19.164  0.00  0.00    +0.000 NA
ENDROOT
BRANCH   3   6
ATOM      6  C   UNL     1       7.223   4.596  16.700  0.00  0.00    +0.000 C 
ATOM      7  C   UNL     1       6.768   4.843  15.254  0.00  0.00    +0.000 C 
ATOM      8  C   UNL     1       5.363   5.446  15.164  0.00  0.00    +0.000 C 
ATOM      9  C   UNL     1       4.346   4.708  16.040  0.00  0.00    +0.000 C 
ATOM     10  N   UNL     1       4.846   4.516  17.402  0.00  0.00    +0.000 N 
ATOM     11  C   UNL     1       4.201   4.844  18.590  0.00  0.00    +0.000 C 
ATOM     12  O   UNL     1       4.718   4.577  19.679  0.00  0.00    +0.000 OA
ATOM     13  C   UNL     1       6.144   3.838  17.481  0.00  0.00    +0.000 C 
BRANCH  11  14
ATOM     14  C   UNL     1       2.834   5.547  18.534  0.00  0.00    +0.000 C 
ATOM     15  C   UNL     1       1.750   4.672  17.885  0.00  0.00    +0.000 C 
ATOM     16  C   UNL     1       1.237   3.536  18.767  0.00  0.00    +0.000 C 
ATOM     17  C   UNL     1       0.855   3.981  20.173  0.00  0.00    +0.000 C 
ATOM     18  C   UNL     1       1.855   4.931  20.822  0.00  0.00    +0.000 C 
ATOM     19  C   UNL     1       2.352   6.045  19.901  0.00  0.00    +0.000 C 
ENDBRANCH  11  14
ENDBRANCH   3   6
BRANCH   1  21
ATOM     20  O   UNL     1       7.571  10.078  17.553  0.00  0.00    +0.000 OA
ATOM     21  C   UNL     1       8.303   9.323  18.198  0.00  0.00    +0.000 C 
ATOM     22  N   UNL     1       9.365   9.737  18.975  0.00  0.00    +0.000 N 
ATOM     23  H   UNL     1      10.076   9.030  19.157  0.00  0.00    +0.000 HD
BRANCH  22  24
ATOM     24  C   UNL     1       9.744  11.094  19.058  0.00  0.00    +0.000 A 
ATOM     25  C   UNL     1      10.373  11.725  17.975  0.00  0.00    +0.000 A 
ATOM     26  C   UNL     1      10.787  13.051  18.073  0.00  0.00    +0.000 A 
ATOM     27  C   UNL     1      10.587  13.758  19.259  0.00  0.00    +0.000 A 
ATOM     28  C   UNL     1       9.954  13.142  20.339  0.00  0.00    +0.000 A 
ATOM     29  C   UNL     1       9.513  11.821  20.234  0.00  0.00    +0.000 A 
ATOM     30 CL   UNL     1       8.788  11.076  21.616  0.00  0.00    +0.000 Cl
ENDBRANCH  22  24
ENDBRANCH   1  21
TORSDOF 4
ENDMDL
MODEL 7
REMARK VINA RESULT:      -8.6      7.052     10.348
REMARK  Name = 
REMARK  4 active torsions:
REMARK  status: ('A' for Active; 'I' for Inactive)
REMARK    1  A    between atoms: C_2  and  C_11
REMARK    2  A    between atoms: N_3  and  C_4
REMARK    3  A    between atoms: C_13  and  C_14
REMARK    4  A    between atoms: C_19  and  C_21
REMARK                            x       y       z     vdW  Elec       q    Type
REMARK                         _______ _______ _______ _____ _____    ______ ____
ROOT
ATOM      1  C   UNL     1       0.134  10.384  22.103  0.00  0.00    +0.000 A 
ATOM      2  C   UNL     1      -0.362  11.407  21.262  0.00  0.00    +0.000 A 
ATOM      3  C   UNL     1      -1.130  12.190  22.080  0.00  0.00    +0.000 A 
ATOM      4  O   UNL     1      -1.139  11.646  23.330  0.00  0.00    +0.000 OA
ATOM      5  N   UNL     1      -0.356  10.505  23.350  0.00  0.00    +0.000 NA
ENDROOT
BRANCH   3   6
ATOM      6  C   UNL     1      -1.904  13.446  21.849  0.00  0.00    +0.000 C 
ATOM      7  C   UNL     1      -3.225  13.465  22.633  0.00  0.00    +0.000 C 
ATOM      8  C   UNL     1      -4.305  12.577  22.007  0.00  0.00    +0.000 C 
ATOM      9  C   UNL     1      -4.450  12.798  20.498  0.00  0.00    +0.000 C 
ATOM     10  N   UNL     1      -3.154  12.761  19.819  0.00  0.00    +0.000 N 
ATOM     11  C   UNL     1      -2.806  11.998  18.710  0.00  0.00    +0.000 C 
ATOM     12  O   UNL     1      -1.686  12.103  18.202  0.00  0.00    +0.000 OA
ATOM     13  C   UNL     1      -2.161  13.695  20.359  0.00  0.00    +0.000 C 
BRANCH  11  14
ATOM     14  C   UNL     1      -3.834  11.017  18.120  0.00  0.00    +0.000 C 
ATOM     15  C   UNL     1      -4.475  11.546  16.826  0.00  0.00    +0.000 C 
ATOM     16  C   UNL     1      -3.570  11.487  15.598  0.00  0.00    +0.000 C 
ATOM     17  C   UNL     1      -2.900  10.134  15.399  0.00  0.00    +0.000 C 
ATOM     18  C   UNL     1      -2.333   9.522  16.675  0.00  0.00    +0.000 C 
ATOM     19  C   UNL     1      -3.266   9.614  17.883  0.00  0.00    +0.000 C 
ENDBRANCH  11  14
ENDBRANCH   3   6
BRANCH   1  21
ATOM     20  O   UNL     1       2.064   9.109  22.397  0.00  0.00    +0.000 OA
ATOM     21  C   UNL     1       1.058   9.328  21.717  0.00  0.00    +0.000 C 
ATOM     22  N   UNL     1       0.754   8.679  20.538  0.00  0.00    +0.000 N 
ATOM     23  H   UNL     1       0.118   9.177  19.917  0.00  0.00    +0.000 HD
BRANCH  22  24
ATOM     24  C   UNL     1       1.617   7.718  19.971  0.00  0.00    +0.000 A 
ATOM     25  C   UNL     1       1.856   6.502  20.627  0.00  0.00    +0.000 A 
ATOM     26  C   UNL     1       2.742   5.571  20.090  0.00  0.00    +0.000 A 
ATOM     27  C   UNL     1       3.406   5.851  18.895  0.00  0.00    +0.000 A 
ATOM     28  C   UNL     1       3.168   7.053  18.230  0.00  0.00    +0.000 A 
ATOM     29  C   UNL     1       2.259   7.976  18.752  0.00  0.00    +0.000 A 
ATOM     30 CL   UNL     1       2.039   9.480  17.929  0.00  0.00    +0.000 Cl
ENDBRANCH  22  24
ENDBRANCH   1  21
TORSDOF 4
ENDMDL
MODEL 8
REMARK VINA RESULT:      -8.2      6.388      9.803
REMARK  Name = 
REMARK  4 active torsions:
REMARK  status: ('A' for Active; 'I' for Inactive)
REMARK    1  A    between atoms: C_2  and  C_11
REMARK    2  A    between atoms: N_3  and  C_4
REMARK    3  A    between atoms: C_13  and  C_14
REMARK    4  A    between atoms: C_19  and  C_21
REMARK                            x       y       z     vdW  Elec       q    Type
REMARK                         _______ _______ _______ _____ _____    ______ ____
ROOT
ATOM      1  C   UNL     1       1.414   9.242  20.111  0.00  0.00    +0.000 A 
ATOM      2  C   UNL     1       0.845  10.474  19.713  0.00  0.00    +0.000 A 
ATOM      3  C   UNL     1       0.589  11.134  20.884  0.00  0.00    +0.000 A 
ATOM      4  O   UNL     1       0.936  10.331  21.928  0.00  0.00    +0.000 OA
ATOM      5  N   UNL     1       1.446   9.136  21.452  0.00  0.00    +0.000 NA
ENDROOT
BRANCH   3   6
ATOM      6  C   UNL     1       0.032  12.487  21.186  0.00  0.00    +0.000 C 
ATOM      7  C   UNL     1      -0.875  12.477  22.425  0.00  0.00    +0.000 C 
ATOM      8  C   UNL     1      -2.255  11.870  22.151  0.00  0.00    +0.000 C 
ATOM      9  C   UNL     1      -2.906  12.431  20.884  0.00  0.00    +0.000 C 
ATOM     10  N   UNL     1      -1.985  12.403  19.746  0.00  0.00    +0.000 N 
ATOM     11  C   UNL     1      -2.223  11.869  18.484  0.00  0.00    +0.000 C 
ATOM     12  O   UNL     1      -1.372  11.960  17.594  0.00  0.00    +0.000 OA
ATOM     13  C   UNL     1      -0.708  13.082  19.983  0.00  0.00    +0.000 C 
BRANCH  11  14
ATOM     14  C   UNL     1      -3.559  11.158  18.208  0.00  0.00    +0.000 C 
ATOM     15  C   UNL     1      -4.343  11.809  17.056  0.00  0.00    +0.000 C 
ATOM     16  C   UNL     1      -3.789  11.517  15.664  0.00  0.00    +0.000 C 
ATOM     17  C   UNL     1      -3.517  10.039  15.414  0.00  0.00    +0.000 C 
ATOM     18  C   UNL     1      -2.827   9.325  16.571  0.00  0.00    +0.000 C 
ATOM     19  C   UNL     1      -3.404   9.656  17.947  0.00  0.00    +0.000 C 
ENDBRANCH  11  14
ENDBRANCH   3   6
BRANCH   1  21
ATOM     20  O   UNL     1       1.805   8.324  18.003  0.00  0.00    +0.000 OA
ATOM     21  C   UNL     1       1.920   8.204  19.225  0.00  0.00    +0.000 C 
ATOM     22  N   UNL     1       2.448   7.096  19.856  0.00  0.00    +0.000 N 
ATOM     23  H   UNL     1       2.169   6.972  20.828  0.00  0.00    +0.000 HD
BRANCH  22  24
ATOM     24  C   UNL     1       2.867   5.957  19.137  0.00  0.00    +0.000 A 
ATOM     25  C   UNL     1       3.871   6.059  18.164  0.00  0.00    +0.000 A 
ATOM     26  C   UNL     1       4.254   4.944  17.423  0.00  0.00    +0.000 A 
ATOM     27  C   UNL     1       3.630   3.715  17.641  0.00  0.00    +0.000 A 
ATOM     28  C   UNL     1       2.636   3.600  18.613  0.00  0.00    +0.000 A 
ATOM     29  C   UNL     1       2.269   4.711  19.376  0.00  0.00    +0.000 A 
ATOM     30 CL   UNL     1       0.992   4.541  20.528  0.00  0.00    +0.000 Cl
ENDBRANCH  22  24
ENDBRANCH   1  21
TORSDOF 4
ENDMDL
MODEL 9
REMARK VINA RESULT:      -8.2      1.585      1.681
REMARK  Name = 
REMARK  4 active torsions:
REMARK  status: ('A' for Active; 'I' for Inactive)
REMARK    1  A    between atoms: C_2  and  C_11
REMARK    2  A    between atoms: N_3  and  C_4
REMARK    3  A    between atoms: C_13  and  C_14
REMARK    4  A    between atoms: C_19  and  C_21
REMARK                            x       y       z     vdW  Elec       q    Type
REMARK                         _______ _______ _______ _____ _____    ______ ____
ROOT
ATOM      1  C   UNL     1       8.282   8.206  18.357  0.00  0.00    +0.000 A 
ATOM      2  C   UNL     1       7.803   7.595  17.175  0.00  0.00    +0.000 A 
ATOM      3  C   UNL     1       7.700   6.266  17.486  0.00  0.00    +0.000 A 
ATOM      4  O   UNL     1       8.137   6.077  18.763  0.00  0.00    +0.000 OA
ATOM      5  N   UNL     1       8.515   7.289  19.314  0.00  0.00    +0.000 NA
ENDROOT
BRANCH   3   6
ATOM      6  C   UNL     1       7.227   5.077  16.716  0.00  0.00    +0.000 C 
ATOM      7  C   UNL     1       6.638   5.466  15.353  0.00  0.00    +0.000 C 
ATOM      8  C   UNL     1       5.234   6.070  15.459  0.00  0.00    +0.000 C 
ATOM      9  C   UNL     1       4.301   5.243  16.349  0.00  0.00    +0.000 C 
ATOM     10  N   UNL     1       4.927   4.915  17.631  0.00  0.00    +0.000 N 
ATOM     11  C   UNL     1       4.400   5.119  18.902  0.00  0.00    +0.000 C 
ATOM     12  O   UNL     1       5.017   4.746  19.904  0.00  0.00    +0.000 OA
ATOM     13  C   UNL     1       6.223   4.239  17.517  0.00  0.00    +0.000 C 
BRANCH  11  14
ATOM     14  C   UNL     1       3.038   5.819  19.048  0.00  0.00    +0.000 C 
ATOM     15  C   UNL     1       1.972   5.229  18.111  0.00  0.00    +0.000 C 
ATOM     16  C   UNL     1       1.428   3.869  18.543  0.00  0.00    +0.000 C 
ATOM     17  C   UNL     1       1.003   3.819  20.005  0.00  0.00    +0.000 C 
ATOM     18  C   UNL     1       1.985   4.481  20.965  0.00  0.00    +0.000 C 
ATOM     19  C   UNL     1       2.515   5.833  20.488  0.00  0.00    +0.000 C 
ENDBRANCH  11  14
ENDBRANCH   3   6
BRANCH   1  21
ATOM     20  O   UNL     1       8.046  10.445  17.752  0.00  0.00    +0.000 OA
ATOM     21  C   UNL     1       8.499   9.630  18.560  0.00  0.00    +0.000 C 
ATOM     22  N   UNL     1       9.282   9.959  19.647  0.00  0.00    +0.000 N 
ATOM     23  H   UNL     1       9.864   9.205  20.011  0.00  0.00    +0.000 HD
BRANCH  22  24
ATOM     24  C   UNL     1       9.682  11.287  19.906  0.00  0.00    +0.000 A 
ATOM     25  C   UNL     1       9.058  12.033  20.916  0.00  0.00    +0.000 A 
ATOM     26  C   UNL     1       9.422  13.358  21.143  0.00  0.00    +0.000 A 
ATOM     27  C   UNL     1      10.405  13.955  20.354  0.00  0.00    +0.000 A 
ATOM     28  C   UNL     1      11.038  13.219  19.352  0.00  0.00    +0.000 A 
ATOM     29  C   UNL     1      10.695  11.881  19.142  0.00  0.00    +0.000 A 
ATOM     30 CL   UNL     1      11.460  11.022  17.851  0.00  0.00    +0.000 Cl
ENDBRANCH  22  24
ENDBRANCH   1  21
TORSDOF 4
ENDMDL
