MODEL 1
REMARK VINA RESULT:      -6.2      0.000      0.000
REMARK  Name = 
REMARK  12 active torsions:
REMARK  status: ('A' for Active; 'I' for Inactive)
REMARK    1  A    between atoms: C_1  and  C_2
REMARK    2  A    between atoms: C_2  and  O_3
REMARK    3  A    between atoms: O_3  and  C_4
REMARK    4  A    between atoms: C_4  and  C_5
REMARK    5  A    between atoms: C_5  and  O_6
REMARK    6  A    between atoms: O_6  and  C_7
REMARK    7  A    between atoms: C_7  and  C_9
REMARK    8  A    between atoms: C_9  and  C_10
REMARK    9  A    between atoms: C_9  and  S_11
REMARK   10  A    between atoms: S_11  and  C_12
REMARK   11  A    between atoms: C_15  and  O_16
REMARK   12  A    between atoms: C_18  and  O_19
REMARK                            x       y       z     vdW  Elec       q    Type
REMARK                         _______ _______ _______ _____ _____    ______ ____
ROOT
ATOM      1  S   UNL     1       4.912   5.934  17.878  0.00  0.00    +0.000 S 
ENDROOT
BRANCH   1   2
ATOM      2  C   UNL     1       4.135   4.898  19.090  0.00  0.00    +0.000 A 
ATOM      3  N   UNL     1       4.518   3.606  19.187  0.00  0.00    +0.000 NA
ATOM      4  N   UNL     1       3.916   2.807  20.110  0.00  0.00    +0.000 NA
ATOM      5  C   UNL     1       2.967   3.343  20.902  0.00  0.00    +0.000 A 
ATOM      6  N   UNL     1       2.544   4.607  20.889  0.00  0.00    +0.000 NA
ATOM      7  C   UNL     1       3.158   5.358  19.962  0.00  0.00    +0.000 A 
BRANCH   5   8
ATOM      8  O   UNL     1       2.379   2.495  21.791  0.00  0.00    +0.000 OA
ATOM      9  H   UNL     1       1.819   3.115  22.287  0.00  0.00    +0.000 HD
ENDBRANCH   5   8
BRANCH   7  10
ATOM     10  O   UNL     1       2.722   6.647  19.953  0.00  0.00    +0.000 OA
ATOM     11  H   UNL     1       3.329   7.042  19.303  0.00  0.00    +0.000 HD
ENDBRANCH   7  10
ENDBRANCH   1   2
BRANCH   1  12
ATOM     12  C   UNL     1       6.661   5.675  18.313  0.00  0.00    +0.000 C 
ATOM     13  C   UNL     1       7.429   6.981  18.123  0.00  0.00    +0.000 C 
BRANCH  12  14
ATOM     14  C   UNL     1       7.334   4.641  17.419  0.00  0.00    +0.000 C 
ATOM     15  O   UNL     1       8.367   4.031  17.658  0.00  0.00    +0.000 OA
BRANCH  14  16
ATOM     16  O   UNL     1       6.478   4.356  16.401  0.00  0.00    +0.000 OA
BRANCH  16  17
ATOM     17  C   UNL     1       6.974   4.588  15.073  0.00  0.00    +0.000 C 
BRANCH  17  18
ATOM     18  C   UNL     1       5.992   3.897  14.128  0.00  0.00    +0.000 C 
BRANCH  18  19
ATOM     19  O   UNL     1       6.539   3.896  12.807  0.00  0.00    +0.000 OA
BRANCH  19  21
ATOM     20  C   UNL     1       4.546   3.322  11.630  0.00  0.00    +0.000 C 
ATOM     21  C   UNL     1       5.953   2.889  11.987  0.00  0.00    +0.000 C 
ENDBRANCH  19  21
ENDBRANCH  18  19
ENDBRANCH  17  18
ENDBRANCH  16  17
ENDBRANCH  14  16
ENDBRANCH  12  14
ENDBRANCH   1  12
TORSDOF 10
ENDMDL
MODEL 2
REMARK VINA RESULT:      -6.2      1.656      1.959
REMARK  Name = 
REMARK  12 active torsions:
REMARK  status: ('A' for Active; 'I' for Inactive)
REMARK    1  A    between atoms: C_1  and  C_2
REMARK    2  A    between atoms: C_2  and  O_3
REMARK    3  A    between atoms: O_3  and  C_4
REMARK    4  A    between atoms: C_4  and  C_5
REMARK    5  A    between atoms: C_5  and  O_6
REMARK    6  A    between atoms: O_6  and  C_7
REMARK    7  A    between atoms: C_7  and  C_9
REMARK    8  A    between atoms: C_9  and  C_10
REMARK    9  A    between atoms: C_9  and  S_11
REMARK   10  A    between atoms: S_11  and  C_12
REMARK   11  A    between atoms: C_15  and  O_16
REMARK   12  A    between atoms: C_18  and  O_19
REMARK                            x       y       z     vdW  Elec       q    Type
REMARK                         _______ _______ _______ _____ _____    ______ ____
ROOT
ATOM      1  S   UNL     1       4.325   5.003  17.406  0.00  0.00    +0.000 S 
ENDROOT
BRANCH   1   2
ATOM      2  C   UNL     1       3.248   4.304  18.629  0.00  0.00    +0.000 A 
ATOM      3  N   UNL     1       2.670   5.123  19.536  0.00  0.00    +0.000 NA
ATOM      4  N   UNL     1       1.851   4.587  20.482  0.00  0.00    +0.000 NA
ATOM      5  C   UNL     1       1.638   3.256  20.468  0.00  0.00    +0.000 A 
ATOM      6  N   UNL     1       2.148   2.381  19.602  0.00  0.00    +0.000 NA
ATOM      7  C   UNL     1       2.953   2.949  18.692  0.00  0.00    +0.000 A 
BRANCH   5   8
ATOM      8  O   UNL     1       0.831   2.768  21.450  0.00  0.00    +0.000 OA
ATOM      9  H   UNL     1       0.292   2.138  20.943  0.00  0.00    +0.000 HD
ENDBRANCH   5   8
BRANCH   7  10
ATOM     10  O   UNL     1       3.472   2.050  17.810  0.00  0.00    +0.000 OA
ATOM     11  H   UNL     1       4.336   2.455  17.621  0.00  0.00    +0.000 HD
ENDBRANCH   7  10
ENDBRANCH   1   2
BRANCH   1  12
ATOM     12  C   UNL     1       5.940   4.505  18.084  0.00  0.00    +0.000 C 
ATOM     13  C   UNL     1       6.268   5.373  19.298  0.00  0.00    +0.000 C 
BRANCH  12  14
ATOM     14  C   UNL     1       7.074   4.705  17.088  0.00  0.00    +0.000 C 
ATOM     15  O   UNL     1       8.187   4.200  17.137  0.00  0.00    +0.000 OA
BRANCH  14  16
ATOM     16  O   UNL     1       6.570   5.377  16.018  0.00  0.00    +0.000 OA
BRANCH  16  17
ATOM     17  C   UNL     1       7.031   4.949  14.727  0.00  0.00    +0.000 C 
BRANCH  17  18
ATOM     18  C   UNL     1       6.207   3.711  14.373  0.00  0.00    +0.000 C 
BRANCH  18  19
ATOM     19  O   UNL     1       5.307   4.039  13.311  0.00  0.00    +0.000 OA
BRANCH  19  21
ATOM     20  C   UNL     1       4.262   3.188  11.343  0.00  0.00    +0.000 C 
ATOM     21  C   UNL     1       5.543   3.249  12.149  0.00  0.00    +0.000 C 
ENDBRANCH  19  21
ENDBRANCH  18  19
ENDBRANCH  17  18
ENDBRANCH  16  17
ENDBRANCH  14  16
ENDBRANCH  12  14
ENDBRANCH   1  12
TORSDOF 10
ENDMDL
MODEL 3
REMARK VINA RESULT:      -6.1      1.854      2.488
REMARK  Name = 
REMARK  12 active torsions:
REMARK  status: ('A' for Active; 'I' for Inactive)
REMARK    1  A    between atoms: C_1  and  C_2
REMARK    2  A    between atoms: C_2  and  O_3
REMARK    3  A    between atoms: O_3  and  C_4
REMARK    4  A    between atoms: C_4  and  C_5
REMARK    5  A    between atoms: C_5  and  O_6
REMARK    6  A    between atoms: O_6  and  C_7
REMARK    7  A    between atoms: C_7  and  C_9
REMARK    8  A    between atoms: C_9  and  C_10
REMARK    9  A    between atoms: C_9  and  S_11
REMARK   10  A    between atoms: S_11  and  C_12
REMARK   11  A    between atoms: C_15  and  O_16
REMARK   12  A    between atoms: C_18  and  O_19
REMARK                            x       y       z     vdW  Elec       q    Type
REMARK                         _______ _______ _______ _____ _____    ______ ____
ROOT
ATOM      1  S   UNL     1       3.369   4.633  17.397  0.00  0.00    +0.000 S 
ENDROOT
BRANCH   1   2
ATOM      2  C   UNL     1       2.812   3.932  18.928  0.00  0.00    +0.000 A 
ATOM      3  N   UNL     1       1.532   4.135  19.311  0.00  0.00    +0.000 NA
ATOM      4  N   UNL     1       1.105   3.606  20.491  0.00  0.00    +0.000 NA
ATOM      5  C   UNL     1       1.977   2.888  21.226  0.00  0.00    +0.000 A 
ATOM      6  N   UNL     1       3.246   2.623  20.916  0.00  0.00    +0.000 NA
ATOM      7  C   UNL     1       3.627   3.166  19.750  0.00  0.00    +0.000 A 
BRANCH   5   8
ATOM      8  O   UNL     1       1.507   2.403  22.408  0.00  0.00    +0.000 OA
ATOM      9  H   UNL     1       1.127   1.558  22.117  0.00  0.00    +0.000 HD
ENDBRANCH   5   8
BRANCH   7  10
ATOM     10  O   UNL     1       4.924   2.892  19.438  0.00  0.00    +0.000 OA
ATOM     11  H   UNL     1       5.321   3.778  19.506  0.00  0.00    +0.000 HD
ENDBRANCH   7  10
ENDBRANCH   1   2
BRANCH   1  12
ATOM     12  C   UNL     1       4.288   6.075  18.024  0.00  0.00    +0.000 C 
ATOM     13  C   UNL     1       3.542   7.353  17.644  0.00  0.00    +0.000 C 
BRANCH  12  14
ATOM     14  C   UNL     1       5.679   6.185  17.415  0.00  0.00    +0.000 C 
ATOM     15  O   UNL     1       6.150   7.158  16.841  0.00  0.00    +0.000 OA
BRANCH  14  16
ATOM     16  O   UNL     1       6.388   5.091  17.802  0.00  0.00    +0.000 OA
BRANCH  16  17
ATOM     17  C   UNL     1       7.317   4.566  16.842  0.00  0.00    +0.000 C 
BRANCH  17  18
ATOM     18  C   UNL     1       6.478   3.819  15.805  0.00  0.00    +0.000 C 
BRANCH  18  19
ATOM     19  O   UNL     1       6.766   4.344  14.506  0.00  0.00    +0.000 OA
BRANCH  19  21
ATOM     20  C   UNL     1       6.399   3.482  12.313  0.00  0.00    +0.000 C 
ATOM     21  C   UNL     1       5.744   4.029  13.565  0.00  0.00    +0.000 C 
ENDBRANCH  19  21
ENDBRANCH  18  19
ENDBRANCH  17  18
ENDBRANCH  16  17
ENDBRANCH  14  16
ENDBRANCH  12  14
ENDBRANCH   1  12
TORSDOF 10
ENDMDL
MODEL 4
REMARK VINA RESULT:      -6.1      1.483      1.563
REMARK  Name = 
REMARK  12 active torsions:
REMARK  status: ('A' for Active; 'I' for Inactive)
REMARK    1  A    between atoms: C_1  and  C_2
REMARK    2  A    between atoms: C_2  and  O_3
REMARK    3  A    between atoms: O_3  and  C_4
REMARK    4  A    between atoms: C_4  and  C_5
REMARK    5  A    between atoms: C_5  and  O_6
REMARK    6  A    between atoms: O_6  and  C_7
REMARK    7  A    between atoms: C_7  and  C_9
REMARK    8  A    between atoms: C_9  and  C_10
REMARK    9  A    between atoms: C_9  and  S_11
REMARK   10  A    between atoms: S_11  and  C_12
REMARK   11  A    between atoms: C_15  and  O_16
REMARK   12  A    between atoms: C_18  and  O_19
REMARK                            x       y       z     vdW  Elec       q    Type
REMARK                         _______ _______ _______ _____ _____    ______ ____
ROOT
ATOM      1  S   UNL     1       4.924   6.437  17.163  0.00  0.00    +0.000 S 
ENDROOT
BRANCH   1   2
ATOM      2  C   UNL     1       4.095   4.973  17.725  0.00  0.00    +0.000 A 
ATOM      3  N   UNL     1       3.918   3.950  16.859  0.00  0.00    +0.000 NA
ATOM      4  N   UNL     1       3.274   2.829  17.285  0.00  0.00    +0.000 NA
ATOM      5  C   UNL     1       2.847   2.780  18.563  0.00  0.00    +0.000 A 
ATOM      6  N   UNL     1       2.996   3.730  19.486  0.00  0.00    +0.000 NA
ATOM      7  C   UNL     1       3.631   4.818  19.023  0.00  0.00    +0.000 A 
BRANCH   5   8
ATOM      8  O   UNL     1       2.187   1.648  18.931  0.00  0.00    +0.000 OA
ATOM      9  H   UNL     1       2.326   1.663  19.893  0.00  0.00    +0.000 HD
ENDBRANCH   5   8
BRANCH   7  10
ATOM     10  O   UNL     1       3.780   5.785  19.970  0.00  0.00    +0.000 OA
ATOM     11  H   UNL     1       2.892   5.791  20.369  0.00  0.00    +0.000 HD
ENDBRANCH   7  10
ENDBRANCH   1   2
BRANCH   1  12
ATOM     12  C   UNL     1       6.621   6.072  17.714  0.00  0.00    +0.000 C 
ATOM     13  C   UNL     1       7.397   7.379  17.862  0.00  0.00    +0.000 C 
BRANCH  12  14
ATOM     14  C   UNL     1       7.387   5.222  16.709  0.00  0.00    +0.000 C 
ATOM     15  O   UNL     1       8.019   4.202  16.947  0.00  0.00    +0.000 OA
BRANCH  14  16
ATOM     16  O   UNL     1       7.075   5.674  15.464  0.00  0.00    +0.000 OA
BRANCH  16  17
ATOM     17  C   UNL     1       7.284   4.749  14.385  0.00  0.00    +0.000 C 
BRANCH  17  18
ATOM     18  C   UNL     1       6.111   3.770  14.435  0.00  0.00    +0.000 C 
BRANCH  18  19
ATOM     19  O   UNL     1       5.222   4.052  13.351  0.00  0.00    +0.000 OA
BRANCH  19  21
ATOM     20  C   UNL     1       4.289   3.186  11.334  0.00  0.00    +0.000 C 
ATOM     21  C   UNL     1       5.534   3.284  12.192  0.00  0.00    +0.000 C 
ENDBRANCH  19  21
ENDBRANCH  18  19
ENDBRANCH  17  18
ENDBRANCH  16  17
ENDBRANCH  14  16
ENDBRANCH  12  14
ENDBRANCH   1  12
TORSDOF 10
ENDMDL
MODEL 5
REMARK VINA RESULT:      -6.1      1.679      1.953
REMARK  Name = 
REMARK  12 active torsions:
REMARK  status: ('A' for Active; 'I' for Inactive)
REMARK    1  A    between atoms: C_1  and  C_2
REMARK    2  A    between atoms: C_2  and  O_3
REMARK    3  A    between atoms: O_3  and  C_4
REMARK    4  A    between atoms: C_4  and  C_5
REMARK    5  A    between atoms: C_5  and  O_6
REMARK    6  A    between atoms: O_6  and  C_7
REMARK    7  A    between atoms: C_7  and  C_9
REMARK    8  A    between atoms: C_9  and  C_10
REMARK    9  A    between atoms: C_9  and  S_11
REMARK   10  A    between atoms: S_11  and  C_12
REMARK   11  A    between atoms: C_15  and  O_16
REMARK   12  A    between atoms: C_18  and  O_19
REMARK                            x       y       z     vdW  Elec       q    Type
REMARK                         _______ _______ _______ _____ _____    ______ ____
ROOT
ATOM      1  S   UNL     1       3.666   4.425  17.261  0.00  0.00    +0.000 S 
ENDROOT
BRANCH   1   2
ATOM      2  C   UNL     1       3.047   3.833  18.814  0.00  0.00    +0.000 A 
ATOM      3  N   UNL     1       1.798   4.182  19.196  0.00  0.00    +0.000 NA
ATOM      4  N   UNL     1       1.324   3.737  20.392  0.00  0.00    +0.000 NA
ATOM      5  C   UNL     1       2.119   2.951  21.145  0.00  0.00    +0.000 A 
ATOM      6  N   UNL     1       3.350   2.542  20.838  0.00  0.00    +0.000 NA
ATOM      7  C   UNL     1       3.780   3.008  19.655  0.00  0.00    +0.000 A 
BRANCH   5   8
ATOM      8  O   UNL     1       1.608   2.553  22.343  0.00  0.00    +0.000 OA
ATOM      9  H   UNL     1       2.340   2.786  22.937  0.00  0.00    +0.000 HD
ENDBRANCH   5   8
BRANCH   7  10
ATOM     10  O   UNL     1       5.038   2.587  19.348  0.00  0.00    +0.000 OA
ATOM     11  H   UNL     1       5.306   2.178  20.189  0.00  0.00    +0.000 HD
ENDBRANCH   7  10
ENDBRANCH   1   2
BRANCH   1  12
ATOM     12  C   UNL     1       4.952   5.572  17.850  0.00  0.00    +0.000 C 
ATOM     13  C   UNL     1       4.795   6.915  17.141  0.00  0.00    +0.000 C 
BRANCH  12  14
ATOM     14  C   UNL     1       6.358   5.077  17.536  0.00  0.00    +0.000 C 
ATOM     15  O   UNL     1       7.369   5.288  18.191  0.00  0.00    +0.000 OA
BRANCH  14  16
ATOM     16  O   UNL     1       6.263   4.182  16.516  0.00  0.00    +0.000 OA
BRANCH  16  17
ATOM     17  C   UNL     1       6.835   4.588  15.263  0.00  0.00    +0.000 C 
BRANCH  17  18
ATOM     18  C   UNL     1       6.057   3.839  14.180  0.00  0.00    +0.000 C 
BRANCH  18  19
ATOM     19  O   UNL     1       6.719   4.015  12.925  0.00  0.00    +0.000 OA
BRANCH  19  21
ATOM     20  C   UNL     1       4.714   3.339  11.824  0.00  0.00    +0.000 C 
ATOM     21  C   UNL     1       6.212   3.134  11.926  0.00  0.00    +0.000 C 
ENDBRANCH  19  21
ENDBRANCH  18  19
ENDBRANCH  17  18
ENDBRANCH  16  17
ENDBRANCH  14  16
ENDBRANCH  12  14
ENDBRANCH   1  12
TORSDOF 10
ENDMDL
MODEL 6
REMARK VINA RESULT:      -6.0      3.255      5.009
REMARK  Name = 
REMARK  12 active torsions:
REMARK  status: ('A' for Active; 'I' for Inactive)
REMARK    1  A    between atoms: C_1  and  C_2
REMARK    2  A    between atoms: C_2  and  O_3
REMARK    3  A    between atoms: O_3  and  C_4
REMARK    4  A    between atoms: C_4  and  C_5
REMARK    5  A    between atoms: C_5  and  O_6
REMARK    6  A    between atoms: O_6  and  C_7
REMARK    7  A    between atoms: C_7  and  C_9
REMARK    8  A    between atoms: C_9  and  C_10
REMARK    9  A    between atoms: C_9  and  S_11
REMARK   10  A    between atoms: S_11  and  C_12
REMARK   11  A    between atoms: C_15  and  O_16
REMARK   12  A    between atoms: C_18  and  O_19
REMARK                            x       y       z     vdW  Elec       q    Type
REMARK                         _______ _______ _______ _____ _____    ______ ____
ROOT
ATOM      1  S   UNL     1       3.440   5.788  19.282  0.00  0.00    +0.000 S 
ENDROOT
BRANCH   1   2
ATOM      2  C   UNL     1       2.615   7.322  18.952  0.00  0.00    +0.000 A 
ATOM      3  N   UNL     1       2.711   7.864  17.717  0.00  0.00    +0.000 NA
ATOM      4  N   UNL     1       2.086   9.046  17.464  0.00  0.00    +0.000 NA
ATOM      5  C   UNL     1       1.383   9.626  18.457  0.00  0.00    +0.000 A 
ATOM      6  N   UNL     1       1.219   9.155  19.693  0.00  0.00    +0.000 NA
ATOM      7  C   UNL     1       1.855   7.992  19.901  0.00  0.00    +0.000 A 
BRANCH   5   8
ATOM      8  O   UNL     1       0.799  10.820  18.160  0.00  0.00    +0.000 OA
ATOM      9  H   UNL     1      -0.036  10.738  18.651  0.00  0.00    +0.000 HD
ENDBRANCH   5   8
BRANCH   7  10
ATOM     10  O   UNL     1       1.685   7.515  21.165  0.00  0.00    +0.000 OA
ATOM     11  H   UNL     1       1.306   8.296  21.607  0.00  0.00    +0.000 HD
ENDBRANCH   7  10
ENDBRANCH   1   2
BRANCH   1  12
ATOM     12  C   UNL     1       3.156   4.928  17.702  0.00  0.00    +0.000 C 
ATOM     13  C   UNL     1       1.741   4.354  17.686  0.00  0.00    +0.000 C 
BRANCH  12  14
ATOM     14  C   UNL     1       4.105   3.754  17.502  0.00  0.00    +0.000 C 
ATOM     15  O   UNL     1       4.196   2.760  18.210  0.00  0.00    +0.000 OA
BRANCH  14  16
ATOM     16  O   UNL     1       4.690   3.899  16.283  0.00  0.00    +0.000 OA
BRANCH  16  17
ATOM     17  C   UNL     1       5.290   5.176  16.016  0.00  0.00    +0.000 C 
BRANCH  17  18
ATOM     18  C   UNL     1       6.774   4.904  15.771  0.00  0.00    +0.000 C 
BRANCH  18  19
ATOM     19  O   UNL     1       7.533   6.034  16.208  0.00  0.00    +0.000 OA
BRANCH  19  21
ATOM     20  C   UNL     1       7.727   7.945  17.622  0.00  0.00    +0.000 C 
ATOM     21  C   UNL     1       6.840   6.793  17.194  0.00  0.00    +0.000 C 
ENDBRANCH  19  21
ENDBRANCH  18  19
ENDBRANCH  17  18
ENDBRANCH  16  17
ENDBRANCH  14  16
ENDBRANCH  12  14
ENDBRANCH   1  12
TORSDOF 10
ENDMDL
MODEL 7
REMARK VINA RESULT:      -6.0      3.306      6.186
REMARK  Name = 
REMARK  12 active torsions:
REMARK  status: ('A' for Active; 'I' for Inactive)
REMARK    1  A    between atoms: C_1  and  C_2
REMARK    2  A    between atoms: C_2  and  O_3
REMARK    3  A    between atoms: O_3  and  C_4
REMARK    4  A    between atoms: C_4  and  C_5
REMARK    5  A    between atoms: C_5  and  O_6
REMARK    6  A    between atoms: O_6  and  C_7
REMARK    7  A    between atoms: C_7  and  C_9
REMARK    8  A    between atoms: C_9  and  C_10
REMARK    9  A    between atoms: C_9  and  S_11
REMARK   10  A    between atoms: S_11  and  C_12
REMARK   11  A    between atoms: C_15  and  O_16
REMARK   12  A    between atoms: C_18  and  O_19
REMARK                            x       y       z     vdW  Elec       q    Type
REMARK                         _______ _______ _______ _____ _____    ______ ____
ROOT
ATOM      1  S   UNL     1       5.185   3.833  16.135  0.00  0.00    +0.000 S 
ENDROOT
BRANCH   1   2
ATOM      2  C   UNL     1       6.241   4.960  17.006  0.00  0.00    +0.000 A 
ATOM      3  N   UNL     1       6.964   4.502  18.053  0.00  0.00    +0.000 NA
ATOM      4  N   UNL     1       7.768   5.367  18.729  0.00  0.00    +0.000 NA
ATOM      5  C   UNL     1       7.821   6.650  18.318  0.00  0.00    +0.000 A 
ATOM      6  N   UNL     1       7.162   7.180  17.288  0.00  0.00    +0.000 NA
ATOM      7  C   UNL     1       6.377   6.296  16.654  0.00  0.00    +0.000 A 
BRANCH   5   8
ATOM      8  O   UNL     1       8.621   7.479  19.044  0.00  0.00    +0.000 OA
ATOM      9  H   UNL     1       8.797   6.924  19.821  0.00  0.00    +0.000 HD
ENDBRANCH   5   8
BRANCH   7  10
ATOM     10  O   UNL     1       5.706   6.843  15.603  0.00  0.00    +0.000 OA
ATOM     11  H   UNL     1       4.941   6.244  15.541  0.00  0.00    +0.000 HD
ENDBRANCH   7  10
ENDBRANCH   1   2
BRANCH   1  12
ATOM     12  C   UNL     1       3.735   3.842  17.237  0.00  0.00    +0.000 C 
ATOM     13  C   UNL     1       3.619   5.208  17.909  0.00  0.00    +0.000 C 
BRANCH  12  14
ATOM     14  C   UNL     1       3.850   2.815  18.355  0.00  0.00    +0.000 C 
ATOM     15  O   UNL     1       4.528   2.912  19.368  0.00  0.00    +0.000 OA
BRANCH  14  16
ATOM     16  O   UNL     1       2.906   1.860  18.137  0.00  0.00    +0.000 OA
BRANCH  16  17
ATOM     17  C   UNL     1       1.933   1.683  19.178  0.00  0.00    +0.000 C 
BRANCH  17  18
ATOM     18  C   UNL     1       0.736   2.552  18.790  0.00  0.00    +0.000 C 
BRANCH  18  19
ATOM     19  O   UNL     1       0.610   3.619  19.734  0.00  0.00    +0.000 OA
BRANCH  19  21
ATOM     20  C   UNL     1       2.157   4.544  21.296  0.00  0.00    +0.000 C 
ATOM     21  C   UNL     1       1.303   3.341  20.948  0.00  0.00    +0.000 C 
ENDBRANCH  19  21
ENDBRANCH  18  19
ENDBRANCH  17  18
ENDBRANCH  16  17
ENDBRANCH  14  16
ENDBRANCH  12  14
ENDBRANCH   1  12
TORSDOF 10
ENDMDL
MODEL 8
REMARK VINA RESULT:      -6.0      1.787      1.966
REMARK  Name = 
REMARK  12 active torsions:
REMARK  status: ('A' for Active; 'I' for Inactive)
REMARK    1  A    between atoms: C_1  and  C_2
REMARK    2  A    between atoms: C_2  and  O_3
REMARK    3  A    between atoms: O_3  and  C_4
REMARK    4  A    between atoms: C_4  and  C_5
REMARK    5  A    between atoms: C_5  and  O_6
REMARK    6  A    between atoms: O_6  and  C_7
REMARK    7  A    between atoms: C_7  and  C_9
REMARK    8  A    between atoms: C_9  and  C_10
REMARK    9  A    between atoms: C_9  and  S_11
REMARK   10  A    between atoms: S_11  and  C_12
REMARK   11  A    between atoms: C_15  and  O_16
REMARK   12  A    between atoms: C_18  and  O_19
REMARK                            x       y       z     vdW  Elec       q    Type
REMARK                         _______ _______ _______ _____ _____    ______ ____
ROOT
ATOM      1  S   UNL     1       5.352   5.389  18.831  0.00  0.00    +0.000 S 
ENDROOT
BRANCH   1   2
ATOM      2  C   UNL     1       3.923   4.347  18.699  0.00  0.00    +0.000 A 
ATOM      3  N   UNL     1       4.052   3.025  18.953  0.00  0.00    +0.000 NA
ATOM      4  N   UNL     1       2.958   2.222  18.842  0.00  0.00    +0.000 NA
ATOM      5  C   UNL     1       1.783   2.782  18.494  0.00  0.00    +0.000 A 
ATOM      6  N   UNL     1       1.562   4.073  18.247  0.00  0.00    +0.000 NA
ATOM      7  C   UNL     1       2.665   4.828  18.362  0.00  0.00    +0.000 A 
BRANCH   5   8
ATOM      8  O   UNL     1       0.726   1.932  18.373  0.00  0.00    +0.000 OA
ATOM      9  H   UNL     1       1.091   1.132  18.787  0.00  0.00    +0.000 HD
ENDBRANCH   5   8
BRANCH   7  10
ATOM     10  O   UNL     1       2.434   6.145  18.107  0.00  0.00    +0.000 OA
ATOM     11  H   UNL     1       1.623   6.089  17.571  0.00  0.00    +0.000 HD
ENDBRANCH   7  10
ENDBRANCH   1   2
BRANCH   1  12
ATOM     12  C   UNL     1       6.417   4.629  17.564  0.00  0.00    +0.000 C 
ATOM     13  C   UNL     1       7.863   4.624  18.056  0.00  0.00    +0.000 C 
BRANCH  12  14
ATOM     14  C   UNL     1       6.405   5.406  16.255  0.00  0.00    +0.000 C 
ATOM     15  O   UNL     1       5.803   6.447  16.030  0.00  0.00    +0.000 OA
BRANCH  14  16
ATOM     16  O   UNL     1       7.347   4.859  15.441  0.00  0.00    +0.000 OA
BRANCH  16  17
ATOM     17  C   UNL     1       7.107   4.971  14.030  0.00  0.00    +0.000 C 
BRANCH  17  18
ATOM     18  C   UNL     1       6.295   3.736  13.640  0.00  0.00    +0.000 C 
BRANCH  18  19
ATOM     19  O   UNL     1       5.984   3.805  12.245  0.00  0.00    +0.000 OA
BRANCH  19  21
ATOM     20  C   UNL     1       3.987   3.217  11.081  0.00  0.00    +0.000 C 
ATOM     21  C   UNL     1       5.202   2.693  11.818  0.00  0.00    +0.000 C 
ENDBRANCH  19  21
ENDBRANCH  18  19
ENDBRANCH  17  18
ENDBRANCH  16  17
ENDBRANCH  14  16
ENDBRANCH  12  14
ENDBRANCH   1  12
TORSDOF 10
ENDMDL
MODEL 9
REMARK VINA RESULT:      -6.0      1.688      1.903
REMARK  Name = 
REMARK  12 active torsions:
REMARK  status: ('A' for Active; 'I' for Inactive)
REMARK    1  A    between atoms: C_1  and  C_2
REMARK    2  A    between atoms: C_2  and  O_3
REMARK    3  A    between atoms: O_3  and  C_4
REMARK    4  A    between atoms: C_4  and  C_5
REMARK    5  A    between atoms: C_5  and  O_6
REMARK    6  A    between atoms: O_6  and  C_7
REMARK    7  A    between atoms: C_7  and  C_9
REMARK    8  A    between atoms: C_9  and  C_10
REMARK    9  A    between atoms: C_9  and  S_11
REMARK   10  A    between atoms: S_11  and  C_12
REMARK   11  A    between atoms: C_15  and  O_16
REMARK   12  A    between atoms: C_18  and  O_19
REMARK                            x       y       z     vdW  Elec       q    Type
REMARK                         _______ _______ _______ _____ _____    ______ ____
ROOT
ATOM      1  S   UNL     1       5.362   5.365  18.880  0.00  0.00    +0.000 S 
ENDROOT
BRANCH   1   2
ATOM      2  C   UNL     1       4.024   4.203  18.807  0.00  0.00    +0.000 A 
ATOM      3  N   UNL     1       4.062   3.220  17.880  0.00  0.00    +0.000 NA
ATOM      4  N   UNL     1       3.032   2.333  17.816  0.00  0.00    +0.000 NA
ATOM      5  C   UNL     1       2.017   2.463  18.693  0.00  0.00    +0.000 A 
ATOM      6  N   UNL     1       1.909   3.385  19.649  0.00  0.00    +0.000 NA
ATOM      7  C   UNL     1       2.941   4.242  19.674  0.00  0.00    +0.000 A 
BRANCH   5   8
ATOM      8  O   UNL     1       1.000   1.565  18.571  0.00  0.00    +0.000 OA
ATOM      9  H   UNL     1       0.333   1.970  19.150  0.00  0.00    +0.000 HD
ENDBRANCH   5   8
BRANCH   7  10
ATOM     10  O   UNL     1       2.824   5.182  20.652  0.00  0.00    +0.000 OA
ATOM     11  H   UNL     1       2.862   4.624  21.449  0.00  0.00    +0.000 HD
ENDBRANCH   7  10
ENDBRANCH   1   2
BRANCH   1  12
ATOM     12  C   UNL     1       6.334   4.820  17.440  0.00  0.00    +0.000 C 
ATOM     13  C   UNL     1       7.781   4.583  17.868  0.00  0.00    +0.000 C 
BRANCH  12  14
ATOM     14  C   UNL     1       6.373   5.869  16.336  0.00  0.00    +0.000 C 
ATOM     15  O   UNL     1       6.280   7.080  16.477  0.00  0.00    +0.000 OA
BRANCH  14  16
ATOM     16  O   UNL     1       6.741   5.244  15.185  0.00  0.00    +0.000 OA
BRANCH  16  17
ATOM     17  C   UNL     1       6.141   3.963  14.941  0.00  0.00    +0.000 C 
BRANCH  17  18
ATOM     18  C   UNL     1       5.581   4.022  13.520  0.00  0.00    +0.000 C 
BRANCH  18  19
ATOM     19  O   UNL     1       6.369   3.181  12.673  0.00  0.00    +0.000 OA
BRANCH  19  21
ATOM     20  C   UNL     1       4.274   3.285  11.537  0.00  0.00    +0.000 C 
ATOM     21  C   UNL     1       5.577   2.526  11.686  0.00  0.00    +0.000 C 
ENDBRANCH  19  21
ENDBRANCH  18  19
ENDBRANCH  17  18
ENDBRANCH  16  17
ENDBRANCH  14  16
ENDBRANCH  12  14
ENDBRANCH   1  12
TORSDOF 10
ENDMDL
