MODEL 1
REMARK VINA RESULT:      -6.2      0.000      0.000
REMARK  Name = 
REMARK  7 active torsions:
REMARK  status: ('A' for Active; 'I' for Inactive)
REMARK    1  A    between atoms: C_1  and  C_2
REMARK    2  A    between atoms: C_5  and  C_6
REMARK    3  A    between atoms: N_7  and  C_8
REMARK    4  A    between atoms: C_8  and  C_9
REMARK    5  A    between atoms: C_8  and  C_13
REMARK    6  A    between atoms: C_9  and  C_10
REMARK    7  A    between atoms: C_10  and  O_12
REMARK                            x       y       z     vdW  Elec       q    Type
REMARK                         _______ _______ _______ _____ _____    ______ ____
ROOT
ATOM      1  C   UNL     1       3.762   4.347  18.757  0.00  0.00    +0.000 C 
ENDROOT
BRANCH   1   8
ATOM      2  C   UNL     1       3.514   7.390  17.577  0.00  0.00    +0.000 C 
ATOM      3  C   UNL     1       2.898   6.810  18.800  0.00  0.00    +0.000 A 
ATOM      4  C   UNL     1       2.054   7.512  19.641  0.00  0.00    +0.000 A 
ATOM      5  C   UNL     1       1.663   6.670  20.684  0.00  0.00    +0.000 A 
ATOM      6  C   UNL     1       2.255   5.443  20.476  0.00  0.00    +0.000 A 
ATOM      7  C   UNL     1       2.096   4.241  21.342  0.00  0.00    +0.000 C 
ATOM      8  N   UNL     1       3.027   5.515  19.304  0.00  0.00    +0.000 N 
ENDBRANCH   1   8
BRANCH   1   9
ATOM      9  C   UNL     1       5.207   4.712  18.388  0.00  0.00    +0.000 A 
ATOM     10  C   UNL     1       5.854   4.454  17.130  0.00  0.00    +0.000 A 
ATOM     11  C   UNL     1       7.166   4.872  17.111  0.00  0.00    +0.000 A 
ATOM     12  S   UNL     1       7.648   5.552  18.599  0.00  0.00    +0.000 S 
ATOM     13  C   UNL     1       6.093   5.317  19.268  0.00  0.00    +0.000 A 
ENDBRANCH   1   9
BRANCH   1  14
ATOM     14  C   UNL     1       3.188   3.587  17.544  0.00  0.00    +0.000 C 
BRANCH  14  15
ATOM     15  C   UNL     1       2.209   2.511  17.912  0.00  0.00    +0.000 C 
ATOM     16  O   UNL     1       1.010   2.667  18.064  0.00  0.00    +0.000 OA
BRANCH  15  17
ATOM     17  O   UNL     1       2.816   1.316  18.104  0.00  0.00    +0.000 OA
ATOM     18  H   UNL     1       3.628   1.348  18.649  0.00  0.00    +0.000 HD
ENDBRANCH  15  17
ENDBRANCH  14  15
ENDBRANCH   1  14
TORSDOF 5
ENDMDL
MODEL 2
REMARK VINA RESULT:      -6.1      0.846      1.183
REMARK  Name = 
REMARK  7 active torsions:
REMARK  status: ('A' for Active; 'I' for Inactive)
REMARK    1  A    between atoms: C_1  and  C_2
REMARK    2  A    between atoms: C_5  and  C_6
REMARK    3  A    between atoms: N_7  and  C_8
REMARK    4  A    between atoms: C_8  and  C_9
REMARK    5  A    between atoms: C_8  and  C_13
REMARK    6  A    between atoms: C_9  and  C_10
REMARK    7  A    between atoms: C_10  and  O_12
REMARK                            x       y       z     vdW  Elec       q    Type
REMARK                         _______ _______ _______ _____ _____    ______ ____
ROOT
ATOM      1  C   UNL     1       3.986   3.901  18.970  0.00  0.00    +0.000 C 
ENDROOT
BRANCH   1   8
ATOM      2  C   UNL     1       3.476   6.928  17.835  0.00  0.00    +0.000 C 
ATOM      3  C   UNL     1       2.905   6.276  19.044  0.00  0.00    +0.000 A 
ATOM      4  C   UNL     1       1.995   6.886  19.887  0.00  0.00    +0.000 A 
ATOM      5  C   UNL     1       1.672   5.996  20.913  0.00  0.00    +0.000 A 
ATOM      6  C   UNL     1       2.373   4.830  20.692  0.00  0.00    +0.000 A 
ATOM      7  C   UNL     1       2.316   3.604  21.538  0.00  0.00    +0.000 C 
ATOM      8  N   UNL     1       3.145   4.990  19.528  0.00  0.00    +0.000 N 
ENDBRANCH   1   8
BRANCH   1   9
ATOM      9  C   UNL     1       5.360   4.422  18.523  0.00  0.00    +0.000 A 
ATOM     10  C   UNL     1       6.298   5.148  19.335  0.00  0.00    +0.000 A 
ATOM     11  C   UNL     1       7.433   5.508  18.642  0.00  0.00    +0.000 A 
ATOM     12  S   UNL     1       7.380   5.009  17.012  0.00  0.00    +0.000 S 
ATOM     13  C   UNL     1       5.849   4.281  17.232  0.00  0.00    +0.000 A 
ENDBRANCH   1   9
BRANCH   1  14
ATOM     14  C   UNL     1       3.450   3.048  17.804  0.00  0.00    +0.000 C 
BRANCH  14  15
ATOM     15  C   UNL     1       1.959   2.877  17.815  0.00  0.00    +0.000 C 
ATOM     16  O   UNL     1       1.153   3.662  17.347  0.00  0.00    +0.000 OA
BRANCH  15  17
ATOM     17  O   UNL     1       1.582   1.743  18.451  0.00  0.00    +0.000 OA
ATOM     18  H   UNL     1       0.615   1.632  18.557  0.00  0.00    +0.000 HD
ENDBRANCH  15  17
ENDBRANCH  14  15
ENDBRANCH   1  14
TORSDOF 5
ENDMDL
MODEL 3
REMARK VINA RESULT:      -6.1      2.712      3.655
REMARK  Name = 
REMARK  7 active torsions:
REMARK  status: ('A' for Active; 'I' for Inactive)
REMARK    1  A    between atoms: C_1  and  C_2
REMARK    2  A    between atoms: C_5  and  C_6
REMARK    3  A    between atoms: N_7  and  C_8
REMARK    4  A    between atoms: C_8  and  C_9
REMARK    5  A    between atoms: C_8  and  C_13
REMARK    6  A    between atoms: C_9  and  C_10
REMARK    7  A    between atoms: C_10  and  O_12
REMARK                            x       y       z     vdW  Elec       q    Type
REMARK                         _______ _______ _______ _____ _____    ______ ____
ROOT
ATOM      1  C   UNL     1       5.253   4.895  16.756  0.00  0.00    +0.000 C 
ENDROOT
BRANCH   1   8
ATOM      2  C   UNL     1       3.456   7.503  17.584  0.00  0.00    +0.000 C 
ATOM      3  C   UNL     1       3.123   6.059  17.718  0.00  0.00    +0.000 A 
ATOM      4  C   UNL     1       1.918   5.592  18.210  0.00  0.00    +0.000 A 
ATOM      5  C   UNL     1       1.944   4.196  18.198  0.00  0.00    +0.000 A 
ATOM      6  C   UNL     1       3.161   3.803  17.684  0.00  0.00    +0.000 A 
ATOM      7  C   UNL     1       3.607   2.397  17.478  0.00  0.00    +0.000 C 
ATOM      8  N   UNL     1       3.907   4.956  17.379  0.00  0.00    +0.000 N 
ENDBRANCH   1   8
BRANCH   1   9
ATOM      9  C   UNL     1       6.323   5.516  17.665  0.00  0.00    +0.000 A 
ATOM     10  C   UNL     1       7.069   6.716  17.401  0.00  0.00    +0.000 A 
ATOM     11  C   UNL     1       7.982   7.003  18.392  0.00  0.00    +0.000 A 
ATOM     12  S   UNL     1       7.979   5.831  19.632  0.00  0.00    +0.000 S 
ATOM     13  C   UNL     1       6.733   4.949  18.863  0.00  0.00    +0.000 A 
ENDBRANCH   1   9
BRANCH   1  14
ATOM     14  C   UNL     1       5.471   5.506  15.357  0.00  0.00    +0.000 C 
BRANCH  14  15
ATOM     15  C   UNL     1       6.562   4.841  14.570  0.00  0.00    +0.000 C 
ATOM     16  O   UNL     1       7.541   5.398  14.107  0.00  0.00    +0.000 OA
BRANCH  15  17
ATOM     17  O   UNL     1       6.324   3.520  14.387  0.00  0.00    +0.000 OA
ATOM     18  H   UNL     1       6.979   3.058  13.825  0.00  0.00    +0.000 HD
ENDBRANCH  15  17
ENDBRANCH  14  15
ENDBRANCH   1  14
TORSDOF 5
ENDMDL
MODEL 4
REMARK VINA RESULT:      -6.0      3.152      4.339
REMARK  Name = 
REMARK  7 active torsions:
REMARK  status: ('A' for Active; 'I' for Inactive)
REMARK    1  A    between atoms: C_1  and  C_2
REMARK    2  A    between atoms: C_5  and  C_6
REMARK    3  A    between atoms: N_7  and  C_8
REMARK    4  A    between atoms: C_8  and  C_9
REMARK    5  A    between atoms: C_8  and  C_13
REMARK    6  A    between atoms: C_9  and  C_10
REMARK    7  A    between atoms: C_10  and  O_12
REMARK                            x       y       z     vdW  Elec       q    Type
REMARK                         _______ _______ _______ _____ _____    ______ ____
ROOT
ATOM      1  C   UNL     1       5.634   5.450  17.915  0.00  0.00    +0.000 C 
ENDROOT
BRANCH   1   8
ATOM      2  C   UNL     1       4.285   2.766  19.215  0.00  0.00    +0.000 C 
ATOM      3  C   UNL     1       3.645   4.070  18.893  0.00  0.00    +0.000 A 
ATOM      4  C   UNL     1       2.316   4.356  19.147  0.00  0.00    +0.000 A 
ATOM      5  C   UNL     1       2.052   5.659  18.721  0.00  0.00    +0.000 A 
ATOM      6  C   UNL     1       3.224   6.181  18.218  0.00  0.00    +0.000 A 
ATOM      7  C   UNL     1       3.402   7.555  17.668  0.00  0.00    +0.000 C 
ATOM      8  N   UNL     1       4.227   5.201  18.320  0.00  0.00    +0.000 N 
ENDBRANCH   1   8
BRANCH   1   9
ATOM      9  C   UNL     1       5.876   5.060  16.450  0.00  0.00    +0.000 A 
ATOM     10  C   UNL     1       4.974   4.323  15.607  0.00  0.00    +0.000 A 
ATOM     11  C   UNL     1       5.486   4.100  14.348  0.00  0.00    +0.000 A 
ATOM     12  S   UNL     1       7.057   4.741  14.167  0.00  0.00    +0.000 S 
ATOM     13  C   UNL     1       7.048   5.348  15.765  0.00  0.00    +0.000 A 
ENDBRANCH   1   9
BRANCH   1  14
ATOM     14  C   UNL     1       6.782   4.815  18.725  0.00  0.00    +0.000 C 
BRANCH  14  15
ATOM     15  C   UNL     1       7.718   5.817  19.335  0.00  0.00    +0.000 C 
ATOM     16  O   UNL     1       8.143   6.816  18.783  0.00  0.00    +0.000 OA
BRANCH  15  17
ATOM     17  O   UNL     1       8.086   5.469  20.591  0.00  0.00    +0.000 OA
ATOM     18  H   UNL     1       7.530   5.847  21.303  0.00  0.00    +0.000 HD
ENDBRANCH  15  17
ENDBRANCH  14  15
ENDBRANCH   1  14
TORSDOF 5
ENDMDL
MODEL 5
REMARK VINA RESULT:      -6.0      2.688      4.317
REMARK  Name = 
REMARK  7 active torsions:
REMARK  status: ('A' for Active; 'I' for Inactive)
REMARK    1  A    between atoms: C_1  and  C_2
REMARK    2  A    between atoms: C_5  and  C_6
REMARK    3  A    between atoms: N_7  and  C_8
REMARK    4  A    between atoms: C_8  and  C_9
REMARK    5  A    between atoms: C_8  and  C_13
REMARK    6  A    between atoms: C_9  and  C_10
REMARK    7  A    between atoms: C_10  and  O_12
REMARK                            x       y       z     vdW  Elec       q    Type
REMARK                         _______ _______ _______ _____ _____    ______ ____
ROOT
ATOM      1  C   UNL     1       3.544   5.482  19.399  0.00  0.00    +0.000 C 
ENDROOT
BRANCH   1   8
ATOM      2  C   UNL     1       2.785   3.842  16.670  0.00  0.00    +0.000 C 
ATOM      3  C   UNL     1       2.389   3.552  18.074  0.00  0.00    +0.000 A 
ATOM      4  C   UNL     1       1.627   2.459  18.446  0.00  0.00    +0.000 A 
ATOM      5  C   UNL     1       1.444   2.494  19.829  0.00  0.00    +0.000 A 
ATOM      6  C   UNL     1       2.108   3.602  20.312  0.00  0.00    +0.000 A 
ATOM      7  C   UNL     1       2.189   4.016  21.741  0.00  0.00    +0.000 C 
ATOM      8  N   UNL     1       2.704   4.270  19.228  0.00  0.00    +0.000 N 
ENDBRANCH   1   8
BRANCH   1   9
ATOM      9  C   UNL     1       2.738   6.766  19.157  0.00  0.00    +0.000 A 
ATOM     10  C   UNL     1       2.644   7.489  17.918  0.00  0.00    +0.000 A 
ATOM     11  C   UNL     1       1.868   8.622  18.021  0.00  0.00    +0.000 A 
ATOM     12  S   UNL     1       1.267   8.851  19.601  0.00  0.00    +0.000 S 
ATOM     13  C   UNL     1       2.018   7.417  20.148  0.00  0.00    +0.000 A 
ENDBRANCH   1   9
BRANCH   1  14
ATOM     14  C   UNL     1       4.842   5.629  18.580  0.00  0.00    +0.000 C 
BRANCH  14  15
ATOM     15  C   UNL     1       6.011   4.888  19.161  0.00  0.00    +0.000 C 
ATOM     16  O   UNL     1       6.911   5.386  19.813  0.00  0.00    +0.000 OA
BRANCH  15  17
ATOM     17  O   UNL     1       5.985   3.571  18.846  0.00  0.00    +0.000 OA
ATOM     18  H   UNL     1       6.835   3.208  18.521  0.00  0.00    +0.000 HD
ENDBRANCH  15  17
ENDBRANCH  14  15
ENDBRANCH   1  14
TORSDOF 5
ENDMDL
MODEL 6
REMARK VINA RESULT:      -5.9      3.229      4.383
REMARK  Name = 
REMARK  7 active torsions:
REMARK  status: ('A' for Active; 'I' for Inactive)
REMARK    1  A    between atoms: C_1  and  C_2
REMARK    2  A    between atoms: C_5  and  C_6
REMARK    3  A    between atoms: N_7  and  C_8
REMARK    4  A    between atoms: C_8  and  C_9
REMARK    5  A    between atoms: C_8  and  C_13
REMARK    6  A    between atoms: C_9  and  C_10
REMARK    7  A    between atoms: C_10  and  O_12
REMARK                            x       y       z     vdW  Elec       q    Type
REMARK                         _______ _______ _______ _____ _____    ______ ____
ROOT
ATOM      1  C   UNL     1       5.592   5.418  17.762  0.00  0.00    +0.000 C 
ENDROOT
BRANCH   1   8
ATOM      2  C   UNL     1       4.053   2.710  18.771  0.00  0.00    +0.000 C 
ATOM      3  C   UNL     1       3.491   4.063  18.515  0.00  0.00    +0.000 A 
ATOM      4  C   UNL     1       2.162   4.392  18.715  0.00  0.00    +0.000 A 
ATOM      5  C   UNL     1       1.981   5.735  18.378  0.00  0.00    +0.000 A 
ATOM      6  C   UNL     1       3.202   6.237  17.984  0.00  0.00    +0.000 A 
ATOM      7  C   UNL     1       3.471   7.638  17.553  0.00  0.00    +0.000 C 
ATOM      8  N   UNL     1       4.154   5.206  18.066  0.00  0.00    +0.000 N 
ENDBRANCH   1   8
BRANCH   1   9
ATOM      9  C   UNL     1       5.936   4.978  16.332  0.00  0.00    +0.000 A 
ATOM     10  C   UNL     1       7.155   5.265  15.626  0.00  0.00    +0.000 A 
ATOM     11  C   UNL     1       7.158   4.761  14.344  0.00  0.00    +0.000 A 
ATOM     12  S   UNL     1       5.699   3.965  13.960  0.00  0.00    +0.000 S 
ATOM     13  C   UNL     1       5.067   4.265  15.520  0.00  0.00    +0.000 A 
ENDBRANCH   1   9
BRANCH   1  14
ATOM     14  C   UNL     1       6.662   4.788  18.675  0.00  0.00    +0.000 C 
BRANCH  14  15
ATOM     15  C   UNL     1       7.617   5.784  19.264  0.00  0.00    +0.000 C 
ATOM     16  O   UNL     1       8.030   6.785  18.706  0.00  0.00    +0.000 OA
BRANCH  15  17
ATOM     17  O   UNL     1       8.020   5.429  20.508  0.00  0.00    +0.000 OA
ATOM     18  H   UNL     1       7.623   4.602  20.849  0.00  0.00    +0.000 HD
ENDBRANCH  15  17
ENDBRANCH  14  15
ENDBRANCH   1  14
TORSDOF 5
ENDMDL
MODEL 7
REMARK VINA RESULT:      -5.9      2.649      4.379
REMARK  Name = 
REMARK  7 active torsions:
REMARK  status: ('A' for Active; 'I' for Inactive)
REMARK    1  A    between atoms: C_1  and  C_2
REMARK    2  A    between atoms: C_5  and  C_6
REMARK    3  A    between atoms: N_7  and  C_8
REMARK    4  A    between atoms: C_8  and  C_9
REMARK    5  A    between atoms: C_8  and  C_13
REMARK    6  A    between atoms: C_9  and  C_10
REMARK    7  A    between atoms: C_10  and  O_12
REMARK                            x       y       z     vdW  Elec       q    Type
REMARK                         _______ _______ _______ _____ _____    ______ ____
ROOT
ATOM      1  C   UNL     1       3.204   5.483  19.621  0.00  0.00    +0.000 C 
ENDROOT
BRANCH   1   8
ATOM      2  C   UNL     1       1.456   4.425  17.063  0.00  0.00    +0.000 C 
ATOM      3  C   UNL     1       1.476   3.909  18.458  0.00  0.00    +0.000 A 
ATOM      4  C   UNL     1       0.737   2.820  18.884  0.00  0.00    +0.000 A 
ATOM      5  C   UNL     1       0.991   2.613  20.241  0.00  0.00    +0.000 A 
ATOM      6  C   UNL     1       1.899   3.567  20.648  0.00  0.00    +0.000 A 
ATOM      7  C   UNL     1       2.461   3.705  22.021  0.00  0.00    +0.000 C 
ATOM      8  N   UNL     1       2.212   4.381  19.546  0.00  0.00    +0.000 N 
ENDBRANCH   1   8
BRANCH   1   9
ATOM      9  C   UNL     1       2.539   6.855  19.443  0.00  0.00    +0.000 A 
ATOM     10  C   UNL     1       1.743   7.546  20.420  0.00  0.00    +0.000 A 
ATOM     11  C   UNL     1       1.255   8.748  19.955  0.00  0.00    +0.000 A 
ATOM     12  S   UNL     1       1.718   9.051  18.342  0.00  0.00    +0.000 S 
ATOM     13  C   UNL     1       2.599   7.588  18.266  0.00  0.00    +0.000 A 
ENDBRANCH   1   9
BRANCH   1  14
ATOM     14  C   UNL     1       4.424   5.472  18.678  0.00  0.00    +0.000 C 
BRANCH  14  15
ATOM     15  C   UNL     1       5.610   4.739  19.233  0.00  0.00    +0.000 C 
ATOM     16  O   UNL     1       6.596   5.258  19.728  0.00  0.00    +0.000 OA
BRANCH  15  17
ATOM     17  O   UNL     1       5.491   3.397  19.091  0.00  0.00    +0.000 OA
ATOM     18  H   UNL     1       6.190   2.872  19.534  0.00  0.00    +0.000 HD
ENDBRANCH  15  17
ENDBRANCH  14  15
ENDBRANCH   1  14
TORSDOF 5
ENDMDL
MODEL 8
REMARK VINA RESULT:      -5.9      2.771      4.833
REMARK  Name = 
REMARK  7 active torsions:
REMARK  status: ('A' for Active; 'I' for Inactive)
REMARK    1  A    between atoms: C_1  and  C_2
REMARK    2  A    between atoms: C_5  and  C_6
REMARK    3  A    between atoms: N_7  and  C_8
REMARK    4  A    between atoms: C_8  and  C_9
REMARK    5  A    between atoms: C_8  and  C_13
REMARK    6  A    between atoms: C_9  and  C_10
REMARK    7  A    between atoms: C_10  and  O_12
REMARK                            x       y       z     vdW  Elec       q    Type
REMARK                         _______ _______ _______ _____ _____    ______ ____
ROOT
ATOM      1  C   UNL     1       4.243   5.308  19.156  0.00  0.00    +0.000 C 
ENDROOT
BRANCH   1   8
ATOM      2  C   UNL     1       2.411   3.552  21.222  0.00  0.00    +0.000 C 
ATOM      3  C   UNL     1       2.713   3.290  19.790  0.00  0.00    +0.000 A 
ATOM      4  C   UNL     1       2.200   2.220  19.080  0.00  0.00    +0.000 A 
ATOM      5  C   UNL     1       2.686   2.278  17.773  0.00  0.00    +0.000 A 
ATOM      6  C   UNL     1       3.487   3.395  17.673  0.00  0.00    +0.000 A 
ATOM      7  C   UNL     1       4.199   3.851  16.446  0.00  0.00    +0.000 C 
ATOM      8  N   UNL     1       3.512   4.037  18.923  0.00  0.00    +0.000 N 
ENDBRANCH   1   8
BRANCH   1   9
ATOM      9  C   UNL     1       3.326   6.527  18.976  0.00  0.00    +0.000 A 
ATOM     10  C   UNL     1       2.334   6.988  19.909  0.00  0.00    +0.000 A 
ATOM     11  C   UNL     1       1.647   8.092  19.452  0.00  0.00    +0.000 A 
ATOM     12  S   UNL     1       2.158   8.572  17.898  0.00  0.00    +0.000 S 
ATOM     13  C   UNL     1       3.324   7.323  17.840  0.00  0.00    +0.000 A 
ENDBRANCH   1   9
BRANCH   1  14
ATOM     14  C   UNL     1       5.520   5.609  18.347  0.00  0.00    +0.000 C 
BRANCH  14  15
ATOM     15  C   UNL     1       6.772   5.064  18.968  0.00  0.00    +0.000 C 
ATOM     16  O   UNL     1       7.202   5.357  20.070  0.00  0.00    +0.000 OA
BRANCH  15  17
ATOM     17  O   UNL     1       7.421   4.211  18.140  0.00  0.00    +0.000 OA
ATOM     18  H   UNL     1       7.183   3.267  18.252  0.00  0.00    +0.000 HD
ENDBRANCH  15  17
ENDBRANCH  14  15
ENDBRANCH   1  14
TORSDOF 5
ENDMDL
MODEL 9
REMARK VINA RESULT:      -5.8      2.328      2.989
REMARK  Name = 
REMARK  7 active torsions:
REMARK  status: ('A' for Active; 'I' for Inactive)
REMARK    1  A    between atoms: C_1  and  C_2
REMARK    2  A    between atoms: C_5  and  C_6
REMARK    3  A    between atoms: N_7  and  C_8
REMARK    4  A    between atoms: C_8  and  C_9
REMARK    5  A    between atoms: C_8  and  C_13
REMARK    6  A    between atoms: C_9  and  C_10
REMARK    7  A    between atoms: C_10  and  O_12
REMARK                            x       y       z     vdW  Elec       q    Type
REMARK                         _______ _______ _______ _____ _____    ______ ____
ROOT
ATOM      1  C   UNL     1       5.139   4.924  17.568  0.00  0.00    +0.000 C 
ENDROOT
BRANCH   1   8
ATOM      2  C   UNL     1       3.039   7.400  17.979  0.00  0.00    +0.000 C 
ATOM      3  C   UNL     1       3.135   6.123  18.735  0.00  0.00    +0.000 A 
ATOM      4  C   UNL     1       2.274   5.770  19.758  0.00  0.00    +0.000 A 
ATOM      5  C   UNL     1       2.650   4.516  20.243  0.00  0.00    +0.000 A 
ATOM      6  C   UNL     1       3.736   4.090  19.509  0.00  0.00    +0.000 A 
ATOM      7  C   UNL     1       4.451   2.794  19.681  0.00  0.00    +0.000 C 
ATOM      8  N   UNL     1       4.048   5.082  18.563  0.00  0.00    +0.000 N 
ENDBRANCH   1   8
BRANCH   1   9
ATOM      9  C   UNL     1       6.290   5.905  17.831  0.00  0.00    +0.000 A 
ATOM     10  C   UNL     1       7.311   5.766  18.833  0.00  0.00    +0.000 A 
ATOM     11  C   UNL     1       8.191   6.826  18.846  0.00  0.00    +0.000 A 
ATOM     12  S   UNL     1       7.792   8.010  17.684  0.00  0.00    +0.000 S 
ATOM     13  C   UNL     1       6.456   7.094  17.137  0.00  0.00    +0.000 A 
ENDBRANCH   1   9
BRANCH   1  14
ATOM     14  C   UNL     1       4.817   5.033  16.064  0.00  0.00    +0.000 C 
BRANCH  14  15
ATOM     15  C   UNL     1       5.621   4.102  15.204  0.00  0.00    +0.000 C 
ATOM     16  O   UNL     1       5.862   4.262  14.021  0.00  0.00    +0.000 OA
BRANCH  15  17
ATOM     17  O   UNL     1       6.035   3.009  15.888  0.00  0.00    +0.000 OA
ATOM     18  H   UNL     1       5.315   2.455  16.255  0.00  0.00    +0.000 HD
ENDBRANCH  15  17
ENDBRANCH  14  15
ENDBRANCH   1  14
TORSDOF 5
ENDMDL
