MODEL 1
REMARK VINA RESULT:      -8.4      0.000      0.000
REMARK  Name = 
REMARK  2 active torsions:
REMARK  status: ('A' for Active; 'I' for Inactive)
REMARK    1  A    between atoms: C_4  and  N_5
REMARK    2  A    between atoms: N_8  and  C_9
REMARK                            x       y       z     vdW  Elec       q    Type
REMARK                         _______ _______ _______ _____ _____    ______ ____
ROOT
ATOM      1  N   UNL     1       2.487   7.473  18.770  0.00  0.00    +0.000 N 
ATOM      2  C   UNL     1       1.752   7.368  20.056  0.00  0.00    +0.000 C 
ATOM      3  C   UNL     1       1.537   8.752  20.712  0.00  0.00    +0.000 C 
ATOM      4  N   UNL     1       0.989   9.747  19.758  0.00  0.00    +0.000 N 
ATOM      5  C   UNL     1       1.760   9.818  18.503  0.00  0.00    +0.000 C 
ATOM      6  C   UNL     1       1.850   8.430  17.846  0.00  0.00    +0.000 C 
ENDROOT
BRANCH   1  10
ATOM      7  O   UNL     1       5.528   3.906  19.540  0.00  0.00    +0.000 OA
ATOM      8  C   UNL     1       5.072   4.756  18.786  0.00  0.00    +0.000 A 
ATOM      9  C   UNL     1       4.023   5.678  19.231  0.00  0.00    +0.000 A 
ATOM     10  C   UNL     1       3.498   6.590  18.394  0.00  0.00    +0.000 A 
ATOM     11  O   UNL     1       3.916   6.696  17.067  0.00  0.00    +0.000 OA
ATOM     12  C   UNL     1       4.914   5.874  16.609  0.00  0.00    +0.000 A 
ATOM     13  C   UNL     1       5.324   6.032  15.285  0.00  0.00    +0.000 A 
ATOM     14  C   UNL     1       6.374   5.257  14.784  0.00  0.00    +0.000 A 
ATOM     15  C   UNL     1       7.009   4.318  15.599  0.00  0.00    +0.000 A 
ATOM     16  C   UNL     1       6.583   4.139  16.914  0.00  0.00    +0.000 A 
ATOM     17  C   UNL     1       5.534   4.918  17.408  0.00  0.00    +0.000 A 
ENDBRANCH   1  10
BRANCH   4  18
ATOM     18  C   UNL     1      -0.111  10.553  20.057  0.00  0.00    +0.000 A 
ATOM     19  C   UNL     1      -0.977  10.884  19.086  0.00  0.00    +0.000 A 
ATOM     20  C   UNL     1      -2.163  11.693  19.370  0.00  0.00    +0.000 A 
ATOM     21  O   UNL     1      -2.933  11.956  18.445  0.00  0.00    +0.000 OA
ATOM     22  N   UNL     1      -2.316  12.091  20.678  0.00  0.00    +0.000 N 
ATOM     23  C   UNL     1      -3.412  12.866  21.029  0.00  0.00    +0.000 A 
ATOM     24  C   UNL     1      -3.599  13.287  22.287  0.00  0.00    +0.000 A 
ATOM     25  C   UNL     1      -2.650  12.930  23.307  0.00  0.00    +0.000 A 
ATOM     26  C   UNL     1      -1.581  12.179  23.011  0.00  0.00    +0.000 A 
ATOM     27  C   UNL     1      -1.360  11.714  21.610  0.00  0.00    +0.000 A 
ATOM     28  N   UNL     1      -0.311  10.998  21.342  0.00  0.00    +0.000 NA
ENDBRANCH   4  18
TORSDOF 2
ENDMDL
MODEL 2
REMARK VINA RESULT:      -8.4      2.618      3.988
REMARK  Name = 
REMARK  2 active torsions:
REMARK  status: ('A' for Active; 'I' for Inactive)
REMARK    1  A    between atoms: C_4  and  N_5
REMARK    2  A    between atoms: N_8  and  C_9
REMARK                            x       y       z     vdW  Elec       q    Type
REMARK                         _______ _______ _______ _____ _____    ______ ____
ROOT
ATOM      1  N   UNL     1       0.749   8.680  20.755  0.00  0.00    +0.000 N 
ATOM      2  C   UNL     1      -0.096   8.429  21.949  0.00  0.00    +0.000 C 
ATOM      3  C   UNL     1       0.010   9.574  22.984  0.00  0.00    +0.000 C 
ATOM      4  N   UNL     1      -0.166  10.909  22.363  0.00  0.00    +0.000 N 
ATOM      5  C   UNL     1       0.704  11.111  21.189  0.00  0.00    +0.000 C 
ATOM      6  C   UNL     1       0.476   9.998  20.152  0.00  0.00    +0.000 C 
ENDROOT
BRANCH   1  10
ATOM      7  O   UNL     1       3.717   7.049  17.425  0.00  0.00    +0.000 OA
ATOM      8  C   UNL     1       3.040   6.843  18.424  0.00  0.00    +0.000 A 
ATOM      9  C   UNL     1       2.233   7.908  19.025  0.00  0.00    +0.000 A 
ATOM     10  C   UNL     1       1.516   7.691  20.141  0.00  0.00    +0.000 A 
ATOM     11  O   UNL     1       1.512   6.452  20.783  0.00  0.00    +0.000 OA
ATOM     12  C   UNL     1       2.231   5.415  20.245  0.00  0.00    +0.000 A 
ATOM     13  C   UNL     1       2.177   4.184  20.901  0.00  0.00    +0.000 A 
ATOM     14  C   UNL     1       2.847   3.080  20.365  0.00  0.00    +0.000 A 
ATOM     15  C   UNL     1       3.578   3.204  19.182  0.00  0.00    +0.000 A 
ATOM     16  C   UNL     1       3.656   4.439  18.541  0.00  0.00    +0.000 A 
ATOM     17  C   UNL     1       2.982   5.537  19.080  0.00  0.00    +0.000 A 
ENDBRANCH   1  10
BRANCH   4  18
ATOM     18  C   UNL     1      -1.032  11.874  22.881  0.00  0.00    +0.000 A 
ATOM     19  C   UNL     1      -2.308  11.550  23.145  0.00  0.00    +0.000 A 
ATOM     20  C   UNL     1      -3.233  12.524  23.726  0.00  0.00    +0.000 A 
ATOM     21  O   UNL     1      -4.390  12.170  23.961  0.00  0.00    +0.000 OA
ATOM     22  N   UNL     1      -2.712  13.774  23.967  0.00  0.00    +0.000 N 
ATOM     23  C   UNL     1      -3.527  14.757  24.511  0.00  0.00    +0.000 A 
ATOM     24  C   UNL     1      -3.069  15.992  24.754  0.00  0.00    +0.000 A 
ATOM     25  C   UNL     1      -1.702  16.318  24.451  0.00  0.00    +0.000 A 
ATOM     26  C   UNL     1      -0.881  15.397  23.929  0.00  0.00    +0.000 A 
ATOM     27  C   UNL     1      -1.385  14.021  23.646  0.00  0.00    +0.000 A 
ATOM     28  N   UNL     1      -0.577  13.147  23.128  0.00  0.00    +0.000 NA
ENDBRANCH   4  18
TORSDOF 2
ENDMDL
MODEL 3
REMARK VINA RESULT:      -8.3      3.168      4.075
REMARK  Name = 
REMARK  2 active torsions:
REMARK  status: ('A' for Active; 'I' for Inactive)
REMARK    1  A    between atoms: C_4  and  N_5
REMARK    2  A    between atoms: N_8  and  C_9
REMARK                            x       y       z     vdW  Elec       q    Type
REMARK                         _______ _______ _______ _____ _____    ______ ____
ROOT
ATOM      1  N   UNL     1       2.027   7.603  19.573  0.00  0.00    +0.000 N 
ATOM      2  C   UNL     1       2.402   8.374  18.362  0.00  0.00    +0.000 C 
ATOM      3  C   UNL     1       1.317   9.406  17.975  0.00  0.00    +0.000 C 
ATOM      4  N   UNL     1       0.887  10.229  19.131  0.00  0.00    +0.000 N 
ATOM      5  C   UNL     1       0.517   9.415  20.304  0.00  0.00    +0.000 C 
ATOM      6  C   UNL     1       1.675   8.485  20.702  0.00  0.00    +0.000 C 
ENDROOT
BRANCH   1  10
ATOM      7  O   UNL     1       2.050   3.503  21.972  0.00  0.00    +0.000 OA
ATOM      8  C   UNL     1       2.251   4.115  20.930  0.00  0.00    +0.000 A 
ATOM      9  C   UNL     1       2.043   5.563  20.850  0.00  0.00    +0.000 A 
ATOM     10  C   UNL     1       2.230   6.230  19.698  0.00  0.00    +0.000 A 
ATOM     11  O   UNL     1       2.621   5.579  18.528  0.00  0.00    +0.000 OA
ATOM     12  C   UNL     1       2.854   4.227  18.556  0.00  0.00    +0.000 A 
ATOM     13  C   UNL     1       3.271   3.619  17.372  0.00  0.00    +0.000 A 
ATOM     14  C   UNL     1       3.575   2.254  17.360  0.00  0.00    +0.000 A 
ATOM     15  C   UNL     1       3.453   1.494  18.524  0.00  0.00    +0.000 A 
ATOM     16  C   UNL     1       3.010   2.094  19.702  0.00  0.00    +0.000 A 
ATOM     17  C   UNL     1       2.710   3.458  19.707  0.00  0.00    +0.000 A 
ENDBRANCH   1  10
BRANCH   4  18
ATOM     18  C   UNL     1       0.804  11.622  19.076  0.00  0.00    +0.000 A 
ATOM     19  C   UNL     1      -0.306  12.240  19.510  0.00  0.00    +0.000 A 
ATOM     20  C   UNL     1      -0.413  13.700  19.506  0.00  0.00    +0.000 A 
ATOM     21  O   UNL     1      -1.449  14.216  19.928  0.00  0.00    +0.000 OA
ATOM     22  N   UNL     1       0.683  14.377  19.023  0.00  0.00    +0.000 N 
ATOM     23  C   UNL     1       0.658  15.764  18.980  0.00  0.00    +0.000 A 
ATOM     24  C   UNL     1       1.695  16.470  18.509  0.00  0.00    +0.000 A 
ATOM     25  C   UNL     1       2.869  15.784  18.039  0.00  0.00    +0.000 A 
ATOM     26  C   UNL     1       2.934  14.446  18.068  0.00  0.00    +0.000 A 
ATOM     27  C   UNL     1       1.779  13.653  18.581  0.00  0.00    +0.000 A 
ATOM     28  N   UNL     1       1.858  12.357  18.588  0.00  0.00    +0.000 NA
ENDBRANCH   4  18
TORSDOF 2
ENDMDL
MODEL 4
REMARK VINA RESULT:      -8.3      2.309      3.382
REMARK  Name = 
REMARK  2 active torsions:
REMARK  status: ('A' for Active; 'I' for Inactive)
REMARK    1  A    between atoms: C_4  and  N_5
REMARK    2  A    between atoms: N_8  and  C_9
REMARK                            x       y       z     vdW  Elec       q    Type
REMARK                         _______ _______ _______ _____ _____    ______ ____
ROOT
ATOM      1  N   UNL     1       1.653   8.090  19.861  0.00  0.00    +0.000 N 
ATOM      2  C   UNL     1       1.465   9.397  19.181  0.00  0.00    +0.000 C 
ATOM      3  C   UNL     1       0.106  10.043  19.538  0.00  0.00    +0.000 C 
ATOM      4  N   UNL     1      -0.141  10.059  21.000  0.00  0.00    +0.000 N 
ATOM      5  C   UNL     1       0.049   8.736  21.625  0.00  0.00    +0.000 C 
ATOM      6  C   UNL     1       1.455   8.193  21.319  0.00  0.00    +0.000 C 
ENDROOT
BRANCH   1  10
ATOM      7  O   UNL     1       4.480   5.932  16.713  0.00  0.00    +0.000 OA
ATOM      8  C   UNL     1       3.646   5.854  17.606  0.00  0.00    +0.000 A 
ATOM      9  C   UNL     1       3.086   7.057  18.227  0.00  0.00    +0.000 A 
ATOM     10  C   UNL     1       2.196   6.972  19.230  0.00  0.00    +0.000 A 
ATOM     11  O   UNL     1       1.770   5.742  19.732  0.00  0.00    +0.000 OA
ATOM     12  C   UNL     1       2.245   4.585  19.168  0.00  0.00    +0.000 A 
ATOM     13  C   UNL     1       1.772   3.376  19.680  0.00  0.00    +0.000 A 
ATOM     14  C   UNL     1       2.181   2.170  19.104  0.00  0.00    +0.000 A 
ATOM     15  C   UNL     1       3.068   2.167  18.026  0.00  0.00    +0.000 A 
ATOM     16  C   UNL     1       3.563   3.372  17.532  0.00  0.00    +0.000 A 
ATOM     17  C   UNL     1       3.148   4.574  18.110  0.00  0.00    +0.000 A 
ENDBRANCH   1  10
BRANCH   4  18
ATOM     18  C   UNL     1      -0.556  11.204  21.684  0.00  0.00    +0.000 A 
ATOM     19  C   UNL     1       0.172  12.329  21.602  0.00  0.00    +0.000 A 
ATOM     20  C   UNL     1      -0.254  13.558  22.270  0.00  0.00    +0.000 A 
ATOM     21  O   UNL     1       0.444  14.567  22.150  0.00  0.00    +0.000 OA
ATOM     22  N   UNL     1      -1.426  13.475  22.986  0.00  0.00    +0.000 N 
ATOM     23  C   UNL     1      -1.895  14.596  23.656  0.00  0.00    +0.000 A 
ATOM     24  C   UNL     1      -3.025  14.563  24.374  0.00  0.00    +0.000 A 
ATOM     25  C   UNL     1      -3.781  13.342  24.457  0.00  0.00    +0.000 A 
ATOM     26  C   UNL     1      -3.364  12.238  23.822  0.00  0.00    +0.000 A 
ATOM     27  C   UNL     1      -2.102  12.264  23.027  0.00  0.00    +0.000 A 
ATOM     28  N   UNL     1      -1.710  11.180  22.431  0.00  0.00    +0.000 NA
ENDBRANCH   4  18
TORSDOF 2
ENDMDL
MODEL 5
REMARK VINA RESULT:      -8.2      1.883      2.590
REMARK  Name = 
REMARK  2 active torsions:
REMARK  status: ('A' for Active; 'I' for Inactive)
REMARK    1  A    between atoms: C_4  and  N_5
REMARK    2  A    between atoms: N_8  and  C_9
REMARK                            x       y       z     vdW  Elec       q    Type
REMARK                         _______ _______ _______ _____ _____    ______ ____
ROOT
ATOM      1  N   UNL     1       1.692   8.177  19.932  0.00  0.00    +0.000 N 
ATOM      2  C   UNL     1       1.488   9.471  19.234  0.00  0.00    +0.000 C 
ATOM      3  C   UNL     1       0.112  10.095  19.563  0.00  0.00    +0.000 C 
ATOM      4  N   UNL     1      -0.157  10.123  21.021  0.00  0.00    +0.000 N 
ATOM      5  C   UNL     1       0.050   8.811  21.664  0.00  0.00    +0.000 C 
ATOM      6  C   UNL     1       1.471   8.293  21.385  0.00  0.00    +0.000 C 
ENDROOT
BRANCH   1  10
ATOM      7  O   UNL     1       2.303   3.508  19.308  0.00  0.00    +0.000 OA
ATOM      8  C   UNL     1       2.591   4.658  19.001  0.00  0.00    +0.000 A 
ATOM      9  C   UNL     1       1.977   5.800  19.682  0.00  0.00    +0.000 A 
ATOM     10  C   UNL     1       2.266   7.063  19.323  0.00  0.00    +0.000 A 
ATOM     11  O   UNL     1       3.153   7.345  18.283  0.00  0.00    +0.000 OA
ATOM     12  C   UNL     1       3.774   6.311  17.630  0.00  0.00    +0.000 A 
ATOM     13  C   UNL     1       4.675   6.636  16.616  0.00  0.00    +0.000 A 
ATOM     14  C   UNL     1       5.377   5.623  15.956  0.00  0.00    +0.000 A 
ATOM     15  C   UNL     1       5.172   4.285  16.299  0.00  0.00    +0.000 A 
ATOM     16  C   UNL     1       4.252   3.956  17.293  0.00  0.00    +0.000 A 
ATOM     17  C   UNL     1       3.557   4.974  17.949  0.00  0.00    +0.000 A 
ENDBRANCH   1  10
BRANCH   4  18
ATOM     18  C   UNL     1      -0.605  11.267  21.684  0.00  0.00    +0.000 A 
ATOM     19  C   UNL     1       0.077  12.418  21.561  0.00  0.00    +0.000 A 
ATOM     20  C   UNL     1      -0.385  13.646  22.208  0.00  0.00    +0.000 A 
ATOM     21  O   UNL     1       0.270  14.678  22.050  0.00  0.00    +0.000 OA
ATOM     22  N   UNL     1      -1.539  13.534  22.948  0.00  0.00    +0.000 N 
ATOM     23  C   UNL     1      -2.040  14.653  23.599  0.00  0.00    +0.000 A 
ATOM     24  C   UNL     1      -3.155  14.593  24.339  0.00  0.00    +0.000 A 
ATOM     25  C   UNL     1      -3.860  13.346  24.467  0.00  0.00    +0.000 A 
ATOM     26  C   UNL     1      -3.412  12.244  23.851  0.00  0.00    +0.000 A 
ATOM     27  C   UNL     1      -2.166  12.300  23.032  0.00  0.00    +0.000 A 
ATOM     28  N   UNL     1      -1.742  11.217  22.454  0.00  0.00    +0.000 NA
ENDBRANCH   4  18
TORSDOF 2
ENDMDL
MODEL 6
REMARK VINA RESULT:      -8.2      3.063      9.377
REMARK  Name = 
REMARK  2 active torsions:
REMARK  status: ('A' for Active; 'I' for Inactive)
REMARK    1  A    between atoms: C_4  and  N_5
REMARK    2  A    between atoms: N_8  and  C_9
REMARK                            x       y       z     vdW  Elec       q    Type
REMARK                         _______ _______ _______ _____ _____    ______ ____
ROOT
ATOM      1  N   UNL     1       0.592  10.264  19.443  0.00  0.00    +0.000 N 
ATOM      2  C   UNL     1       1.028   9.565  18.208  0.00  0.00    +0.000 C 
ATOM      3  C   UNL     1       2.224   8.621  18.469  0.00  0.00    +0.000 C 
ATOM      4  N   UNL     1       1.997   7.738  19.639  0.00  0.00    +0.000 N 
ATOM      5  C   UNL     1       1.575   8.481  20.841  0.00  0.00    +0.000 C 
ATOM      6  C   UNL     1       0.321   9.320  20.544  0.00  0.00    +0.000 C 
ENDROOT
BRANCH   1  10
ATOM      7  O   UNL     1      -2.367  13.872  20.330  0.00  0.00    +0.000 OA
ATOM      8  C   UNL     1      -1.282  13.476  19.923  0.00  0.00    +0.000 A 
ATOM      9  C   UNL     1      -0.962  12.046  19.889  0.00  0.00    +0.000 A 
ATOM     10  C   UNL     1       0.240  11.612  19.475  0.00  0.00    +0.000 A 
ATOM     11  O   UNL     1       1.240  12.496  19.068  0.00  0.00    +0.000 OA
ATOM     12  C   UNL     1       0.982  13.844  19.058  0.00  0.00    +0.000 A 
ATOM     13  C   UNL     1       1.999  14.692  18.617  0.00  0.00    +0.000 A 
ATOM     14  C   UNL     1       1.769  16.068  18.534  0.00  0.00    +0.000 A 
ATOM     15  C   UNL     1       0.531  16.601  18.900  0.00  0.00    +0.000 A 
ATOM     16  C   UNL     1      -0.476  15.758  19.367  0.00  0.00    +0.000 A 
ATOM     17  C   UNL     1      -0.240  14.384  19.445  0.00  0.00    +0.000 A 
ENDBRANCH   1  10
BRANCH   4  18
ATOM     18  C   UNL     1       2.212   6.359  19.596  0.00  0.00    +0.000 A 
ATOM     19  C   UNL     1       1.802   5.589  20.618  0.00  0.00    +0.000 A 
ATOM     20  C   UNL     1       1.973   4.136  20.590  0.00  0.00    +0.000 A 
ATOM     21  O   UNL     1       1.567   3.476  21.547  0.00  0.00    +0.000 OA
ATOM     22  N   UNL     1       2.584   3.629  19.467  0.00  0.00    +0.000 N 
ATOM     23  C   UNL     1       2.790   2.260  19.365  0.00  0.00    +0.000 A 
ATOM     24  C   UNL     1       3.389   1.718  18.297  0.00  0.00    +0.000 A 
ATOM     25  C   UNL     1       3.830   2.564  17.221  0.00  0.00    +0.000 A 
ATOM     26  C   UNL     1       3.647   3.890  17.278  0.00  0.00    +0.000 A 
ATOM     27  C   UNL     1       2.989   4.503  18.469  0.00  0.00    +0.000 A 
ATOM     28  N   UNL     1       2.833   5.791  18.509  0.00  0.00    +0.000 NA
ENDBRANCH   4  18
TORSDOF 2
ENDMDL
MODEL 7
REMARK VINA RESULT:      -8.2      2.502     10.081
REMARK  Name = 
REMARK  2 active torsions:
REMARK  status: ('A' for Active; 'I' for Inactive)
REMARK    1  A    between atoms: C_4  and  N_5
REMARK    2  A    between atoms: N_8  and  C_9
REMARK                            x       y       z     vdW  Elec       q    Type
REMARK                         _______ _______ _______ _____ _____    ______ ____
ROOT
ATOM      1  N   UNL     1      -0.216  10.496  21.536  0.00  0.00    +0.000 N 
ATOM      2  C   UNL     1      -0.243  10.171  20.088  0.00  0.00    +0.000 C 
ATOM      3  C   UNL     1       1.075   9.514  19.618  0.00  0.00    +0.000 C 
ATOM      4  N   UNL     1       1.492   8.398  20.501  0.00  0.00    +0.000 N 
ATOM      5  C   UNL     1       1.512   8.776  21.926  0.00  0.00    +0.000 C 
ATOM      6  C   UNL     1       0.142   9.325  22.358  0.00  0.00    +0.000 C 
ENDROOT
BRANCH   1  10
ATOM      7  O   UNL     1      -0.095  15.178  22.330  0.00  0.00    +0.000 OA
ATOM      8  C   UNL     1      -0.654  14.099  22.480  0.00  0.00    +0.000 A 
ATOM      9  C   UNL     1      -0.084  12.867  21.927  0.00  0.00    +0.000 A 
ATOM     10  C   UNL     1      -0.713  11.688  22.061  0.00  0.00    +0.000 A 
ATOM     11  O   UNL     1      -1.938  11.580  22.722  0.00  0.00    +0.000 OA
ATOM     12  C   UNL     1      -2.502  12.699  23.280  0.00  0.00    +0.000 A 
ATOM     13  C   UNL     1      -3.712  12.543  23.956  0.00  0.00    +0.000 A 
ATOM     14  C   UNL     1      -4.301  13.641  24.590  0.00  0.00    +0.000 A 
ATOM     15  C   UNL     1      -3.690  14.896  24.541  0.00  0.00    +0.000 A 
ATOM     16  C   UNL     1      -2.496  15.059  23.842  0.00  0.00    +0.000 A 
ATOM     17  C   UNL     1      -1.912  13.957  23.213  0.00  0.00    +0.000 A 
ENDBRANCH   1  10
BRANCH   4  18
ATOM     18  C   UNL     1       1.867   7.146  20.009  0.00  0.00    +0.000 A 
ATOM     19  C   UNL     1       2.631   7.065  18.907  0.00  0.00    +0.000 A 
ATOM     20  C   UNL     1       3.077   5.773  18.386  0.00  0.00    +0.000 A 
ATOM     21  O   UNL     1       3.789   5.756  17.381  0.00  0.00    +0.000 OA
ATOM     22  N   UNL     1       2.654   4.668  19.088  0.00  0.00    +0.000 N 
ATOM     23  C   UNL     1       3.028   3.403  18.655  0.00  0.00    +0.000 A 
ATOM     24  C   UNL     1       2.634   2.296  19.297  0.00  0.00    +0.000 A 
ATOM     25  C   UNL     1       1.805   2.408  20.468  0.00  0.00    +0.000 A 
ATOM     26  C   UNL     1       1.425   3.610  20.921  0.00  0.00    +0.000 A 
ATOM     27  C   UNL     1       1.852   4.848  20.205  0.00  0.00    +0.000 A 
ATOM     28  N   UNL     1       1.462   6.002  20.654  0.00  0.00    +0.000 NA
ENDBRANCH   4  18
TORSDOF 2
ENDMDL
MODEL 8
REMARK VINA RESULT:      -8.2      2.682      4.128
REMARK  Name = 
REMARK  2 active torsions:
REMARK  status: ('A' for Active; 'I' for Inactive)
REMARK    1  A    between atoms: C_4  and  N_5
REMARK    2  A    between atoms: N_8  and  C_9
REMARK                            x       y       z     vdW  Elec       q    Type
REMARK                         _______ _______ _______ _____ _____    ______ ____
ROOT
ATOM      1  N   UNL     1       1.297   8.497  20.554  0.00  0.00    +0.000 N 
ATOM      2  C   UNL     1       0.894   9.648  19.707  0.00  0.00    +0.000 C 
ATOM      3  C   UNL     1      -0.433  10.281  20.187  0.00  0.00    +0.000 C 
ATOM      4  N   UNL     1      -0.432  10.549  21.645  0.00  0.00    +0.000 N 
ATOM      5  C   UNL     1      -0.035   9.373  22.441  0.00  0.00    +0.000 C 
ATOM      6  C   UNL     1       1.339   8.853  21.985  0.00  0.00    +0.000 C 
ENDROOT
BRANCH   1  10
ATOM      7  O   UNL     1       3.847   5.963  17.450  0.00  0.00    +0.000 OA
ATOM      8  C   UNL     1       3.122   5.999  18.436  0.00  0.00    +0.000 A 
ATOM      9  C   UNL     1       2.583   7.267  18.935  0.00  0.00    +0.000 A 
ATOM     10  C   UNL     1       1.815   7.311  20.036  0.00  0.00    +0.000 A 
ATOM     11  O   UNL     1       1.501   6.160  20.760  0.00  0.00    +0.000 OA
ATOM     12  C   UNL     1       1.959   4.944  20.320  0.00  0.00    +0.000 A 
ATOM     13  C   UNL     1       1.599   3.815  21.055  0.00  0.00    +0.000 A 
ATOM     14  C   UNL     1       1.993   2.546  20.620  0.00  0.00    +0.000 A 
ATOM     15  C   UNL     1       2.755   2.404  19.458  0.00  0.00    +0.000 A 
ATOM     16  C   UNL     1       3.139   3.533  18.737  0.00  0.00    +0.000 A 
ATOM     17  C   UNL     1       2.739   4.797  19.177  0.00  0.00    +0.000 A 
ENDBRANCH   1  10
BRANCH   4  18
ATOM     18  C   UNL     1      -0.817  11.777  22.187  0.00  0.00    +0.000 A 
ATOM     19  C   UNL     1      -1.944  11.861  22.914  0.00  0.00    +0.000 A 
ATOM     20  C   UNL     1      -2.357  13.121  23.531  0.00  0.00    +0.000 A 
ATOM     21  O   UNL     1      -3.392  13.139  24.200  0.00  0.00    +0.000 OA
ATOM     22  N   UNL     1      -1.529  14.196  23.306  0.00  0.00    +0.000 N 
ATOM     23  C   UNL     1      -1.854  15.430  23.852  0.00  0.00    +0.000 A 
ATOM     24  C   UNL     1      -1.086  16.509  23.653  0.00  0.00    +0.000 A 
ATOM     25  C   UNL     1       0.109  16.398  22.861  0.00  0.00    +0.000 A 
ATOM     26  C   UNL     1       0.461  15.223  22.320  0.00  0.00    +0.000 A 
ATOM     27  C   UNL     1      -0.394  14.019  22.528  0.00  0.00    +0.000 A 
ATOM     28  N   UNL     1      -0.042  12.894  21.984  0.00  0.00    +0.000 NA
ENDBRANCH   4  18
TORSDOF 2
ENDMDL
MODEL 9
REMARK VINA RESULT:      -8.1      2.475      3.524
REMARK  Name = 
REMARK  2 active torsions:
REMARK  status: ('A' for Active; 'I' for Inactive)
REMARK    1  A    between atoms: C_4  and  N_5
REMARK    2  A    between atoms: N_8  and  C_9
REMARK                            x       y       z     vdW  Elec       q    Type
REMARK                         _______ _______ _______ _____ _____    ______ ____
ROOT
ATOM      1  N   UNL     1       1.779   8.027  19.765  0.00  0.00    +0.000 N 
ATOM      2  C   UNL     1       1.712   9.359  19.113  0.00  0.00    +0.000 C 
ATOM      3  C   UNL     1       0.373  10.076  19.400  0.00  0.00    +0.000 C 
ATOM      4  N   UNL     1       0.030  10.069  20.843  0.00  0.00    +0.000 N 
ATOM      5  C   UNL     1       0.102   8.722  21.439  0.00  0.00    +0.000 C 
ATOM      6  C   UNL     1       1.491   8.104  21.209  0.00  0.00    +0.000 C 
ENDROOT
BRANCH   1  10
ATOM      7  O   UNL     1       4.599   5.792  16.664  0.00  0.00    +0.000 OA
ATOM      8  C   UNL     1       3.743   5.737  17.538  0.00  0.00    +0.000 A 
ATOM      9  C   UNL     1       3.212   6.955  18.156  0.00  0.00    +0.000 A 
ATOM     10  C   UNL     1       2.297   6.895  19.138  0.00  0.00    +0.000 A 
ATOM     11  O   UNL     1       1.818   5.677  19.622  0.00  0.00    +0.000 OA
ATOM     12  C   UNL     1       2.264   4.507  19.060  0.00  0.00    +0.000 A 
ATOM     13  C   UNL     1       1.739   3.313  19.552  0.00  0.00    +0.000 A 
ATOM     14  C   UNL     1       2.118   2.096  18.978  0.00  0.00    +0.000 A 
ATOM     15  C   UNL     1       3.029   2.070  17.919  0.00  0.00    +0.000 A 
ATOM     16  C   UNL     1       3.576   3.260  17.444  0.00  0.00    +0.000 A 
ATOM     17  C   UNL     1       3.190   4.472  18.022  0.00  0.00    +0.000 A 
ENDBRANCH   1  10
BRANCH   4  18
ATOM     18  C   UNL     1      -0.362  11.219  21.531  0.00  0.00    +0.000 A 
ATOM     19  C   UNL     1      -1.440  11.181  22.332  0.00  0.00    +0.000 A 
ATOM     20  C   UNL     1      -1.857  12.354  23.100  0.00  0.00    +0.000 A 
ATOM     21  O   UNL     1      -2.844  12.260  23.830  0.00  0.00    +0.000 OA
ATOM     22  N   UNL     1      -1.085  13.481  22.935  0.00  0.00    +0.000 N 
ATOM     23  C   UNL     1      -1.418  14.639  23.624  0.00  0.00    +0.000 A 
ATOM     24  C   UNL     1      -0.704  15.765  23.489  0.00  0.00    +0.000 A 
ATOM     25  C   UNL     1       0.439  15.784  22.616  0.00  0.00    +0.000 A 
ATOM     26  C   UNL     1       0.796  14.686  21.936  0.00  0.00    +0.000 A 
ATOM     27  C   UNL     1       0.001  13.431  22.073  0.00  0.00    +0.000 A 
ATOM     28  N   UNL     1       0.357  12.383  21.395  0.00  0.00    +0.000 NA
ENDBRANCH   4  18
TORSDOF 2
ENDMDL
