MODEL 1
REMARK VINA RESULT:      -6.2      0.000      0.000
REMARK  Name = 
REMARK  7 active torsions:
REMARK  status: ('A' for Active; 'I' for Inactive)
REMARK    1  A    between atoms: C_2  and  C_3
REMARK    2  A    between atoms: C_2  and  C_7
REMARK    3  A    between atoms: C_3  and  N_4
REMARK    4  A    between atoms: N_4  and  C_5
REMARK    5  A    between atoms: N_4  and  C_6
REMARK    6  A    between atoms: C_7  and  C_9
REMARK    7  A    between atoms: C_14  and  C_15
REMARK                            x       y       z     vdW  Elec       q    Type
REMARK                         _______ _______ _______ _____ _____    ______ ____
ROOT
ATOM      1  C   UNL     1       4.642   4.441  18.676  0.00  0.00    +0.000 C 
ATOM      2  O   UNL     1       5.708   4.252  19.242  0.00  0.00    +0.000 OA
ENDROOT
BRANCH   1   3
ATOM      3  C   UNL     1       3.366   3.973  19.334  0.00  0.00    +0.000 A 
ATOM      4  C   UNL     1       2.648   4.889  20.138  0.00  0.00    +0.000 A 
ATOM      5  C   UNL     1       1.455   4.530  20.762  0.00  0.00    +0.000 A 
ATOM      6  C   UNL     1       0.944   3.249  20.599  0.00  0.00    +0.000 A 
ATOM      7  C   UNL     1       1.616   2.326  19.802  0.00  0.00    +0.000 A 
ATOM      8  C   UNL     1       2.820   2.670  19.152  0.00  0.00    +0.000 A 
ATOM      9  C   UNL     1       3.493   1.612  18.313  0.00  0.00    +0.000 C 
ENDBRANCH   1   3
BRANCH   1  11
ATOM     10  C   UNL     1       4.471   6.427  17.194  0.00  0.00    +0.000 C 
ATOM     11  C   UNL     1       4.665   5.102  17.323  0.00  0.00    +0.000 C 
BRANCH  11  12
ATOM     12  C   UNL     1       4.935   4.286  16.066  0.00  0.00    +0.000 C 
BRANCH  12  13
ATOM     13  N   UNL     1       6.125   4.761  15.329  0.00  0.00    +0.000 NA
ATOM     14  C   UNL     1       7.356   4.590  16.116  0.00  0.00    +0.000 C 
ATOM     15  C   UNL     1       6.254   4.030  14.055  0.00  0.00    +0.000 C 
ENDBRANCH  12  13
ENDBRANCH  11  12
ENDBRANCH   1  11
TORSDOF 4
ENDMDL
MODEL 2
REMARK VINA RESULT:      -6.1      1.165      2.366
REMARK  Name = 
REMARK  7 active torsions:
REMARK  status: ('A' for Active; 'I' for Inactive)
REMARK    1  A    between atoms: C_2  and  C_3
REMARK    2  A    between atoms: C_2  and  C_7
REMARK    3  A    between atoms: C_3  and  N_4
REMARK    4  A    between atoms: N_4  and  C_5
REMARK    5  A    between atoms: N_4  and  C_6
REMARK    6  A    between atoms: C_7  and  C_9
REMARK    7  A    between atoms: C_14  and  C_15
REMARK                            x       y       z     vdW  Elec       q    Type
REMARK                         _______ _______ _______ _____ _____    ______ ____
ROOT
ATOM      1  C   UNL     1       4.085   5.432  18.731  0.00  0.00    +0.000 C 
ATOM      2  O   UNL     1       4.989   5.392  19.552  0.00  0.00    +0.000 OA
ENDROOT
BRANCH   1   3
ATOM      3  C   UNL     1       2.973   4.415  18.811  0.00  0.00    +0.000 A 
ATOM      4  C   UNL     1       3.033   3.282  17.965  0.00  0.00    +0.000 A 
ATOM      5  C   UNL     1       2.049   2.296  17.998  0.00  0.00    +0.000 A 
ATOM      6  C   UNL     1       0.980   2.411  18.876  0.00  0.00    +0.000 A 
ATOM      7  C   UNL     1       0.895   3.504  19.734  0.00  0.00    +0.000 A 
ATOM      8  C   UNL     1       1.885   4.510  19.725  0.00  0.00    +0.000 A 
ATOM      9  C   UNL     1       1.719   5.667  20.679  0.00  0.00    +0.000 C 
ENDBRANCH   1   3
BRANCH   1  11
ATOM     10  C   UNL     1       3.294   7.515  17.635  0.00  0.00    +0.000 C 
ATOM     11  C   UNL     1       4.154   6.481  17.652  0.00  0.00    +0.000 C 
BRANCH  11  12
ATOM     12  C   UNL     1       5.218   6.407  16.565  0.00  0.00    +0.000 C 
BRANCH  12  13
ATOM     13  N   UNL     1       5.649   5.020  16.292  0.00  0.00    +0.000 NA
ATOM     14  C   UNL     1       5.491   4.671  14.872  0.00  0.00    +0.000 C 
ATOM     15  C   UNL     1       7.060   4.845  16.684  0.00  0.00    +0.000 C 
ENDBRANCH  12  13
ENDBRANCH  11  12
ENDBRANCH   1  11
TORSDOF 4
ENDMDL
MODEL 3
REMARK VINA RESULT:      -6.0      2.106      2.390
REMARK  Name = 
REMARK  7 active torsions:
REMARK  status: ('A' for Active; 'I' for Inactive)
REMARK    1  A    between atoms: C_2  and  C_3
REMARK    2  A    between atoms: C_2  and  C_7
REMARK    3  A    between atoms: C_3  and  N_4
REMARK    4  A    between atoms: N_4  and  C_5
REMARK    5  A    between atoms: N_4  and  C_6
REMARK    6  A    between atoms: C_7  and  C_9
REMARK    7  A    between atoms: C_14  and  C_15
REMARK                            x       y       z     vdW  Elec       q    Type
REMARK                         _______ _______ _______ _____ _____    ______ ____
ROOT
ATOM      1  C   UNL     1       2.973   6.163  19.004  0.00  0.00    +0.000 C 
ATOM      2  O   UNL     1       2.418   7.239  19.172  0.00  0.00    +0.000 OA
ENDROOT
BRANCH   1   3
ATOM      3  C   UNL     1       2.369   4.921  19.613  0.00  0.00    +0.000 A 
ATOM      4  C   UNL     1       2.535   4.701  21.000  0.00  0.00    +0.000 A 
ATOM      5  C   UNL     1       1.990   3.585  21.630  0.00  0.00    +0.000 A 
ATOM      6  C   UNL     1       1.264   2.657  20.895  0.00  0.00    +0.000 A 
ATOM      7  C   UNL     1       1.067   2.848  19.530  0.00  0.00    +0.000 A 
ATOM      8  C   UNL     1       1.601   3.977  18.873  0.00  0.00    +0.000 A 
ATOM      9  C   UNL     1       1.351   4.109  17.390  0.00  0.00    +0.000 C 
ENDBRANCH   1   3
BRANCH   1  11
ATOM     10  C   UNL     1       4.461   6.987  17.195  0.00  0.00    +0.000 C 
ATOM     11  C   UNL     1       4.261   6.144  18.223  0.00  0.00    +0.000 C 
BRANCH  11  12
ATOM     12  C   UNL     1       5.380   5.181  18.597  0.00  0.00    +0.000 C 
BRANCH  12  13
ATOM     13  N   UNL     1       6.683   5.583  18.027  0.00  0.00    +0.000 NA
ATOM     14  C   UNL     1       7.672   5.868  19.078  0.00  0.00    +0.000 C 
ATOM     15  C   UNL     1       7.198   4.516  17.148  0.00  0.00    +0.000 C 
ENDBRANCH  12  13
ENDBRANCH  11  12
ENDBRANCH   1  11
TORSDOF 4
ENDMDL
MODEL 4
REMARK VINA RESULT:      -6.0      1.717      2.732
REMARK  Name = 
REMARK  7 active torsions:
REMARK  status: ('A' for Active; 'I' for Inactive)
REMARK    1  A    between atoms: C_2  and  C_3
REMARK    2  A    between atoms: C_2  and  C_7
REMARK    3  A    between atoms: C_3  and  N_4
REMARK    4  A    between atoms: N_4  and  C_5
REMARK    5  A    between atoms: N_4  and  C_6
REMARK    6  A    between atoms: C_7  and  C_9
REMARK    7  A    between atoms: C_14  and  C_15
REMARK                            x       y       z     vdW  Elec       q    Type
REMARK                         _______ _______ _______ _____ _____    ______ ____
ROOT
ATOM      1  C   UNL     1       5.766   4.924  18.720  0.00  0.00    +0.000 C 
ATOM      2  O   UNL     1       6.108   4.914  19.893  0.00  0.00    +0.000 OA
ENDROOT
BRANCH   1   3
ATOM      3  C   UNL     1       4.392   4.420  18.350  0.00  0.00    +0.000 A 
ATOM      4  C   UNL     1       4.196   3.024  18.234  0.00  0.00    +0.000 A 
ATOM      5  C   UNL     1       2.950   2.488  17.911  0.00  0.00    +0.000 A 
ATOM      6  C   UNL     1       1.866   3.330  17.698  0.00  0.00    +0.000 A 
ATOM      7  C   UNL     1       2.019   4.709  17.818  0.00  0.00    +0.000 A 
ATOM      8  C   UNL     1       3.268   5.273  18.154  0.00  0.00    +0.000 A 
ATOM      9  C   UNL     1       3.355   6.775  18.258  0.00  0.00    +0.000 C 
ENDBRANCH   1   3
BRANCH   1  11
ATOM     10  C   UNL     1       7.485   6.521  17.907  0.00  0.00    +0.000 C 
ATOM     11  C   UNL     1       6.758   5.409  17.697  0.00  0.00    +0.000 C 
BRANCH  11  12
ATOM     12  C   UNL     1       6.981   4.635  16.404  0.00  0.00    +0.000 C 
BRANCH  12  13
ATOM     13  N   UNL     1       6.731   5.459  15.203  0.00  0.00    +0.000 NA
ATOM     14  C   UNL     1       7.107   4.751  13.970  0.00  0.00    +0.000 C 
ATOM     15  C   UNL     1       5.306   5.833  15.136  0.00  0.00    +0.000 C 
ENDBRANCH  12  13
ENDBRANCH  11  12
ENDBRANCH   1  11
TORSDOF 4
ENDMDL
MODEL 5
REMARK VINA RESULT:      -6.0      0.769      1.958
REMARK  Name = 
REMARK  7 active torsions:
REMARK  status: ('A' for Active; 'I' for Inactive)
REMARK    1  A    between atoms: C_2  and  C_3
REMARK    2  A    between atoms: C_2  and  C_7
REMARK    3  A    between atoms: C_3  and  N_4
REMARK    4  A    between atoms: N_4  and  C_5
REMARK    5  A    between atoms: N_4  and  C_6
REMARK    6  A    between atoms: C_7  and  C_9
REMARK    7  A    between atoms: C_14  and  C_15
REMARK                            x       y       z     vdW  Elec       q    Type
REMARK                         _______ _______ _______ _____ _____    ______ ____
ROOT
ATOM      1  C   UNL     1       4.508   5.169  18.945  0.00  0.00    +0.000 C 
ATOM      2  O   UNL     1       5.475   5.356  19.668  0.00  0.00    +0.000 OA
ENDROOT
BRANCH   1   3
ATOM      3  C   UNL     1       3.291   4.477  19.507  0.00  0.00    +0.000 A 
ATOM      4  C   UNL     1       3.265   3.063  19.518  0.00  0.00    +0.000 A 
ATOM      5  C   UNL     1       2.180   2.359  20.038  0.00  0.00    +0.000 A 
ATOM      6  C   UNL     1       1.093   3.045  20.562  0.00  0.00    +0.000 A 
ATOM      7  C   UNL     1       1.091   4.437  20.583  0.00  0.00    +0.000 A 
ATOM      8  C   UNL     1       2.182   5.171  20.071  0.00  0.00    +0.000 A 
ATOM      9  C   UNL     1       2.101   6.677  20.122  0.00  0.00    +0.000 C 
ENDBRANCH   1   3
BRANCH   1  11
ATOM     10  C   UNL     1       4.440   6.903  17.168  0.00  0.00    +0.000 C 
ATOM     11  C   UNL     1       4.602   5.612  17.508  0.00  0.00    +0.000 C 
BRANCH  11  12
ATOM     12  C   UNL     1       4.907   4.606  16.405  0.00  0.00    +0.000 C 
BRANCH  12  13
ATOM     13  N   UNL     1       6.215   4.854  15.763  0.00  0.00    +0.000 NA
ATOM     14  C   UNL     1       7.332   4.542  16.666  0.00  0.00    +0.000 C 
ATOM     15  C   UNL     1       6.335   4.042  14.538  0.00  0.00    +0.000 C 
ENDBRANCH  12  13
ENDBRANCH  11  12
ENDBRANCH   1  11
TORSDOF 4
ENDMDL
MODEL 6
REMARK VINA RESULT:      -6.0      1.028      1.426
REMARK  Name = 
REMARK  7 active torsions:
REMARK  status: ('A' for Active; 'I' for Inactive)
REMARK    1  A    between atoms: C_2  and  C_3
REMARK    2  A    between atoms: C_2  and  C_7
REMARK    3  A    between atoms: C_3  and  N_4
REMARK    4  A    between atoms: N_4  and  C_5
REMARK    5  A    between atoms: N_4  and  C_6
REMARK    6  A    between atoms: C_7  and  C_9
REMARK    7  A    between atoms: C_14  and  C_15
REMARK                            x       y       z     vdW  Elec       q    Type
REMARK                         _______ _______ _______ _____ _____    ______ ____
ROOT
ATOM      1  C   UNL     1       4.373   5.406  19.017  0.00  0.00    +0.000 C 
ATOM      2  O   UNL     1       5.371   5.282  19.710  0.00  0.00    +0.000 OA
ENDROOT
BRANCH   1   3
ATOM      3  C   UNL     1       3.157   4.565  19.320  0.00  0.00    +0.000 A 
ATOM      4  C   UNL     1       2.232   5.038  20.280  0.00  0.00    +0.000 A 
ATOM      5  C   UNL     1       1.080   4.321  20.595  0.00  0.00    +0.000 A 
ATOM      6  C   UNL     1       0.818   3.114  19.962  0.00  0.00    +0.000 A 
ATOM      7  C   UNL     1       1.698   2.624  19.001  0.00  0.00    +0.000 A 
ATOM      8  C   UNL     1       2.866   3.338  18.657  0.00  0.00    +0.000 A 
ATOM      9  C   UNL     1       3.774   2.738  17.612  0.00  0.00    +0.000 C 
ENDBRANCH   1   3
BRANCH   1  11
ATOM     10  C   UNL     1       3.434   7.257  17.653  0.00  0.00    +0.000 C 
ATOM     11  C   UNL     1       4.427   6.375  17.865  0.00  0.00    +0.000 C 
BRANCH  11  12
ATOM     12  C   UNL     1       5.624   6.395  16.924  0.00  0.00    +0.000 C 
BRANCH  12  13
ATOM     13  N   UNL     1       5.903   5.066  16.338  0.00  0.00    +0.000 NA
ATOM     14  C   UNL     1       5.808   5.088  14.871  0.00  0.00    +0.000 C 
ATOM     15  C   UNL     1       7.249   4.614  16.734  0.00  0.00    +0.000 C 
ENDBRANCH  12  13
ENDBRANCH  11  12
ENDBRANCH   1  11
TORSDOF 4
ENDMDL
MODEL 7
REMARK VINA RESULT:      -6.0      2.513      5.346
REMARK  Name = 
REMARK  7 active torsions:
REMARK  status: ('A' for Active; 'I' for Inactive)
REMARK    1  A    between atoms: C_2  and  C_3
REMARK    2  A    between atoms: C_2  and  C_7
REMARK    3  A    between atoms: C_3  and  N_4
REMARK    4  A    between atoms: N_4  and  C_5
REMARK    5  A    between atoms: N_4  and  C_6
REMARK    6  A    between atoms: C_7  and  C_9
REMARK    7  A    between atoms: C_14  and  C_15
REMARK                            x       y       z     vdW  Elec       q    Type
REMARK                         _______ _______ _______ _____ _____    ______ ____
ROOT
ATOM      1  C   UNL     1       4.065   4.668  17.577  0.00  0.00    +0.000 C 
ATOM      2  O   UNL     1       4.077   3.581  17.020  0.00  0.00    +0.000 OA
ENDROOT
BRANCH   1   3
ATOM      3  C   UNL     1       5.374   5.370  17.847  0.00  0.00    +0.000 A 
ATOM      4  C   UNL     1       6.046   5.099  19.061  0.00  0.00    +0.000 A 
ATOM      5  C   UNL     1       7.266   5.699  19.368  0.00  0.00    +0.000 A 
ATOM      6  C   UNL     1       7.849   6.585  18.471  0.00  0.00    +0.000 A 
ATOM      7  C   UNL     1       7.224   6.864  17.259  0.00  0.00    +0.000 A 
ATOM      8  C   UNL     1       5.993   6.260  16.923  0.00  0.00    +0.000 A 
ATOM      9  C   UNL     1       5.374   6.620  15.594  0.00  0.00    +0.000 C 
ENDBRANCH   1   3
BRANCH   1  11
ATOM     10  C   UNL     1       2.570   6.555  18.186  0.00  0.00    +0.000 C 
ATOM     11  C   UNL     1       2.735   5.234  18.001  0.00  0.00    +0.000 C 
BRANCH  11  12
ATOM     12  C   UNL     1       1.535   4.319  18.208  0.00  0.00    +0.000 C 
BRANCH  12  13
ATOM     13  N   UNL     1       1.731   3.376  19.329  0.00  0.00    +0.000 NA
ATOM     14  C   UNL     1       0.999   3.802  20.532  0.00  0.00    +0.000 C 
ATOM     15  C   UNL     1       1.282   2.027  18.936  0.00  0.00    +0.000 C 
ENDBRANCH  12  13
ENDBRANCH  11  12
ENDBRANCH   1  11
TORSDOF 4
ENDMDL
MODEL 8
REMARK VINA RESULT:      -5.9      2.050      2.897
REMARK  Name = 
REMARK  7 active torsions:
REMARK  status: ('A' for Active; 'I' for Inactive)
REMARK    1  A    between atoms: C_2  and  C_3
REMARK    2  A    between atoms: C_2  and  C_7
REMARK    3  A    between atoms: C_3  and  N_4
REMARK    4  A    between atoms: N_4  and  C_5
REMARK    5  A    between atoms: N_4  and  C_6
REMARK    6  A    between atoms: C_7  and  C_9
REMARK    7  A    between atoms: C_14  and  C_15
REMARK                            x       y       z     vdW  Elec       q    Type
REMARK                         _______ _______ _______ _____ _____    ______ ____
ROOT
ATOM      1  C   UNL     1       3.019   6.054  18.023  0.00  0.00    +0.000 C 
ATOM      2  O   UNL     1       2.364   7.084  17.971  0.00  0.00    +0.000 OA
ENDROOT
BRANCH   1   3
ATOM      3  C   UNL     1       2.357   4.786  18.505  0.00  0.00    +0.000 A 
ATOM      4  C   UNL     1       2.377   3.652  17.659  0.00  0.00    +0.000 A 
ATOM      5  C   UNL     1       1.800   2.444  18.047  0.00  0.00    +0.000 A 
ATOM      6  C   UNL     1       1.190   2.334  19.289  0.00  0.00    +0.000 A 
ATOM      7  C   UNL     1       1.164   3.424  20.154  0.00  0.00    +0.000 A 
ATOM      8  C   UNL     1       1.751   4.654  19.787  0.00  0.00    +0.000 A 
ATOM      9  C   UNL     1       1.676   5.791  20.776  0.00  0.00    +0.000 C 
ENDBRANCH   1   3
BRANCH   1  11
ATOM     10  C   UNL     1       4.872   6.808  16.552  0.00  0.00    +0.000 C 
ATOM     11  C   UNL     1       4.473   6.118  17.635  0.00  0.00    +0.000 C 
BRANCH  11  12
ATOM     12  C   UNL     1       5.531   5.417  18.477  0.00  0.00    +0.000 C 
BRANCH  12  13
ATOM     13  N   UNL     1       6.902   5.681  17.992  0.00  0.00    +0.000 NA
ATOM     14  C   UNL     1       7.812   6.026  19.095  0.00  0.00    +0.000 C 
ATOM     15  C   UNL     1       7.421   4.497  17.282  0.00  0.00    +0.000 C 
ENDBRANCH  12  13
ENDBRANCH  11  12
ENDBRANCH   1  11
TORSDOF 4
ENDMDL
MODEL 9
REMARK VINA RESULT:      -5.8      2.175      5.503
REMARK  Name = 
REMARK  7 active torsions:
REMARK  status: ('A' for Active; 'I' for Inactive)
REMARK    1  A    between atoms: C_2  and  C_3
REMARK    2  A    between atoms: C_2  and  C_7
REMARK    3  A    between atoms: C_3  and  N_4
REMARK    4  A    between atoms: N_4  and  C_5
REMARK    5  A    between atoms: N_4  and  C_6
REMARK    6  A    between atoms: C_7  and  C_9
REMARK    7  A    between atoms: C_14  and  C_15
REMARK                            x       y       z     vdW  Elec       q    Type
REMARK                         _______ _______ _______ _____ _____    ______ ____
ROOT
ATOM      1  C   UNL     1       4.780   4.228  18.888  0.00  0.00    +0.000 C 
ATOM      2  O   UNL     1       5.165   3.325  19.615  0.00  0.00    +0.000 OA
ENDROOT
BRANCH   1   3
ATOM      3  C   UNL     1       5.493   4.475  17.582  0.00  0.00    +0.000 A 
ATOM      4  C   UNL     1       4.916   3.973  16.392  0.00  0.00    +0.000 A 
ATOM      5  C   UNL     1       5.512   4.179  15.150  0.00  0.00    +0.000 A 
ATOM      6  C   UNL     1       6.699   4.893  15.059  0.00  0.00    +0.000 A 
ATOM      7  C   UNL     1       7.289   5.416  16.207  0.00  0.00    +0.000 A 
ATOM      8  C   UNL     1       6.698   5.228  17.474  0.00  0.00    +0.000 A 
ATOM      9  C   UNL     1       7.402   5.818  18.672  0.00  0.00    +0.000 C 
ENDBRANCH   1   3
BRANCH   1  11
ATOM     10  C   UNL     1       3.322   6.234  18.750  0.00  0.00    +0.000 C 
ATOM     11  C   UNL     1       3.626   5.074  19.359  0.00  0.00    +0.000 C 
BRANCH  11  12
ATOM     12  C   UNL     1       2.760   4.622  20.527  0.00  0.00    +0.000 C 
BRANCH  12  13
ATOM     13  N   UNL     1       2.154   3.293  20.299  0.00  0.00    +0.000 NA
ATOM     14  C   UNL     1       1.761   2.651  21.562  0.00  0.00    +0.000 C 
ATOM     15  C   UNL     1       0.972   3.421  19.427  0.00  0.00    +0.000 C 
ENDBRANCH  12  13
ENDBRANCH  11  12
ENDBRANCH   1  11
TORSDOF 4
ENDMDL
