MODEL 1
REMARK VINA RESULT:      -8.5      0.000      0.000
REMARK  Name = 
REMARK  7 active torsions:
REMARK  status: ('A' for Active; 'I' for Inactive)
REMARK    1  A    between atoms: C_2  and  O_3
REMARK    2  A    between atoms: C_2  and  C_4
REMARK    3  A    between atoms: C_4  and  C_5
REMARK    4  A    between atoms: C_5  and  C_6
REMARK    5  A    between atoms: C_6  and  C_7
REMARK    6  A    between atoms: C_9  and  C_10
REMARK    7  A    between atoms: C_18  and  C_19
REMARK                            x       y       z     vdW  Elec       q    Type
REMARK                         _______ _______ _______ _____ _____    ______ ____
ROOT
ATOM      1  C   UNL     1       4.658   6.460  16.886  0.00  0.00    +0.000 A 
ATOM      2  N   UNL     1       4.028   7.576  17.184  0.00  0.00    +0.000 NA
ATOM      3  C   UNL     1       3.001   7.165  18.007  0.00  0.00    +0.000 A 
ATOM      4  C   UNL     1       3.023   5.785  18.129  0.00  0.00    +0.000 A 
ATOM      5  O   UNL     1       4.112   5.332  17.429  0.00  0.00    +0.000 OA
ENDROOT
BRANCH   3   6
ATOM      6  C   UNL     1       2.063   8.097  18.606  0.00  0.00    +0.000 A 
ATOM      7  C   UNL     1       1.310   8.982  17.823  0.00  0.00    +0.000 A 
ATOM      8  C   UNL     1       0.434   9.893  18.418  0.00  0.00    +0.000 A 
ATOM      9  C   UNL     1       0.269   9.904  19.805  0.00  0.00    +0.000 A 
ATOM     10 CL   UNL     1      -0.843  11.045  20.470  0.00  0.00    +0.000 Cl
ATOM     11  C   UNL     1       0.991   9.002  20.594  0.00  0.00    +0.000 A 
ATOM     12 CL   UNL     1       0.827   8.947  22.314  0.00  0.00    +0.000 Cl
ATOM     13  C   UNL     1       1.884   8.106  19.995  0.00  0.00    +0.000 A 
ENDBRANCH   3   6
BRANCH   4  14
ATOM     14  C   UNL     1       2.198   4.759  18.744  0.00  0.00    +0.000 A 
ATOM     15  C   UNL     1       2.016   4.697  20.127  0.00  0.00    +0.000 A 
ATOM     16  C   UNL     1       1.192   3.714  20.676  0.00  0.00    +0.000 A 
ATOM     17  C   UNL     1       0.572   2.819  19.819  0.00  0.00    +0.000 A 
ATOM     18  N   UNL     1       0.727   2.839  18.480  0.00  0.00    +0.000 NA
ATOM     19  C   UNL     1       1.543   3.797  17.979  0.00  0.00    +0.000 A 
ENDBRANCH   4  14
BRANCH   1  20
ATOM     20  C   UNL     1       5.817   6.270  15.974  0.00  0.00    +0.000 C 
BRANCH  20  21
ATOM     21  C   UNL     1       6.902   5.396  16.605  0.00  0.00    +0.000 C 
BRANCH  21  22
ATOM     22  C   UNL     1       7.509   6.018  17.866  0.00  0.00    +0.000 C 
BRANCH  22  24
ATOM     23  O   UNL     1       7.613   5.462  20.229  0.00  0.00    +0.000 OA
ATOM     24  C   UNL     1       7.217   5.203  19.102  0.00  0.00    +0.000 C 
BRANCH  24  25
ATOM     25  O   UNL     1       6.451   4.122  18.832  0.00  0.00    +0.000 OA
ATOM     26  H   UNL     1       6.369   3.501  19.582  0.00  0.00    +0.000 HD
ENDBRANCH  24  25
ENDBRANCH  22  24
ENDBRANCH  21  22
ENDBRANCH  20  21
ENDBRANCH   1  20
TORSDOF 7
ENDMDL
MODEL 2
REMARK VINA RESULT:      -8.5      0.869      1.231
REMARK  Name = 
REMARK  7 active torsions:
REMARK  status: ('A' for Active; 'I' for Inactive)
REMARK    1  A    between atoms: C_2  and  O_3
REMARK    2  A    between atoms: C_2  and  C_4
REMARK    3  A    between atoms: C_4  and  C_5
REMARK    4  A    between atoms: C_5  and  C_6
REMARK    5  A    between atoms: C_6  and  C_7
REMARK    6  A    between atoms: C_9  and  C_10
REMARK    7  A    between atoms: C_18  and  C_19
REMARK                            x       y       z     vdW  Elec       q    Type
REMARK                         _______ _______ _______ _____ _____    ______ ____
ROOT
ATOM      1  C   UNL     1       4.745   6.129  17.055  0.00  0.00    +0.000 A 
ATOM      2  N   UNL     1       4.101   7.265  17.217  0.00  0.00    +0.000 NA
ATOM      3  C   UNL     1       3.128   6.964  18.146  0.00  0.00    +0.000 A 
ATOM      4  C   UNL     1       3.192   5.619  18.472  0.00  0.00    +0.000 A 
ATOM      5  O   UNL     1       4.257   5.086  17.789  0.00  0.00    +0.000 OA
ENDROOT
BRANCH   3   6
ATOM      6  C   UNL     1       2.197   7.959  18.647  0.00  0.00    +0.000 A 
ATOM      7  C   UNL     1       1.570   8.873  17.791  0.00  0.00    +0.000 A 
ATOM      8  C   UNL     1       0.699   9.842  18.295  0.00  0.00    +0.000 A 
ATOM      9  C   UNL     1       0.413   9.885  19.661  0.00  0.00    +0.000 A 
ATOM     10 CL   UNL     1      -0.685  11.099  20.211  0.00  0.00    +0.000 Cl
ATOM     11  C   UNL     1       1.007   8.955  20.522  0.00  0.00    +0.000 A 
ATOM     12 CL   UNL     1       0.687   8.938  22.221  0.00  0.00    +0.000 Cl
ATOM     13  C   UNL     1       1.895   8.000  20.015  0.00  0.00    +0.000 A 
ENDBRANCH   3   6
BRANCH   4  14
ATOM     14  C   UNL     1       2.427   4.683  19.277  0.00  0.00    +0.000 A 
ATOM     15  C   UNL     1       1.439   3.871  18.716  0.00  0.00    +0.000 A 
ATOM     16  C   UNL     1       0.747   2.963  19.519  0.00  0.00    +0.000 A 
ATOM     17  C   UNL     1       1.068   2.895  20.865  0.00  0.00    +0.000 A 
ATOM     18  N   UNL     1       2.009   3.665  21.447  0.00  0.00    +0.000 NA
ATOM     19  C   UNL     1       2.653   4.546  20.645  0.00  0.00    +0.000 A 
ENDBRANCH   4  14
BRANCH   1  20
ATOM     20  C   UNL     1       5.861   5.826  16.121  0.00  0.00    +0.000 C 
BRANCH  20  21
ATOM     21  C   UNL     1       7.110   5.348  16.863  0.00  0.00    +0.000 C 
BRANCH  21  22
ATOM     22  C   UNL     1       7.506   6.271  18.019  0.00  0.00    +0.000 C 
BRANCH  22  24
ATOM     23  O   UNL     1       6.416   5.196  19.907  0.00  0.00    +0.000 OA
ATOM     24  C   UNL     1       7.440   5.572  19.355  0.00  0.00    +0.000 C 
BRANCH  24  25
ATOM     25  O   UNL     1       8.665   5.399  19.902  0.00  0.00    +0.000 OA
ATOM     26  H   UNL     1       8.987   6.176  20.400  0.00  0.00    +0.000 HD
ENDBRANCH  24  25
ENDBRANCH  22  24
ENDBRANCH  21  22
ENDBRANCH  20  21
ENDBRANCH   1  20
TORSDOF 7
ENDMDL
MODEL 3
REMARK VINA RESULT:      -8.4      2.236      4.744
REMARK  Name = 
REMARK  7 active torsions:
REMARK  status: ('A' for Active; 'I' for Inactive)
REMARK    1  A    between atoms: C_2  and  O_3
REMARK    2  A    between atoms: C_2  and  C_4
REMARK    3  A    between atoms: C_4  and  C_5
REMARK    4  A    between atoms: C_5  and  C_6
REMARK    5  A    between atoms: C_6  and  C_7
REMARK    6  A    between atoms: C_9  and  C_10
REMARK    7  A    between atoms: C_18  and  C_19
REMARK                            x       y       z     vdW  Elec       q    Type
REMARK                         _______ _______ _______ _____ _____    ______ ____
ROOT
ATOM      1  C   UNL     1       2.766   3.758  17.831  0.00  0.00    +0.000 A 
ATOM      2  N   UNL     1       1.986   4.765  18.160  0.00  0.00    +0.000 NA
ATOM      3  C   UNL     1       2.850   5.834  18.257  0.00  0.00    +0.000 A 
ATOM      4  C   UNL     1       4.149   5.408  18.031  0.00  0.00    +0.000 A 
ATOM      5  O   UNL     1       4.091   4.071  17.727  0.00  0.00    +0.000 OA
ENDROOT
BRANCH   3   6
ATOM      6  C   UNL     1       2.396   7.177  18.571  0.00  0.00    +0.000 A 
ATOM      7  C   UNL     1       2.387   8.192  17.606  0.00  0.00    +0.000 A 
ATOM      8  C   UNL     1       1.974   9.486  17.933  0.00  0.00    +0.000 A 
ATOM      9  C   UNL     1       1.526   9.772  19.224  0.00  0.00    +0.000 A 
ATOM     10 CL   UNL     1       1.015  11.388  19.554  0.00  0.00    +0.000 Cl
ATOM     11  C   UNL     1       1.498   8.759  20.188  0.00  0.00    +0.000 A 
ATOM     12 CL   UNL     1       0.940   9.036  21.801  0.00  0.00    +0.000 Cl
ATOM     13  C   UNL     1       1.933   7.469  19.861  0.00  0.00    +0.000 A 
ENDBRANCH   3   6
BRANCH   4  14
ATOM     14  C   UNL     1       5.481   5.986  18.079  0.00  0.00    +0.000 A 
ATOM     15  C   UNL     1       5.869   7.006  17.209  0.00  0.00    +0.000 A 
ATOM     16  C   UNL     1       7.149   7.554  17.308  0.00  0.00    +0.000 A 
ATOM     17  C   UNL     1       8.004   7.063  18.280  0.00  0.00    +0.000 A 
ATOM     18  N   UNL     1       7.672   6.075  19.135  0.00  0.00    +0.000 NA
ATOM     19  C   UNL     1       6.428   5.554  19.005  0.00  0.00    +0.000 A 
ENDBRANCH   4  14
BRANCH   1  20
ATOM     20  C   UNL     1       2.400   2.328  17.651  0.00  0.00    +0.000 C 
BRANCH  20  21
ATOM     21  C   UNL     1       1.815   1.725  18.930  0.00  0.00    +0.000 C 
BRANCH  21  22
ATOM     22  C   UNL     1       2.453   2.291  20.201  0.00  0.00    +0.000 C 
BRANCH  22  24
ATOM     23  O   UNL     1       1.233   2.395  22.300  0.00  0.00    +0.000 OA
ATOM     24  C   UNL     1       1.423   2.819  21.169  0.00  0.00    +0.000 C 
BRANCH  24  25
ATOM     25  O   UNL     1       0.705   3.839  20.646  0.00  0.00    +0.000 OA
ATOM     26  H   UNL     1       1.068   4.185  19.807  0.00  0.00    +0.000 HD
ENDBRANCH  24  25
ENDBRANCH  22  24
ENDBRANCH  21  22
ENDBRANCH  20  21
ENDBRANCH   1  20
TORSDOF 7
ENDMDL
MODEL 4
REMARK VINA RESULT:      -8.3      2.317      3.106
REMARK  Name = 
REMARK  7 active torsions:
REMARK  status: ('A' for Active; 'I' for Inactive)
REMARK    1  A    between atoms: C_2  and  O_3
REMARK    2  A    between atoms: C_2  and  C_4
REMARK    3  A    between atoms: C_4  and  C_5
REMARK    4  A    between atoms: C_5  and  C_6
REMARK    5  A    between atoms: C_6  and  C_7
REMARK    6  A    between atoms: C_9  and  C_10
REMARK    7  A    between atoms: C_18  and  C_19
REMARK                            x       y       z     vdW  Elec       q    Type
REMARK                         _______ _______ _______ _____ _____    ______ ____
ROOT
ATOM      1  C   UNL     1       4.856   5.809  16.605  0.00  0.00    +0.000 A 
ATOM      2  N   UNL     1       4.273   6.966  16.836  0.00  0.00    +0.000 NA
ATOM      3  C   UNL     1       3.338   6.677  17.807  0.00  0.00    +0.000 A 
ATOM      4  C   UNL     1       3.360   5.320  18.088  0.00  0.00    +0.000 A 
ATOM      5  O   UNL     1       4.362   4.765  17.332  0.00  0.00    +0.000 OA
ENDROOT
BRANCH   3   6
ATOM      6  C   UNL     1       2.481   7.693  18.390  0.00  0.00    +0.000 A 
ATOM      7  C   UNL     1       1.930   8.720  17.612  0.00  0.00    +0.000 A 
ATOM      8  C   UNL     1       1.131   9.707  18.195  0.00  0.00    +0.000 A 
ATOM      9  C   UNL     1       0.838   9.656  19.559  0.00  0.00    +0.000 A 
ATOM     10 CL   UNL     1      -0.169  10.899  20.209  0.00  0.00    +0.000 Cl
ATOM     11  C   UNL     1       1.355   8.616  20.340  0.00  0.00    +0.000 A 
ATOM     12 CL   UNL     1       1.022   8.480  22.031  0.00  0.00    +0.000 Cl
ATOM     13  C   UNL     1       2.173   7.642  19.756  0.00  0.00    +0.000 A 
ENDBRANCH   3   6
BRANCH   4  14
ATOM     14  C   UNL     1       2.598   4.391  18.904  0.00  0.00    +0.000 A 
ATOM     15  C   UNL     1       1.442   3.771  18.424  0.00  0.00    +0.000 A 
ATOM     16  C   UNL     1       0.756   2.862  19.230  0.00  0.00    +0.000 A 
ATOM     17  C   UNL     1       1.250   2.599  20.497  0.00  0.00    +0.000 A 
ATOM     18  N   UNL     1       2.357   3.181  21.002  0.00  0.00    +0.000 NA
ATOM     19  C   UNL     1       2.993   4.069  20.201  0.00  0.00    +0.000 A 
ENDBRANCH   4  14
BRANCH   1  20
ATOM     20  C   UNL     1       5.906   5.490  15.602  0.00  0.00    +0.000 C 
BRANCH  20  21
ATOM     21  C   UNL     1       5.554   4.245  14.785  0.00  0.00    +0.000 C 
BRANCH  21  22
ATOM     22  C   UNL     1       6.444   4.070  13.552  0.00  0.00    +0.000 C 
BRANCH  22  24
ATOM     23  O   UNL     1       4.630   3.524  12.030  0.00  0.00    +0.000 OA
ATOM     24  C   UNL     1       5.754   3.296  12.456  0.00  0.00    +0.000 C 
BRANCH  24  25
ATOM     25  O   UNL     1       6.523   2.292  11.977  0.00  0.00    +0.000 OA
ATOM     26  H   UNL     1       6.043   1.676  11.389  0.00  0.00    +0.000 HD
ENDBRANCH  24  25
ENDBRANCH  22  24
ENDBRANCH  21  22
ENDBRANCH  20  21
ENDBRANCH   1  20
TORSDOF 7
ENDMDL
MODEL 5
REMARK VINA RESULT:      -8.3      0.986      1.716
REMARK  Name = 
REMARK  7 active torsions:
REMARK  status: ('A' for Active; 'I' for Inactive)
REMARK    1  A    between atoms: C_2  and  O_3
REMARK    2  A    between atoms: C_2  and  C_4
REMARK    3  A    between atoms: C_4  and  C_5
REMARK    4  A    between atoms: C_5  and  C_6
REMARK    5  A    between atoms: C_6  and  C_7
REMARK    6  A    between atoms: C_9  and  C_10
REMARK    7  A    between atoms: C_18  and  C_19
REMARK                            x       y       z     vdW  Elec       q    Type
REMARK                         _______ _______ _______ _____ _____    ______ ____
ROOT
ATOM      1  C   UNL     1       4.623   6.307  16.902  0.00  0.00    +0.000 A 
ATOM      2  N   UNL     1       4.010   7.371  17.374  0.00  0.00    +0.000 NA
ATOM      3  C   UNL     1       3.117   6.857  18.291  0.00  0.00    +0.000 A 
ATOM      4  C   UNL     1       3.193   5.474  18.294  0.00  0.00    +0.000 A 
ATOM      5  O   UNL     1       4.188   5.120  17.417  0.00  0.00    +0.000 OA
ENDROOT
BRANCH   3   6
ATOM      6  C   UNL     1       2.245   7.702  19.086  0.00  0.00    +0.000 A 
ATOM      7  C   UNL     1       1.912   7.374  20.407  0.00  0.00    +0.000 A 
ATOM      8  C   UNL     1       1.048   8.184  21.148  0.00  0.00    +0.000 A 
ATOM      9  C   UNL     1       0.535   9.356  20.590  0.00  0.00    +0.000 A 
ATOM     10 CL   UNL     1      -0.514  10.317  21.568  0.00  0.00    +0.000 Cl
ATOM     11  C   UNL     1       0.888   9.713  19.283  0.00  0.00    +0.000 A 
ATOM     12 CL   UNL     1       0.305  11.157  18.533  0.00  0.00    +0.000 Cl
ATOM     13  C   UNL     1       1.737   8.887  18.537  0.00  0.00    +0.000 A 
ENDBRANCH   3   6
BRANCH   4  14
ATOM     14  C   UNL     1       2.489   4.371  18.926  0.00  0.00    +0.000 A 
ATOM     15  C   UNL     1       1.362   3.790  18.343  0.00  0.00    +0.000 A 
ATOM     16  C   UNL     1       0.733   2.714  18.969  0.00  0.00    +0.000 A 
ATOM     17  C   UNL     1       1.254   2.249  20.165  0.00  0.00    +0.000 A 
ATOM     18  N   UNL     1       2.336   2.785  20.766  0.00  0.00    +0.000 NA
ATOM     19  C   UNL     1       2.916   3.837  20.141  0.00  0.00    +0.000 A 
ENDBRANCH   4  14
BRANCH   1  20
ATOM     20  C   UNL     1       5.651   6.235  15.830  0.00  0.00    +0.000 C 
BRANCH  20  21
ATOM     21  C   UNL     1       6.997   5.744  16.364  0.00  0.00    +0.000 C 
BRANCH  21  22
ATOM     22  C   UNL     1       7.360   6.357  17.720  0.00  0.00    +0.000 C 
BRANCH  22  24
ATOM     23  O   UNL     1       7.614   5.556  20.000  0.00  0.00    +0.000 OA
ATOM     24  C   UNL     1       7.311   5.341  18.835  0.00  0.00    +0.000 C 
BRANCH  24  25
ATOM     25  O   UNL     1       6.887   4.131  18.407  0.00  0.00    +0.000 OA
ATOM     26  H   UNL     1       5.918   4.068  18.302  0.00  0.00    +0.000 HD
ENDBRANCH  24  25
ENDBRANCH  22  24
ENDBRANCH  21  22
ENDBRANCH  20  21
ENDBRANCH   1  20
TORSDOF 7
ENDMDL
MODEL 6
REMARK VINA RESULT:      -8.2      0.769      1.454
REMARK  Name = 
REMARK  7 active torsions:
REMARK  status: ('A' for Active; 'I' for Inactive)
REMARK    1  A    between atoms: C_2  and  O_3
REMARK    2  A    between atoms: C_2  and  C_4
REMARK    3  A    between atoms: C_4  and  C_5
REMARK    4  A    between atoms: C_5  and  C_6
REMARK    5  A    between atoms: C_6  and  C_7
REMARK    6  A    between atoms: C_9  and  C_10
REMARK    7  A    between atoms: C_18  and  C_19
REMARK                            x       y       z     vdW  Elec       q    Type
REMARK                         _______ _______ _______ _____ _____    ______ ____
ROOT
ATOM      1  C   UNL     1       4.389   6.481  17.028  0.00  0.00    +0.000 A 
ATOM      2  N   UNL     1       3.781   7.562  17.468  0.00  0.00    +0.000 NA
ATOM      3  C   UNL     1       2.914   7.085  18.427  0.00  0.00    +0.000 A 
ATOM      4  C   UNL     1       2.997   5.703  18.488  0.00  0.00    +0.000 A 
ATOM      5  O   UNL     1       3.973   5.316  17.605  0.00  0.00    +0.000 OA
ENDROOT
BRANCH   3   6
ATOM      6  C   UNL     1       2.056   7.960  19.206  0.00  0.00    +0.000 A 
ATOM      7  C   UNL     1       1.787   7.709  20.557  0.00  0.00    +0.000 A 
ATOM      8  C   UNL     1       0.936   8.545  21.284  0.00  0.00    +0.000 A 
ATOM      9  C   UNL     1       0.372   9.670  20.677  0.00  0.00    +0.000 A 
ATOM     10 CL   UNL     1      -0.657  10.668  21.639  0.00  0.00    +0.000 Cl
ATOM     11  C   UNL     1       0.661   9.950  19.337  0.00  0.00    +0.000 A 
ATOM     12 CL   UNL     1       0.012  11.331  18.524  0.00  0.00    +0.000 Cl
ATOM     13  C   UNL     1       1.497   9.097  18.606  0.00  0.00    +0.000 A 
ENDBRANCH   3   6
BRANCH   4  14
ATOM     14  C   UNL     1       2.314   4.627  19.185  0.00  0.00    +0.000 A 
ATOM     15  C   UNL     1       2.493   4.409  20.552  0.00  0.00    +0.000 A 
ATOM     16  C   UNL     1       1.795   3.382  21.189  0.00  0.00    +0.000 A 
ATOM     17  C   UNL     1       0.935   2.602  20.434  0.00  0.00    +0.000 A 
ATOM     18  N   UNL     1       0.739   2.773  19.111  0.00  0.00    +0.000 NA
ATOM     19  C   UNL     1       1.441   3.769  18.519  0.00  0.00    +0.000 A 
ENDBRANCH   4  14
BRANCH   1  20
ATOM     20  C   UNL     1       5.392   6.367  15.936  0.00  0.00    +0.000 C 
BRANCH  20  21
ATOM     21  C   UNL     1       6.664   5.659  16.403  0.00  0.00    +0.000 C 
BRANCH  21  22
ATOM     22  C   UNL     1       7.240   6.255  17.690  0.00  0.00    +0.000 C 
BRANCH  22  24
ATOM     23  O   UNL     1       7.516   5.534  19.994  0.00  0.00    +0.000 OA
ATOM     24  C   UNL     1       7.149   5.296  18.853  0.00  0.00    +0.000 C 
BRANCH  24  25
ATOM     25  O   UNL     1       6.607   4.110  18.495  0.00  0.00    +0.000 OA
ATOM     26  H   UNL     1       5.845   4.193  17.889  0.00  0.00    +0.000 HD
ENDBRANCH  24  25
ENDBRANCH  22  24
ENDBRANCH  21  22
ENDBRANCH  20  21
ENDBRANCH   1  20
TORSDOF 7
ENDMDL
MODEL 7
REMARK VINA RESULT:      -8.2      1.519      1.792
REMARK  Name = 
REMARK  7 active torsions:
REMARK  status: ('A' for Active; 'I' for Inactive)
REMARK    1  A    between atoms: C_2  and  O_3
REMARK    2  A    between atoms: C_2  and  C_4
REMARK    3  A    between atoms: C_4  and  C_5
REMARK    4  A    between atoms: C_5  and  C_6
REMARK    5  A    between atoms: C_6  and  C_7
REMARK    6  A    between atoms: C_9  and  C_10
REMARK    7  A    between atoms: C_18  and  C_19
REMARK                            x       y       z     vdW  Elec       q    Type
REMARK                         _______ _______ _______ _____ _____    ______ ____
ROOT
ATOM      1  C   UNL     1       4.776   4.964  16.782  0.00  0.00    +0.000 A 
ATOM      2  N   UNL     1       4.267   6.174  16.864  0.00  0.00    +0.000 NA
ATOM      3  C   UNL     1       3.407   6.098  17.939  0.00  0.00    +0.000 A 
ATOM      4  C   UNL     1       3.392   4.805  18.436  0.00  0.00    +0.000 A 
ATOM      5  O   UNL     1       4.301   4.079  17.707  0.00  0.00    +0.000 OA
ENDROOT
BRANCH   3   6
ATOM      6  C   UNL     1       2.647   7.241  18.411  0.00  0.00    +0.000 A 
ATOM      7  C   UNL     1       2.269   8.276  17.546  0.00  0.00    +0.000 A 
ATOM      8  C   UNL     1       1.563   9.384  18.023  0.00  0.00    +0.000 A 
ATOM      9  C   UNL     1       1.192   9.452  19.368  0.00  0.00    +0.000 A 
ATOM     10 CL   UNL     1       0.307  10.842  19.885  0.00  0.00    +0.000 Cl
ATOM     11  C   UNL     1       1.535   8.408  20.234  0.00  0.00    +0.000 A 
ATOM     12 CL   UNL     1       1.095   8.417  21.906  0.00  0.00    +0.000 Cl
ATOM     13  C   UNL     1       2.260   7.311  19.756  0.00  0.00    +0.000 A 
ENDBRANCH   3   6
BRANCH   4  14
ATOM     14  C   UNL     1       2.663   4.063  19.451  0.00  0.00    +0.000 A 
ATOM     15  C   UNL     1       1.277   3.907  19.389  0.00  0.00    +0.000 A 
ATOM     16  C   UNL     1       0.618   3.162  20.367  0.00  0.00    +0.000 A 
ATOM     17  C   UNL     1       1.370   2.593  21.382  0.00  0.00    +0.000 A 
ATOM     18  N   UNL     1       2.708   2.726  21.483  0.00  0.00    +0.000 NA
ATOM     19  C   UNL     1       3.317   3.466  20.526  0.00  0.00    +0.000 A 
ENDBRANCH   4  14
BRANCH   1  20
ATOM     20  C   UNL     1       5.722   4.428  15.768  0.00  0.00    +0.000 C 
BRANCH  20  21
ATOM     21  C   UNL     1       7.161   4.869  16.042  0.00  0.00    +0.000 C 
BRANCH  21  22
ATOM     22  C   UNL     1       7.439   5.100  17.530  0.00  0.00    +0.000 C 
BRANCH  22  24
ATOM     23  O   UNL     1       7.570   7.483  17.069  0.00  0.00    +0.000 OA
ATOM     24  C   UNL     1       7.749   6.546  17.834  0.00  0.00    +0.000 C 
BRANCH  24  25
ATOM     25  O   UNL     1       8.263   6.709  19.074  0.00  0.00    +0.000 OA
ATOM     26  H   UNL     1       9.229   6.853  19.084  0.00  0.00    +0.000 HD
ENDBRANCH  24  25
ENDBRANCH  22  24
ENDBRANCH  21  22
ENDBRANCH  20  21
ENDBRANCH   1  20
TORSDOF 7
ENDMDL
MODEL 8
REMARK VINA RESULT:      -8.1      2.066      4.567
REMARK  Name = 
REMARK  7 active torsions:
REMARK  status: ('A' for Active; 'I' for Inactive)
REMARK    1  A    between atoms: C_2  and  O_3
REMARK    2  A    between atoms: C_2  and  C_4
REMARK    3  A    between atoms: C_4  and  C_5
REMARK    4  A    between atoms: C_5  and  C_6
REMARK    5  A    between atoms: C_6  and  C_7
REMARK    6  A    between atoms: C_9  and  C_10
REMARK    7  A    between atoms: C_18  and  C_19
REMARK                            x       y       z     vdW  Elec       q    Type
REMARK                         _______ _______ _______ _____ _____    ______ ____
ROOT
ATOM      1  C   UNL     1       2.591   3.824  18.007  0.00  0.00    +0.000 A 
ATOM      2  N   UNL     1       1.838   4.854  18.330  0.00  0.00    +0.000 NA
ATOM      3  C   UNL     1       2.718   5.915  18.345  0.00  0.00    +0.000 A 
ATOM      4  C   UNL     1       4.000   5.463  18.078  0.00  0.00    +0.000 A 
ATOM      5  O   UNL     1       3.913   4.116  17.830  0.00  0.00    +0.000 OA
ENDROOT
BRANCH   3   6
ATOM      6  C   UNL     1       2.294   7.275  18.625  0.00  0.00    +0.000 A 
ATOM      7  C   UNL     1       2.268   8.255  17.624  0.00  0.00    +0.000 A 
ATOM      8  C   UNL     1       1.885   9.565  17.918  0.00  0.00    +0.000 A 
ATOM      9  C   UNL     1       1.484   9.905  19.212  0.00  0.00    +0.000 A 
ATOM     10 CL   UNL     1       1.008  11.540  19.499  0.00  0.00    +0.000 Cl
ATOM     11  C   UNL     1       1.473   8.927  20.212  0.00  0.00    +0.000 A 
ATOM     12 CL   UNL     1       0.974   9.271  21.831  0.00  0.00    +0.000 Cl
ATOM     13  C   UNL     1       1.878   7.620  19.918  0.00  0.00    +0.000 A 
ENDBRANCH   3   6
BRANCH   4  14
ATOM     14  C   UNL     1       5.340   6.025  18.042  0.00  0.00    +0.000 A 
ATOM     15  C   UNL     1       6.338   5.596  18.920  0.00  0.00    +0.000 A 
ATOM     16  C   UNL     1       7.620   6.140  18.832  0.00  0.00    +0.000 A 
ATOM     17  C   UNL     1       7.865   7.100  17.864  0.00  0.00    +0.000 A 
ATOM     18  N   UNL     1       6.929   7.547  17.003  0.00  0.00    +0.000 NA
ATOM     19  C   UNL     1       5.691   7.010  17.121  0.00  0.00    +0.000 A 
ENDBRANCH   4  14
BRANCH   1  20
ATOM     20  C   UNL     1       2.201   2.393  17.902  0.00  0.00    +0.000 C 
BRANCH  20  21
ATOM     21  C   UNL     1       2.066   1.738  19.277  0.00  0.00    +0.000 C 
BRANCH  21  22
ATOM     22  C   UNL     1       2.931   2.412  20.346  0.00  0.00    +0.000 C 
BRANCH  22  24
ATOM     23  O   UNL     1       1.414   2.420  22.244  0.00  0.00    +0.000 OA
ATOM     24  C   UNL     1       2.101   3.035  21.441  0.00  0.00    +0.000 C 
BRANCH  24  25
ATOM     25  O   UNL     1       2.191   4.384  21.447  0.00  0.00    +0.000 OA
ATOM     26  H   UNL     1       1.503   4.826  20.912  0.00  0.00    +0.000 HD
ENDBRANCH  24  25
ENDBRANCH  22  24
ENDBRANCH  21  22
ENDBRANCH  20  21
ENDBRANCH   1  20
TORSDOF 7
ENDMDL
MODEL 9
REMARK VINA RESULT:      -7.9      2.007      2.899
REMARK  Name = 
REMARK  7 active torsions:
REMARK  status: ('A' for Active; 'I' for Inactive)
REMARK    1  A    between atoms: C_2  and  O_3
REMARK    2  A    between atoms: C_2  and  C_4
REMARK    3  A    between atoms: C_4  and  C_5
REMARK    4  A    between atoms: C_5  and  C_6
REMARK    5  A    between atoms: C_6  and  C_7
REMARK    6  A    between atoms: C_9  and  C_10
REMARK    7  A    between atoms: C_18  and  C_19
REMARK                            x       y       z     vdW  Elec       q    Type
REMARK                         _______ _______ _______ _____ _____    ______ ____
ROOT
ATOM      1  C   UNL     1       4.149   6.616  17.327  0.00  0.00    +0.000 A 
ATOM      2  N   UNL     1       3.500   7.690  17.723  0.00  0.00    +0.000 NA
ATOM      3  C   UNL     1       2.703   7.233  18.751  0.00  0.00    +0.000 A 
ATOM      4  C   UNL     1       2.868   5.866  18.900  0.00  0.00    +0.000 A 
ATOM      5  O   UNL     1       3.825   5.472  17.999  0.00  0.00    +0.000 OA
ENDROOT
BRANCH   3   6
ATOM      6  C   UNL     1       1.831   8.112  19.510  0.00  0.00    +0.000 A 
ATOM      7  C   UNL     1       1.527   7.860  20.854  0.00  0.00    +0.000 A 
ATOM      8  C   UNL     1       0.662   8.700  21.560  0.00  0.00    +0.000 A 
ATOM      9  C   UNL     1       0.120   9.828  20.941  0.00  0.00    +0.000 A 
ATOM     10 CL   UNL     1      -0.927  10.830  21.878  0.00  0.00    +0.000 Cl
ATOM     11  C   UNL     1       0.443  10.109  19.609  0.00  0.00    +0.000 A 
ATOM     12 CL   UNL     1      -0.177  11.495  18.782  0.00  0.00    +0.000 Cl
ATOM     13  C   UNL     1       1.293   9.252  18.898  0.00  0.00    +0.000 A 
ENDBRANCH   3   6
BRANCH   4  14
ATOM     14  C   UNL     1       2.279   4.804  19.697  0.00  0.00    +0.000 A 
ATOM     15  C   UNL     1       1.305   3.950  19.175  0.00  0.00    +0.000 A 
ATOM     16  C   UNL     1       0.786   2.923  19.965  0.00  0.00    +0.000 A 
ATOM     17  C   UNL     1       1.261   2.781  21.259  0.00  0.00    +0.000 A 
ATOM     18  N   UNL     1       2.194   3.588  21.803  0.00  0.00    +0.000 NA
ATOM     19  C   UNL     1       2.668   4.583  21.016  0.00  0.00    +0.000 A 
ENDBRANCH   4  14
BRANCH   1  20
ATOM     20  C   UNL     1       5.109   6.482  16.199  0.00  0.00    +0.000 C 
BRANCH  20  21
ATOM     21  C   UNL     1       5.692   5.071  16.113  0.00  0.00    +0.000 C 
BRANCH  21  22
ATOM     22  C   UNL     1       5.345   4.362  14.801  0.00  0.00    +0.000 C 
BRANCH  22  24
ATOM     23  O   UNL     1       7.367   5.205  13.750  0.00  0.00    +0.000 OA
ATOM     24  C   UNL     1       6.508   4.339  13.840  0.00  0.00    +0.000 C 
BRANCH  24  25
ATOM     25  O   UNL     1       6.506   3.234  13.061  0.00  0.00    +0.000 OA
ATOM     26  H   UNL     1       7.399   2.942  12.790  0.00  0.00    +0.000 HD
ENDBRANCH  24  25
ENDBRANCH  22  24
ENDBRANCH  21  22
ENDBRANCH  20  21
ENDBRANCH   1  20
TORSDOF 7
ENDMDL
