MODEL 1
REMARK VINA RESULT:      -7.4      0.000      0.000
REMARK  Name = 
REMARK  5 active torsions:
REMARK  status: ('A' for Active; 'I' for Inactive)
REMARK    1  A    between atoms: C_1  and  C_2
REMARK    2  A    between atoms: C_8  and  C_9
REMARK    3  A    between atoms: C_9  and  N_10
REMARK    4  A    between atoms: C_11  and  C_13
REMARK    5  A    between atoms: N_18  and  C_19
REMARK                            x       y       z     vdW  Elec       q    Type
REMARK                         _______ _______ _______ _____ _____    ______ ____
ROOT
ATOM      1  N   UNL     1       2.804   6.453  18.451  0.00  0.00    +0.000 N 
ATOM      2  C   UNL     1       3.794   5.488  18.518  0.00  0.00    +0.000 C 
ATOM      3  O   UNL     1       4.094   4.910  19.554  0.00  0.00    +0.000 OA
ATOM      4  H   UNL     1       2.686   6.955  17.584  0.00  0.00    +0.000 HD
ENDROOT
BRANCH   2   5
ATOM      5  C   UNL     1       4.571   5.249  17.188  0.00  0.00    +0.000 C 
ATOM      6  C   UNL     1       4.475   3.806  16.694  0.00  0.00    +0.000 C 
ATOM      7  C   UNL     1       5.718   3.626  15.832  0.00  0.00    +0.000 C 
ATOM      8  C   UNL     1       6.709   4.562  16.469  0.00  0.00    +0.000 C 
ATOM      9  O   UNL     1       7.914   4.527  16.280  0.00  0.00    +0.000 OA
ATOM     10  N   UNL     1       6.008   5.465  17.263  0.00  0.00    +0.000 N 
BRANCH  10  11
ATOM     11  C   UNL     1       6.625   6.563  18.022  0.00  0.00    +0.000 C 
ATOM     12  C   UNL     1       7.908   6.254  18.843  0.00  0.00    +0.000 C 
ATOM     13  C   UNL     1       8.349   7.697  18.505  0.00  0.00    +0.000 C 
ATOM     14  C   UNL     1       7.525   7.536  17.209  0.00  0.00    +0.000 C 
ENDBRANCH  10  11
ENDBRANCH   2   5
BRANCH   1  15
ATOM     15  C   UNL     1       2.037   6.932  19.609  0.00  0.00    +0.000 C 
BRANCH  15  23
ATOM     16  C   UNL     1       0.801   8.571  21.941  0.00  0.00    +0.000 C 
ATOM     17  C   UNL     1       1.054   9.165  20.578  0.00  0.00    +0.000 A 
ATOM     18  C   UNL     1       0.629  10.487  20.303  0.00  0.00    +0.000 A 
ATOM     19 CL   UNL     1      -0.209  11.475  21.461  0.00  0.00    +0.000 Cl
ATOM     20  C   UNL     1       0.830  11.069  19.050  0.00  0.00    +0.000 A 
ATOM     21  C   UNL     1       1.454  10.345  18.044  0.00  0.00    +0.000 A 
ATOM     22  C   UNL     1       1.861   9.034  18.282  0.00  0.00    +0.000 A 
ATOM     23  C   UNL     1       1.674   8.413  19.532  0.00  0.00    +0.000 A 
ENDBRANCH  15  23
ENDBRANCH   1  15
TORSDOF 4
ENDMDL
MODEL 2
REMARK VINA RESULT:      -7.2      1.197      2.582
REMARK  Name = 
REMARK  5 active torsions:
REMARK  status: ('A' for Active; 'I' for Inactive)
REMARK    1  A    between atoms: C_1  and  C_2
REMARK    2  A    between atoms: C_8  and  C_9
REMARK    3  A    between atoms: C_9  and  N_10
REMARK    4  A    between atoms: C_11  and  C_13
REMARK    5  A    between atoms: N_18  and  C_19
REMARK                            x       y       z     vdW  Elec       q    Type
REMARK                         _______ _______ _______ _____ _____    ______ ____
ROOT
ATOM      1  N   UNL     1       3.790   6.060  19.408  0.00  0.00    +0.000 N 
ATOM      2  C   UNL     1       4.272   4.782  19.186  0.00  0.00    +0.000 C 
ATOM      3  O   UNL     1       3.593   3.776  19.338  0.00  0.00    +0.000 OA
ATOM      4  H   UNL     1       4.441   6.829  19.359  0.00  0.00    +0.000 HD
ENDROOT
BRANCH   2   5
ATOM      5  C   UNL     1       5.784   4.704  18.812  0.00  0.00    +0.000 C 
ATOM      6  C   UNL     1       6.652   5.649  19.641  0.00  0.00    +0.000 C 
ATOM      7  C   UNL     1       7.874   5.894  18.765  0.00  0.00    +0.000 C 
ATOM      8  C   UNL     1       7.323   5.761  17.371  0.00  0.00    +0.000 C 
ATOM      9  O   UNL     1       7.885   6.159  16.365  0.00  0.00    +0.000 OA
ATOM     10  N   UNL     1       6.105   5.093  17.447  0.00  0.00    +0.000 N 
BRANCH  10  11
ATOM     11  C   UNL     1       5.274   4.739  16.286  0.00  0.00    +0.000 C 
ATOM     12  C   UNL     1       5.318   5.671  15.044  0.00  0.00    +0.000 C 
ATOM     13  C   UNL     1       5.114   4.391  14.201  0.00  0.00    +0.000 C 
ATOM     14  C   UNL     1       5.851   3.650  15.338  0.00  0.00    +0.000 C 
ENDBRANCH  10  11
ENDBRANCH   2   5
BRANCH   1  15
ATOM     15  C   UNL     1       2.437   6.360  19.895  0.00  0.00    +0.000 C 
BRANCH  15  23
ATOM     16  C   UNL     1       0.867   8.222  21.824  0.00  0.00    +0.000 C 
ATOM     17  C   UNL     1       1.189   8.613  20.402  0.00  0.00    +0.000 A 
ATOM     18  C   UNL     1       0.680   9.826  19.880  0.00  0.00    +0.000 A 
ATOM     19 CL   UNL     1      -0.337  10.900  20.792  0.00  0.00    +0.000 Cl
ATOM     20  C   UNL     1       0.942  10.217  18.566  0.00  0.00    +0.000 A 
ATOM     21  C   UNL     1       1.710   9.407  17.744  0.00  0.00    +0.000 A 
ATOM     22  C   UNL     1       2.204   8.196  18.227  0.00  0.00    +0.000 A 
ATOM     23  C   UNL     1       1.960   7.767  19.545  0.00  0.00    +0.000 A 
ENDBRANCH  15  23
ENDBRANCH   1  15
TORSDOF 4
ENDMDL
MODEL 3
REMARK VINA RESULT:      -7.2      1.605      3.234
REMARK  Name = 
REMARK  5 active torsions:
REMARK  status: ('A' for Active; 'I' for Inactive)
REMARK    1  A    between atoms: C_1  and  C_2
REMARK    2  A    between atoms: C_8  and  C_9
REMARK    3  A    between atoms: C_9  and  N_10
REMARK    4  A    between atoms: C_11  and  C_13
REMARK    5  A    between atoms: N_18  and  C_19
REMARK                            x       y       z     vdW  Elec       q    Type
REMARK                         _______ _______ _______ _____ _____    ______ ____
ROOT
ATOM      1  N   UNL     1       3.925   5.547  19.443  0.00  0.00    +0.000 N 
ATOM      2  C   UNL     1       4.667   4.401  19.217  0.00  0.00    +0.000 C 
ATOM      3  O   UNL     1       4.232   3.274  19.412  0.00  0.00    +0.000 OA
ATOM      4  H   UNL     1       4.389   6.439  19.355  0.00  0.00    +0.000 HD
ENDROOT
BRANCH   2   5
ATOM      5  C   UNL     1       6.143   4.647  18.778  0.00  0.00    +0.000 C 
ATOM      6  C   UNL     1       6.844   5.714  19.618  0.00  0.00    +0.000 C 
ATOM      7  C   UNL     1       7.946   6.238  18.706  0.00  0.00    +0.000 C 
ATOM      8  C   UNL     1       7.363   6.055  17.331  0.00  0.00    +0.000 C 
ATOM      9  O   UNL     1       7.782   6.600  16.324  0.00  0.00    +0.000 OA
ATOM     10  N   UNL     1       6.310   5.150  17.422  0.00  0.00    +0.000 N 
BRANCH  10  11
ATOM     11  C   UNL     1       5.510   4.683  16.280  0.00  0.00    +0.000 C 
ATOM     12  C   UNL     1       5.337   5.641  15.068  0.00  0.00    +0.000 C 
ATOM     13  C   UNL     1       5.331   4.367  14.192  0.00  0.00    +0.000 C 
ATOM     14  C   UNL     1       6.233   3.741  15.277  0.00  0.00    +0.000 C 
ENDBRANCH  10  11
ENDBRANCH   2   5
BRANCH   1  15
ATOM     15  C   UNL     1       2.560   5.555  19.984  0.00  0.00    +0.000 C 
BRANCH  15  23
ATOM     16  C   UNL     1       2.818   7.653  17.708  0.00  0.00    +0.000 C 
ATOM     17  C   UNL     1       2.074   7.935  18.989  0.00  0.00    +0.000 A 
ATOM     18  C   UNL     1       1.551   9.230  19.222  0.00  0.00    +0.000 A 
ATOM     19 CL   UNL     1       1.746  10.547  18.106  0.00  0.00    +0.000 Cl
ATOM     20  C   UNL     1       0.869   9.536  20.401  0.00  0.00    +0.000 A 
ATOM     21  C   UNL     1       0.697   8.562  21.373  0.00  0.00    +0.000 A 
ATOM     22  C   UNL     1       1.222   7.285  21.177  0.00  0.00    +0.000 A 
ATOM     23  C   UNL     1       1.917   6.939  20.003  0.00  0.00    +0.000 A 
ENDBRANCH  15  23
ENDBRANCH   1  15
TORSDOF 4
ENDMDL
MODEL 4
REMARK VINA RESULT:      -7.0      2.464      4.004
REMARK  Name = 
REMARK  5 active torsions:
REMARK  status: ('A' for Active; 'I' for Inactive)
REMARK    1  A    between atoms: C_1  and  C_2
REMARK    2  A    between atoms: C_8  and  C_9
REMARK    3  A    between atoms: C_9  and  N_10
REMARK    4  A    between atoms: C_11  and  C_13
REMARK    5  A    between atoms: N_18  and  C_19
REMARK                            x       y       z     vdW  Elec       q    Type
REMARK                         _______ _______ _______ _____ _____    ______ ____
ROOT
ATOM      1  N   UNL     1       2.196   6.504  19.921  0.00  0.00    +0.000 N 
ATOM      2  C   UNL     1       2.160   5.512  18.956  0.00  0.00    +0.000 C 
ATOM      3  O   UNL     1       2.177   5.747  17.756  0.00  0.00    +0.000 OA
ATOM      4  H   UNL     1       2.075   6.235  20.886  0.00  0.00    +0.000 HD
ENDROOT
BRANCH   2   5
ATOM      5  C   UNL     1       2.003   4.062  19.508  0.00  0.00    +0.000 C 
ATOM      6  C   UNL     1       1.107   3.989  20.743  0.00  0.00    +0.000 C 
ATOM      7  C   UNL     1       1.565   2.725  21.460  0.00  0.00    +0.000 C 
ATOM      8  C   UNL     1       3.020   2.633  21.085  0.00  0.00    +0.000 C 
ATOM      9  O   UNL     1       3.840   1.940  21.663  0.00  0.00    +0.000 OA
ATOM     10  N   UNL     1       3.234   3.440  19.972  0.00  0.00    +0.000 N 
BRANCH  10  11
ATOM     11  C   UNL     1       4.526   3.586  19.284  0.00  0.00    +0.000 C 
ATOM     12  C   UNL     1       4.520   3.705  17.734  0.00  0.00    +0.000 C 
ATOM     13  C   UNL     1       5.743   4.636  17.902  0.00  0.00    +0.000 C 
ATOM     14  C   UNL     1       5.137   5.015  19.270  0.00  0.00    +0.000 C 
ENDBRANCH  10  11
ENDBRANCH   2   5
BRANCH   1  15
ATOM     15  C   UNL     1       2.208   7.943  19.627  0.00  0.00    +0.000 C 
BRANCH  15  23
ATOM     16  C   UNL     1       0.247  10.036  18.434  0.00  0.00    +0.000 C 
ATOM     17  C   UNL     1       0.324   9.748  19.913  0.00  0.00    +0.000 A 
ATOM     18  C   UNL     1      -0.447  10.519  20.816  0.00  0.00    +0.000 A 
ATOM     19 CL   UNL     1      -1.478  11.823  20.310  0.00  0.00    +0.000 Cl
ATOM     20  C   UNL     1      -0.393  10.295  22.192  0.00  0.00    +0.000 A 
ATOM     21  C   UNL     1       0.433   9.303  22.699  0.00  0.00    +0.000 A 
ATOM     22  C   UNL     1       1.219   8.544  21.833  0.00  0.00    +0.000 A 
ATOM     23  C   UNL     1       1.193   8.743  20.440  0.00  0.00    +0.000 A 
ENDBRANCH  15  23
ENDBRANCH   1  15
TORSDOF 4
ENDMDL
MODEL 5
REMARK VINA RESULT:      -7.0      2.380      4.314
REMARK  Name = 
REMARK  5 active torsions:
REMARK  status: ('A' for Active; 'I' for Inactive)
REMARK    1  A    between atoms: C_1  and  C_2
REMARK    2  A    between atoms: C_8  and  C_9
REMARK    3  A    between atoms: C_9  and  N_10
REMARK    4  A    between atoms: C_11  and  C_13
REMARK    5  A    between atoms: N_18  and  C_19
REMARK                            x       y       z     vdW  Elec       q    Type
REMARK                         _______ _______ _______ _____ _____    ______ ____
ROOT
ATOM      1  N   UNL     1       2.355   7.928  19.450  0.00  0.00    +0.000 N 
ATOM      2  C   UNL     1       2.716   6.814  18.710  0.00  0.00    +0.000 C 
ATOM      3  O   UNL     1       2.105   6.446  17.716  0.00  0.00    +0.000 OA
ATOM      4  H   UNL     1       2.847   8.106  20.312  0.00  0.00    +0.000 HD
ENDROOT
BRANCH   2   5
ATOM      5  C   UNL     1       3.912   5.999  19.289  0.00  0.00    +0.000 C 
ATOM      6  C   UNL     1       5.022   5.763  18.265  0.00  0.00    +0.000 C 
ATOM      7  C   UNL     1       5.727   4.509  18.766  0.00  0.00    +0.000 C 
ATOM      8  C   UNL     1       4.627   3.758  19.465  0.00  0.00    +0.000 C 
ATOM      9  O   UNL     1       4.676   2.577  19.764  0.00  0.00    +0.000 OA
ATOM     10  N   UNL     1       3.589   4.649  19.725  0.00  0.00    +0.000 N 
BRANCH  10  11
ATOM     11  C   UNL     1       2.347   4.300  20.431  0.00  0.00    +0.000 C 
ATOM     12  C   UNL     1       1.383   3.284  19.758  0.00  0.00    +0.000 C 
ATOM     13  C   UNL     1       1.042   2.813  21.191  0.00  0.00    +0.000 C 
ATOM     14  C   UNL     1       2.477   3.242  21.563  0.00  0.00    +0.000 C 
ENDBRANCH  10  11
ENDBRANCH   2   5
BRANCH   1  15
ATOM     15  C   UNL     1       1.182   8.765  19.165  0.00  0.00    +0.000 C 
BRANCH  15  23
ATOM     16  C   UNL     1      -0.939  11.034  19.179  0.00  0.00    +0.000 C 
ATOM     17  C   UNL     1      -0.437  10.386  20.445  0.00  0.00    +0.000 A 
ATOM     18  C   UNL     1      -0.862  10.884  21.700  0.00  0.00    +0.000 A 
ATOM     19 CL   UNL     1      -1.931  12.244  21.869  0.00  0.00    +0.000 Cl
ATOM     20  C   UNL     1      -0.410  10.323  22.896  0.00  0.00    +0.000 A 
ATOM     21  C   UNL     1       0.479   9.259  22.866  0.00  0.00    +0.000 A 
ATOM     22  C   UNL     1       0.931   8.765  21.644  0.00  0.00    +0.000 A 
ATOM     23  C   UNL     1       0.499   9.306  20.418  0.00  0.00    +0.000 A 
ENDBRANCH  15  23
ENDBRANCH   1  15
TORSDOF 4
ENDMDL
MODEL 6
REMARK VINA RESULT:      -7.0      2.043      3.557
REMARK  Name = 
REMARK  5 active torsions:
REMARK  status: ('A' for Active; 'I' for Inactive)
REMARK    1  A    between atoms: C_1  and  C_2
REMARK    2  A    between atoms: C_8  and  C_9
REMARK    3  A    between atoms: C_9  and  N_10
REMARK    4  A    between atoms: C_11  and  C_13
REMARK    5  A    between atoms: N_18  and  C_19
REMARK                            x       y       z     vdW  Elec       q    Type
REMARK                         _______ _______ _______ _____ _____    ______ ____
ROOT
ATOM      1  N   UNL     1       2.766   6.175  20.026  0.00  0.00    +0.000 N 
ATOM      2  C   UNL     1       3.116   4.870  20.327  0.00  0.00    +0.000 C 
ATOM      3  O   UNL     1       2.586   4.226  21.222  0.00  0.00    +0.000 OA
ATOM      4  H   UNL     1       3.319   6.671  19.342  0.00  0.00    +0.000 HD
ENDROOT
BRANCH   2   5
ATOM      5  C   UNL     1       4.307   4.300  19.498  0.00  0.00    +0.000 C 
ATOM      6  C   UNL     1       5.366   5.352  19.174  0.00  0.00    +0.000 C 
ATOM      7  C   UNL     1       6.048   4.819  17.920  0.00  0.00    +0.000 C 
ATOM      8  C   UNL     1       4.951   4.042  17.244  0.00  0.00    +0.000 C 
ATOM      9  O   UNL     1       4.972   3.689  16.077  0.00  0.00    +0.000 OA
ATOM     10  N   UNL     1       3.955   3.787  18.182  0.00  0.00    +0.000 N 
BRANCH  10  11
ATOM     11  C   UNL     1       2.731   3.017  17.911  0.00  0.00    +0.000 C 
ATOM     12  C   UNL     1       2.238   2.023  18.999  0.00  0.00    +0.000 C 
ATOM     13  C   UNL     1       0.807   2.381  18.533  0.00  0.00    +0.000 C 
ATOM     14  C   UNL     1       1.388   3.761  18.155  0.00  0.00    +0.000 C 
ENDBRANCH  10  11
ENDBRANCH   2   5
BRANCH   1  15
ATOM     15  C   UNL     1       1.765   6.955  20.766  0.00  0.00    +0.000 C 
BRANCH  15  23
ATOM     16  C   UNL     1      -0.128   9.092  21.990  0.00  0.00    +0.000 C 
ATOM     17  C   UNL     1       0.491   9.245  20.623  0.00  0.00    +0.000 A 
ATOM     18  C   UNL     1       0.130  10.348  19.812  0.00  0.00    +0.000 A 
ATOM     19 CL   UNL     1      -1.029  11.547  20.302  0.00  0.00    +0.000 Cl
ATOM     20  C   UNL     1       0.669  10.518  18.536  0.00  0.00    +0.000 A 
ATOM     21  C   UNL     1       1.572   9.592  18.038  0.00  0.00    +0.000 A 
ATOM     22  C   UNL     1       1.927   8.485  18.807  0.00  0.00    +0.000 A 
ATOM     23  C   UNL     1       1.404   8.278  20.097  0.00  0.00    +0.000 A 
ENDBRANCH  15  23
ENDBRANCH   1  15
TORSDOF 4
ENDMDL
MODEL 7
REMARK VINA RESULT:      -7.0      1.650      2.161
REMARK  Name = 
REMARK  5 active torsions:
REMARK  status: ('A' for Active; 'I' for Inactive)
REMARK    1  A    between atoms: C_1  and  C_2
REMARK    2  A    between atoms: C_8  and  C_9
REMARK    3  A    between atoms: C_9  and  N_10
REMARK    4  A    between atoms: C_11  and  C_13
REMARK    5  A    between atoms: N_18  and  C_19
REMARK                            x       y       z     vdW  Elec       q    Type
REMARK                         _______ _______ _______ _____ _____    ______ ____
ROOT
ATOM      1  N   UNL     1       1.863   7.196  19.697  0.00  0.00    +0.000 N 
ATOM      2  C   UNL     1       2.280   5.876  19.695  0.00  0.00    +0.000 C 
ATOM      3  O   UNL     1       2.567   5.264  20.714  0.00  0.00    +0.000 OA
ATOM      4  H   UNL     1       1.743   7.659  18.809  0.00  0.00    +0.000 HD
ENDROOT
BRANCH   2   5
ATOM      5  C   UNL     1       2.447   5.241  18.280  0.00  0.00    +0.000 C 
ATOM      6  C   UNL     1       1.897   3.819  18.197  0.00  0.00    +0.000 C 
ATOM      7  C   UNL     1       2.672   3.188  17.048  0.00  0.00    +0.000 C 
ATOM      8  C   UNL     1       3.990   3.912  17.091  0.00  0.00    +0.000 C 
ATOM      9  O   UNL     1       5.007   3.530  16.538  0.00  0.00    +0.000 OA
ATOM     10  N   UNL     1       3.822   5.077  17.834  0.00  0.00    +0.000 N 
BRANCH  10  11
ATOM     11  C   UNL     1       4.877   6.073  18.073  0.00  0.00    +0.000 C 
ATOM     12  C   UNL     1       6.289   5.562  18.473  0.00  0.00    +0.000 C 
ATOM     13  C   UNL     1       6.840   6.773  17.686  0.00  0.00    +0.000 C 
ATOM     14  C   UNL     1       5.577   6.646  16.808  0.00  0.00    +0.000 C 
ENDBRANCH  10  11
ENDBRANCH   2   5
BRANCH   1  15
ATOM     15  C   UNL     1       1.763   8.029  20.903  0.00  0.00    +0.000 C 
BRANCH  15  23
ATOM     16  C   UNL     1       0.194   9.450  23.177  0.00  0.00    +0.000 C 
ATOM     17  C   UNL     1       0.132   9.907  21.740  0.00  0.00    +0.000 A 
ATOM     18  C   UNL     1      -0.744  10.959  21.380  0.00  0.00    +0.000 A 
ATOM     19 CL   UNL     1      -1.794  11.752  22.515  0.00  0.00    +0.000 Cl
ATOM     20  C   UNL     1      -0.842  11.402  20.060  0.00  0.00    +0.000 A 
ATOM     21  C   UNL     1      -0.076  10.804  19.071  0.00  0.00    +0.000 A 
ATOM     22  C   UNL     1       0.778   9.751  19.396  0.00  0.00    +0.000 A 
ATOM     23  C   UNL     1       0.903   9.276  20.715  0.00  0.00    +0.000 A 
ENDBRANCH  15  23
ENDBRANCH   1  15
TORSDOF 4
ENDMDL
MODEL 8
REMARK VINA RESULT:      -6.9      4.072      7.639
REMARK  Name = 
REMARK  5 active torsions:
REMARK  status: ('A' for Active; 'I' for Inactive)
REMARK    1  A    between atoms: C_1  and  C_2
REMARK    2  A    between atoms: C_8  and  C_9
REMARK    3  A    between atoms: C_9  and  N_10
REMARK    4  A    between atoms: C_11  and  C_13
REMARK    5  A    between atoms: N_18  and  C_19
REMARK                            x       y       z     vdW  Elec       q    Type
REMARK                         _______ _______ _______ _____ _____    ______ ____
ROOT
ATOM      1  N   UNL     1       1.731   8.234  19.234  0.00  0.00    +0.000 N 
ATOM      2  C   UNL     1       1.424   9.274  18.373  0.00  0.00    +0.000 C 
ATOM      3  O   UNL     1       2.046   9.495  17.343  0.00  0.00    +0.000 OA
ATOM      4  H   UNL     1       1.236   8.181  20.112  0.00  0.00    +0.000 HD
ENDROOT
BRANCH   2   5
ATOM      5  C   UNL     1       0.276  10.212  18.857  0.00  0.00    +0.000 C 
ATOM      6  C   UNL     1      -0.989  10.090  18.009  0.00  0.00    +0.000 C 
ATOM      7  C   UNL     1      -1.695  11.426  18.201  0.00  0.00    +0.000 C 
ATOM      8  C   UNL     1      -0.555  12.379  18.438  0.00  0.00    +0.000 C 
ATOM      9  O   UNL     1      -0.639  13.593  18.355  0.00  0.00    +0.000 OA
ATOM     10  N   UNL     1       0.568  11.636  18.788  0.00  0.00    +0.000 N 
BRANCH  10  11
ATOM     11  C   UNL     1       1.876  12.213  19.134  0.00  0.00    +0.000 C 
ATOM     12  C   UNL     1       2.468  13.299  18.194  0.00  0.00    +0.000 C 
ATOM     13  C   UNL     1       3.078  13.926  19.469  0.00  0.00    +0.000 C 
ATOM     14  C   UNL     1       1.868  13.328  20.218  0.00  0.00    +0.000 C 
ENDBRANCH  10  11
ENDBRANCH   2   5
BRANCH   1  15
ATOM     15  C   UNL     1       2.856   7.309  19.045  0.00  0.00    +0.000 C 
BRANCH  15  23
ATOM     16  C   UNL     1       3.779   4.945  17.254  0.00  0.00    +0.000 C 
ATOM     17  C   UNL     1       2.863   4.756  18.438  0.00  0.00    +0.000 A 
ATOM     18  C   UNL     1       2.316   3.477  18.699  0.00  0.00    +0.000 A 
ATOM     19 CL   UNL     1       2.622   2.090  17.698  0.00  0.00    +0.000 Cl
ATOM     20  C   UNL     1       1.453   3.263  19.775  0.00  0.00    +0.000 A 
ATOM     21  C   UNL     1       1.113   4.318  20.609  0.00  0.00    +0.000 A 
ATOM     22  C   UNL     1       1.621   5.591  20.360  0.00  0.00    +0.000 A 
ATOM     23  C   UNL     1       2.493   5.846  19.284  0.00  0.00    +0.000 A 
ENDBRANCH  15  23
ENDBRANCH   1  15
TORSDOF 4
ENDMDL
MODEL 9
REMARK VINA RESULT:      -6.8      4.112      8.231
REMARK  Name = 
REMARK  5 active torsions:
REMARK  status: ('A' for Active; 'I' for Inactive)
REMARK    1  A    between atoms: C_1  and  C_2
REMARK    2  A    between atoms: C_8  and  C_9
REMARK    3  A    between atoms: C_9  and  N_10
REMARK    4  A    between atoms: C_11  and  C_13
REMARK    5  A    between atoms: N_18  and  C_19
REMARK                            x       y       z     vdW  Elec       q    Type
REMARK                         _______ _______ _______ _____ _____    ______ ____
ROOT
ATOM      1  N   UNL     1       1.114   9.126  18.174  0.00  0.00    +0.000 N 
ATOM      2  C   UNL     1       0.793  10.413  18.569  0.00  0.00    +0.000 C 
ATOM      3  O   UNL     1       1.621  11.308  18.669  0.00  0.00    +0.000 OA
ATOM      4  H   UNL     1       0.393   8.422  18.215  0.00  0.00    +0.000 HD
ENDROOT
BRANCH   2   5
ATOM      5  C   UNL     1      -0.699  10.626  18.970  0.00  0.00    +0.000 C 
ATOM      6  C   UNL     1      -1.396  11.693  18.127  0.00  0.00    +0.000 C 
ATOM      7  C   UNL     1      -2.533  12.183  19.015  0.00  0.00    +0.000 C 
ATOM      8  C   UNL     1      -1.986  11.987  20.403  0.00  0.00    +0.000 C 
ATOM      9  O   UNL     1      -2.443  12.508  21.406  0.00  0.00    +0.000 OA
ATOM     10  N   UNL     1      -0.913  11.104  20.328  0.00  0.00    +0.000 N 
BRANCH  10  11
ATOM     11  C   UNL     1      -0.137  10.633  21.485  0.00  0.00    +0.000 C 
ATOM     12  C   UNL     1      -0.783  10.747  22.894  0.00  0.00    +0.000 C 
ATOM     13  C   UNL     1      -0.022   9.446  23.237  0.00  0.00    +0.000 C 
ATOM     14  C   UNL     1      -0.147   9.099  21.738  0.00  0.00    +0.000 C 
ENDBRANCH  10  11
ENDBRANCH   2   5
BRANCH   1  15
ATOM     15  C   UNL     1       2.478   8.669  17.878  0.00  0.00    +0.000 C 
BRANCH  15  23
ATOM     16  C   UNL     1       4.574   6.671  16.753  0.00  0.00    +0.000 C 
ATOM     17  C   UNL     1       3.744   6.371  17.976  0.00  0.00    +0.000 A 
ATOM     18  C   UNL     1       3.839   5.099  18.590  0.00  0.00    +0.000 A 
ATOM     19 CL   UNL     1       4.857   3.827  17.986  0.00  0.00    +0.000 Cl
ATOM     20  C   UNL     1       3.078   4.777  19.715  0.00  0.00    +0.000 A 
ATOM     21  C   UNL     1       2.203   5.711  20.248  0.00  0.00    +0.000 A 
ATOM     22  C   UNL     1       2.074   6.963  19.649  0.00  0.00    +0.000 A 
ATOM     23  C   UNL     1       2.824   7.324  18.513  0.00  0.00    +0.000 A 
ENDBRANCH  15  23
ENDBRANCH   1  15
TORSDOF 4
ENDMDL
