MODEL 1
REMARK VINA RESULT:      -7.6      0.000      0.000
REMARK  Name = 
REMARK  5 active torsions:
REMARK  status: ('A' for Active; 'I' for Inactive)
REMARK    1  A    between atoms: C_1  and  C_2
REMARK    2  A    between atoms: CA_4  and  C_5
REMARK    3  A    between atoms: C_5  and  OXT_7
REMARK    4  A    between atoms: N_13  and  C_14
REMARK    5  A    between atoms: C_19  and  C_20
REMARK                            x       y       z     vdW  Elec       q    Type
REMARK                         _______ _______ _______ _____ _____    ______ ____
ROOT
ATOM      1  C   UNL     1      -1.000  10.491  22.903  0.00  0.00    +0.000 C 
ATOM      2  C   UNL     1      -0.582  10.640  21.471  0.00  0.00    +0.000 A 
ATOM      3  C   UNL     1      -1.007  11.702  20.709  0.00  0.00    +0.000 A 
ATOM      4  CA  UNL     1      -0.519  11.713  19.428  0.00  0.00    +0.000 A 
ATOM      5  N   UNL     1       0.316  10.784  18.904  0.00  0.00    +0.000 NA
ATOM      6  C   UNL     1       0.702   9.805  19.724  0.00  0.00    +0.000 A 
ATOM      7  N   UNL     1       1.661   8.916  19.275  0.00  0.00    +0.000 N 
ATOM      8  C   UNL     1       1.720   8.689  17.818  0.00  0.00    +0.000 C 
ATOM      9  C   UNL     1       3.043   7.986  17.443  0.00  0.00    +0.000 C 
ATOM     10  N   UNL     1       3.168   6.738  18.228  0.00  0.00    +0.000 N 
ATOM     11  C   UNL     1       3.175   7.001  19.686  0.00  0.00    +0.000 C 
ATOM     12  C   UNL     1       1.845   7.694  20.083  0.00  0.00    +0.000 C 
ATOM     13  N   UNL     1       0.258   9.708  20.989  0.00  0.00    +0.000 NA
ENDROOT
BRANCH  10  14
ATOM     14  C   UNL     1       3.778   5.617  17.694  0.00  0.00    +0.000 A 
ATOM     15  C   UNL     1       5.080   5.715  17.149  0.00  0.00    +0.000 A 
ATOM     16  C   UNL     1       5.711   4.649  16.501  0.00  0.00    +0.000 A 
ATOM     17  C   UNL     1       5.065   3.430  16.392  0.00  0.00    +0.000 A 
ATOM     18  C   UNL     1       3.795   3.290  16.936  0.00  0.00    +0.000 A 
ATOM     19  C   UNL     1       3.130   4.367  17.575  0.00  0.00    +0.000 A 
BRANCH  19  20
ATOM     20  C   UNL     1       1.721   4.049  18.019  0.00  0.00    +0.000 C 
ATOM     21  F   UNL     1       1.366   4.389  19.285  0.00  0.00    +0.000 F 
ATOM     22  F   UNL     1       0.785   4.658  17.228  0.00  0.00    +0.000 F 
ATOM     23  F   UNL     1       1.453   2.712  17.919  0.00  0.00    +0.000 F 
ENDBRANCH  19  20
ENDBRANCH  10  14
BRANCH   4  24
ATOM     24  C   UNL     1      -0.866  12.820  18.496  0.00  0.00    +0.000 C 
ATOM     25  O   UNL     1      -0.208  13.829  18.337  0.00  0.00    +0.000 OA
BRANCH  24  26
ATOM     26  OXT UNL     1      -2.027  12.545  17.846  0.00  0.00    +0.000 OA
ATOM     27  HXT UNL     1      -1.933  11.672  17.397  0.00  0.00    +0.000 HD
ENDBRANCH  24  26
ENDBRANCH   4  24
TORSDOF 4
ENDMDL
MODEL 2
REMARK VINA RESULT:      -7.6      1.831      2.677
REMARK  Name = 
REMARK  5 active torsions:
REMARK  status: ('A' for Active; 'I' for Inactive)
REMARK    1  A    between atoms: C_1  and  C_2
REMARK    2  A    between atoms: CA_4  and  C_5
REMARK    3  A    between atoms: C_5  and  OXT_7
REMARK    4  A    between atoms: N_13  and  C_14
REMARK    5  A    between atoms: C_19  and  C_20
REMARK                            x       y       z     vdW  Elec       q    Type
REMARK                         _______ _______ _______ _____ _____    ______ ____
ROOT
ATOM      1  C   UNL     1      -0.623  13.280  18.671  0.00  0.00    +0.000 C 
ATOM      2  C   UNL     1      -0.378  12.142  19.616  0.00  0.00    +0.000 A 
ATOM      3  C   UNL     1      -0.883  12.153  20.894  0.00  0.00    +0.000 A 
ATOM      4  CA  UNL     1      -0.596  11.030  21.627  0.00  0.00    +0.000 A 
ATOM      5  N   UNL     1       0.118   9.969  21.181  0.00  0.00    +0.000 NA
ATOM      6  C   UNL     1       0.542  10.030  19.917  0.00  0.00    +0.000 A 
ATOM      7  N   UNL     1       1.153   8.913  19.378  0.00  0.00    +0.000 N 
ATOM      8  C   UNL     1       1.854   8.024  20.324  0.00  0.00    +0.000 C 
ATOM      9  C   UNL     1       2.153   6.665  19.651  0.00  0.00    +0.000 C 
ATOM     10  N   UNL     1       2.914   6.898  18.404  0.00  0.00    +0.000 N 
ATOM     11  C   UNL     1       2.158   7.737  17.445  0.00  0.00    +0.000 C 
ATOM     12  C   UNL     1       1.862   9.113  18.099  0.00  0.00    +0.000 C 
ATOM     13  N   UNL     1       0.322  11.101  19.134  0.00  0.00    +0.000 NA
ENDROOT
BRANCH  10  14
ATOM     14  C   UNL     1       3.874   5.999  17.975  0.00  0.00    +0.000 A 
ATOM     15  C   UNL     1       5.189   6.446  17.708  0.00  0.00    +0.000 A 
ATOM     16  C   UNL     1       6.177   5.614  17.172  0.00  0.00    +0.000 A 
ATOM     17  C   UNL     1       5.889   4.288  16.903  0.00  0.00    +0.000 A 
ATOM     18  C   UNL     1       4.614   3.808  17.175  0.00  0.00    +0.000 A 
ATOM     19  C   UNL     1       3.593   4.644  17.695  0.00  0.00    +0.000 A 
BRANCH  19  20
ATOM     20  C   UNL     1       2.249   3.965  17.836  0.00  0.00    +0.000 C 
ATOM     21  F   UNL     1       1.810   3.690  19.091  0.00  0.00    +0.000 F 
ATOM     22  F   UNL     1       1.242   4.703  17.277  0.00  0.00    +0.000 F 
ATOM     23  F   UNL     1       2.220   2.768  17.176  0.00  0.00    +0.000 F 
ENDBRANCH  19  20
ENDBRANCH  10  14
BRANCH   4  24
ATOM     24  C   UNL     1      -1.106  10.885  23.017  0.00  0.00    +0.000 C 
ATOM     25  O   UNL     1      -1.987  11.561  23.511  0.00  0.00    +0.000 OA
BRANCH  24  26
ATOM     26  OXT UNL     1      -0.446   9.888  23.662  0.00  0.00    +0.000 OA
ATOM     27  HXT UNL     1      -1.087   9.164  23.854  0.00  0.00    +0.000 HD
ENDBRANCH  24  26
ENDBRANCH   4  24
TORSDOF 4
ENDMDL
MODEL 3
REMARK VINA RESULT:      -7.4      1.919      2.393
REMARK  Name = 
REMARK  5 active torsions:
REMARK  status: ('A' for Active; 'I' for Inactive)
REMARK    1  A    between atoms: C_1  and  C_2
REMARK    2  A    between atoms: CA_4  and  C_5
REMARK    3  A    between atoms: C_5  and  OXT_7
REMARK    4  A    between atoms: N_13  and  C_14
REMARK    5  A    between atoms: C_19  and  C_20
REMARK                            x       y       z     vdW  Elec       q    Type
REMARK                         _______ _______ _______ _____ _____    ______ ____
ROOT
ATOM      1  C   UNL     1      -0.911  11.256  22.987  0.00  0.00    +0.000 C 
ATOM      2  C   UNL     1      -0.416  11.249  21.572  0.00  0.00    +0.000 A 
ATOM      3  C   UNL     1      -0.560  12.348  20.759  0.00  0.00    +0.000 A 
ATOM      4  CA  UNL     1      -0.034  12.196  19.502  0.00  0.00    +0.000 A 
ATOM      5  N   UNL     1       0.589  11.082  19.046  0.00  0.00    +0.000 NA
ATOM      6  C   UNL     1       0.711  10.076  19.914  0.00  0.00    +0.000 A 
ATOM      7  N   UNL     1       1.459   8.976  19.537  0.00  0.00    +0.000 N 
ATOM      8  C   UNL     1       1.521   8.683  18.092  0.00  0.00    +0.000 C 
ATOM      9  C   UNL     1       2.664   7.685  17.801  0.00  0.00    +0.000 C 
ATOM     10  N   UNL     1       2.472   6.474  18.629  0.00  0.00    +0.000 N 
ATOM     11  C   UNL     1       2.483   6.787  20.078  0.00  0.00    +0.000 C 
ATOM     12  C   UNL     1       1.331   7.778  20.390  0.00  0.00    +0.000 C 
ATOM     13  N   UNL     1       0.208  10.132  21.159  0.00  0.00    +0.000 NA
ENDROOT
BRANCH  10  14
ATOM     14  C   UNL     1       2.832   5.223  18.159  0.00  0.00    +0.000 A 
ATOM     15  C   UNL     1       1.834   4.265  17.868  0.00  0.00    +0.000 A 
ATOM     16  C   UNL     1       2.132   2.952  17.491  0.00  0.00    +0.000 A 
ATOM     17  C   UNL     1       3.451   2.553  17.371  0.00  0.00    +0.000 A 
ATOM     18  C   UNL     1       4.459   3.474  17.626  0.00  0.00    +0.000 A 
ATOM     19  C   UNL     1       4.175   4.803  18.034  0.00  0.00    +0.000 A 
BRANCH  19  20
ATOM     20  C   UNL     1       5.400   5.627  18.355  0.00  0.00    +0.000 C 
ATOM     21  F   UNL     1       5.491   6.864  17.803  0.00  0.00    +0.000 F 
ATOM     22  F   UNL     1       5.533   5.844  19.699  0.00  0.00    +0.000 F 
ATOM     23  F   UNL     1       6.549   4.985  17.984  0.00  0.00    +0.000 F 
ENDBRANCH  19  20
ENDBRANCH  10  14
BRANCH   4  24
ATOM     24  C   UNL     1      -0.084  13.314  18.521  0.00  0.00    +0.000 C 
ATOM     25  O   UNL     1       0.483  14.381  18.652  0.00  0.00    +0.000 OA
BRANCH  24  26
ATOM     26  OXT UNL     1      -0.857  12.976  17.457  0.00  0.00    +0.000 OA
ATOM     27  HXT UNL     1      -1.786  12.866  17.770  0.00  0.00    +0.000 HD
ENDBRANCH  24  26
ENDBRANCH   4  24
TORSDOF 4
ENDMDL
MODEL 4
REMARK VINA RESULT:      -7.4      4.335      8.432
REMARK  Name = 
REMARK  5 active torsions:
REMARK  status: ('A' for Active; 'I' for Inactive)
REMARK    1  A    between atoms: C_1  and  C_2
REMARK    2  A    between atoms: CA_4  and  C_5
REMARK    3  A    between atoms: C_5  and  OXT_7
REMARK    4  A    between atoms: N_13  and  C_14
REMARK    5  A    between atoms: C_19  and  C_20
REMARK                            x       y       z     vdW  Elec       q    Type
REMARK                         _______ _______ _______ _____ _____    ______ ____
ROOT
ATOM      1  C   UNL     1       4.439   6.012  17.931  0.00  0.00    +0.000 C 
ATOM      2  C   UNL     1       3.397   5.867  18.999  0.00  0.00    +0.000 A 
ATOM      3  C   UNL     1       3.150   4.655  19.597  0.00  0.00    +0.000 A 
ATOM      4  CA  UNL     1       2.187   4.689  20.573  0.00  0.00    +0.000 A 
ATOM      5  N   UNL     1       1.506   5.794  20.958  0.00  0.00    +0.000 NA
ATOM      6  C   UNL     1       1.833   6.934  20.345  0.00  0.00    +0.000 A 
ATOM      7  N   UNL     1       1.264   8.108  20.803  0.00  0.00    +0.000 N 
ATOM      8  C   UNL     1      -0.064   7.995  21.437  0.00  0.00    +0.000 C 
ATOM      9  C   UNL     1      -0.393   9.290  22.213  0.00  0.00    +0.000 C 
ATOM     10  N   UNL     1      -0.288  10.445  21.295  0.00  0.00    +0.000 N 
ATOM     11  C   UNL     1       1.074  10.576  20.726  0.00  0.00    +0.000 C 
ATOM     12  C   UNL     1       1.416   9.288  19.929  0.00  0.00    +0.000 C 
ATOM     13  N   UNL     1       2.751   6.988  19.365  0.00  0.00    +0.000 NA
ENDROOT
BRANCH  10  14
ATOM     14  C   UNL     1      -1.122  11.541  21.427  0.00  0.00    +0.000 A 
ATOM     15  C   UNL     1      -1.299  12.143  22.695  0.00  0.00    +0.000 A 
ATOM     16  C   UNL     1      -2.206  13.183  22.918  0.00  0.00    +0.000 A 
ATOM     17  C   UNL     1      -2.960  13.677  21.868  0.00  0.00    +0.000 A 
ATOM     18  C   UNL     1      -2.795  13.126  20.604  0.00  0.00    +0.000 A 
ATOM     19  C   UNL     1      -1.898  12.054  20.364  0.00  0.00    +0.000 A 
BRANCH  19  20
ATOM     20  C   UNL     1      -1.927  11.527  18.948  0.00  0.00    +0.000 C 
ATOM     21  F   UNL     1      -1.960  10.181  18.776  0.00  0.00    +0.000 F 
ATOM     22  F   UNL     1      -3.013  11.985  18.253  0.00  0.00    +0.000 F 
ATOM     23  F   UNL     1      -0.843  11.953  18.232  0.00  0.00    +0.000 F 
ENDBRANCH  19  20
ENDBRANCH  10  14
BRANCH   4  24
ATOM     24  C   UNL     1       1.836   3.458  21.332  0.00  0.00    +0.000 C 
ATOM     25  O   UNL     1       2.530   2.947  22.189  0.00  0.00    +0.000 OA
BRANCH  24  26
ATOM     26  OXT UNL     1       0.629   2.982  20.931  0.00  0.00    +0.000 OA
ATOM     27  HXT UNL     1       0.718   2.650  20.006  0.00  0.00    +0.000 HD
ENDBRANCH  24  26
ENDBRANCH   4  24
TORSDOF 4
ENDMDL
MODEL 5
REMARK VINA RESULT:      -7.4      4.063      8.063
REMARK  Name = 
REMARK  5 active torsions:
REMARK  status: ('A' for Active; 'I' for Inactive)
REMARK    1  A    between atoms: C_1  and  C_2
REMARK    2  A    between atoms: CA_4  and  C_5
REMARK    3  A    between atoms: C_5  and  OXT_7
REMARK    4  A    between atoms: N_13  and  C_14
REMARK    5  A    between atoms: C_19  and  C_20
REMARK                            x       y       z     vdW  Elec       q    Type
REMARK                         _______ _______ _______ _____ _____    ______ ____
ROOT
ATOM      1  C   UNL     1       5.224   5.234  15.682  0.00  0.00    +0.000 C 
ATOM      2  C   UNL     1       4.499   5.209  16.994  0.00  0.00    +0.000 A 
ATOM      3  C   UNL     1       4.574   4.121  17.830  0.00  0.00    +0.000 A 
ATOM      4  CA  UNL     1       3.877   4.259  19.003  0.00  0.00    +0.000 A 
ATOM      5  N   UNL     1       3.161   5.352  19.362  0.00  0.00    +0.000 NA
ATOM      6  C   UNL     1       3.170   6.373  18.502  0.00  0.00    +0.000 A 
ATOM      7  N   UNL     1       2.569   7.557  18.888  0.00  0.00    +0.000 N 
ATOM      8  C   UNL     1       1.462   7.450  19.857  0.00  0.00    +0.000 C 
ATOM      9  C   UNL     1       1.150   8.837  20.462  0.00  0.00    +0.000 C 
ATOM     10  N   UNL     1       0.871   9.792  19.368  0.00  0.00    +0.000 N 
ATOM     11  C   UNL     1       2.025   9.932  18.449  0.00  0.00    +0.000 C 
ATOM     12  C   UNL     1       2.342   8.550  17.819  0.00  0.00    +0.000 C 
ATOM     13  N   UNL     1       3.810   6.315  17.321  0.00  0.00    +0.000 NA
ENDROOT
BRANCH  10  14
ATOM     14  C   UNL     1      -0.052  10.811  19.528  0.00  0.00    +0.000 A 
ATOM     15  C   UNL     1       0.092  11.732  20.591  0.00  0.00    +0.000 A 
ATOM     16  C   UNL     1      -0.858  12.718  20.872  0.00  0.00    +0.000 A 
ATOM     17  C   UNL     1      -1.986  12.832  20.080  0.00  0.00    +0.000 A 
ATOM     18  C   UNL     1      -2.149  11.960  19.012  0.00  0.00    +0.000 A 
ATOM     19  C   UNL     1      -1.208  10.938  18.727  0.00  0.00    +0.000 A 
BRANCH  19  20
ATOM     20  C   UNL     1      -1.605  10.030  17.585  0.00  0.00    +0.000 C 
ATOM     21  F   UNL     1      -0.676   9.155  17.123  0.00  0.00    +0.000 F 
ATOM     22  F   UNL     1      -2.682   9.248  17.903  0.00  0.00    +0.000 F 
ATOM     23  F   UNL     1      -1.999  10.746  16.489  0.00  0.00    +0.000 F 
ENDBRANCH  19  20
ENDBRANCH  10  14
BRANCH   4  24
ATOM     24  C   UNL     1       3.894   3.176  20.024  0.00  0.00    +0.000 C 
ATOM     25  O   UNL     1       3.061   3.028  20.896  0.00  0.00    +0.000 OA
BRANCH  24  26
ATOM     26  OXT UNL     1       4.974   2.373  19.845  0.00  0.00    +0.000 OA
ATOM     27  HXT UNL     1       4.675   1.543  19.404  0.00  0.00    +0.000 HD
ENDBRANCH  24  26
ENDBRANCH   4  24
TORSDOF 4
ENDMDL
MODEL 6
REMARK VINA RESULT:      -7.3      1.225      1.508
REMARK  Name = 
REMARK  5 active torsions:
REMARK  status: ('A' for Active; 'I' for Inactive)
REMARK    1  A    between atoms: C_1  and  C_2
REMARK    2  A    between atoms: CA_4  and  C_5
REMARK    3  A    between atoms: C_5  and  OXT_7
REMARK    4  A    between atoms: N_13  and  C_14
REMARK    5  A    between atoms: C_19  and  C_20
REMARK                            x       y       z     vdW  Elec       q    Type
REMARK                         _______ _______ _______ _____ _____    ______ ____
ROOT
ATOM      1  C   UNL     1      -1.044  11.164  23.025  0.00  0.00    +0.000 C 
ATOM      2  C   UNL     1      -0.492  11.091  21.633  0.00  0.00    +0.000 A 
ATOM      3  C   UNL     1      -0.613  12.145  20.760  0.00  0.00    +0.000 A 
ATOM      4  CA  UNL     1      -0.035  11.936  19.534  0.00  0.00    +0.000 A 
ATOM      5  N   UNL     1       0.614  10.808  19.161  0.00  0.00    +0.000 NA
ATOM      6  C   UNL     1       0.710   9.847  20.083  0.00  0.00    +0.000 A 
ATOM      7  N   UNL     1       1.483   8.738  19.792  0.00  0.00    +0.000 N 
ATOM      8  C   UNL     1       1.605   8.373  18.367  0.00  0.00    +0.000 C 
ATOM      9  C   UNL     1       2.768   7.374  18.174  0.00  0.00    +0.000 C 
ATOM     10  N   UNL     1       2.553   6.204  19.054  0.00  0.00    +0.000 N 
ATOM     11  C   UNL     1       2.503   6.590  20.483  0.00  0.00    +0.000 C 
ATOM     12  C   UNL     1       1.330   7.583  20.699  0.00  0.00    +0.000 C 
ATOM     13  N   UNL     1       0.157   9.961  21.302  0.00  0.00    +0.000 NA
ENDROOT
BRANCH  10  14
ATOM     14  C   UNL     1       2.942   4.935  18.662  0.00  0.00    +0.000 A 
ATOM     15  C   UNL     1       3.812   4.774  17.558  0.00  0.00    +0.000 A 
ATOM     16  C   UNL     1       4.160   3.520  17.046  0.00  0.00    +0.000 A 
ATOM     17  C   UNL     1       3.663   2.373  17.638  0.00  0.00    +0.000 A 
ATOM     18  C   UNL     1       2.825   2.493  18.739  0.00  0.00    +0.000 A 
ATOM     19  C   UNL     1       2.441   3.756  19.256  0.00  0.00    +0.000 A 
BRANCH  19  20
ATOM     20  C   UNL     1       1.451   3.684  20.396  0.00  0.00    +0.000 C 
ATOM     21  F   UNL     1       1.871   4.086  21.623  0.00  0.00    +0.000 F 
ATOM     22  F   UNL     1       0.336   4.438  20.154  0.00  0.00    +0.000 F 
ATOM     23  F   UNL     1       0.986   2.411  20.577  0.00  0.00    +0.000 F 
ENDBRANCH  19  20
ENDBRANCH  10  14
BRANCH   4  24
ATOM     24  C   UNL     1      -0.056  13.003  18.497  0.00  0.00    +0.000 C 
ATOM     25  O   UNL     1       0.714  13.941  18.447  0.00  0.00    +0.000 OA
BRANCH  24  26
ATOM     26  OXT UNL     1      -1.062  12.782  17.611  0.00  0.00    +0.000 OA
ATOM     27  HXT UNL     1      -1.342  13.650  17.236  0.00  0.00    +0.000 HD
ENDBRANCH  24  26
ENDBRANCH   4  24
TORSDOF 4
ENDMDL
MODEL 7
REMARK VINA RESULT:      -7.2      4.034      7.867
REMARK  Name = 
REMARK  5 active torsions:
REMARK  status: ('A' for Active; 'I' for Inactive)
REMARK    1  A    between atoms: C_1  and  C_2
REMARK    2  A    between atoms: CA_4  and  C_5
REMARK    3  A    between atoms: C_5  and  OXT_7
REMARK    4  A    between atoms: N_13  and  C_14
REMARK    5  A    between atoms: C_19  and  C_20
REMARK                            x       y       z     vdW  Elec       q    Type
REMARK                         _______ _______ _______ _____ _____    ______ ____
ROOT
ATOM      1  C   UNL     1       4.255   3.796  16.754  0.00  0.00    +0.000 C 
ATOM      2  C   UNL     1       3.491   4.206  17.977  0.00  0.00    +0.000 A 
ATOM      3  C   UNL     1       3.213   3.308  18.979  0.00  0.00    +0.000 A 
ATOM      4  CA  UNL     1       2.529   3.839  20.043  0.00  0.00    +0.000 A 
ATOM      5  N   UNL     1       2.139   5.131  20.152  0.00  0.00    +0.000 NA
ATOM      6  C   UNL     1       2.479   5.939  19.145  0.00  0.00    +0.000 A 
ATOM      7  N   UNL     1       2.223   7.291  19.278  0.00  0.00    +0.000 N 
ATOM      8  C   UNL     1       1.086   7.667  20.140  0.00  0.00    +0.000 C 
ATOM      9  C   UNL     1       1.155   9.171  20.485  0.00  0.00    +0.000 C 
ATOM     10  N   UNL     1       1.212   9.953  19.230  0.00  0.00    +0.000 N 
ATOM     11  C   UNL     1       2.401   9.606  18.416  0.00  0.00    +0.000 C 
ATOM     12  C   UNL     1       2.340   8.099  18.048  0.00  0.00    +0.000 C 
ATOM     13  N   UNL     1       3.131   5.498  18.056  0.00  0.00    +0.000 NA
ENDROOT
BRANCH  10  14
ATOM     14  C   UNL     1       0.612  11.197  19.136  0.00  0.00    +0.000 A 
ATOM     15  C   UNL     1       1.187  12.309  19.793  0.00  0.00    +0.000 A 
ATOM     16  C   UNL     1       0.577  13.567  19.827  0.00  0.00    +0.000 A 
ATOM     17  C   UNL     1      -0.630  13.764  19.180  0.00  0.00    +0.000 A 
ATOM     18  C   UNL     1      -1.213  12.700  18.504  0.00  0.00    +0.000 A 
ATOM     19  C   UNL     1      -0.621  11.411  18.481  0.00  0.00    +0.000 A 
BRANCH  19  20
ATOM     20  C   UNL     1      -1.450  10.362  17.775  0.00  0.00    +0.000 C 
ATOM     21  F   UNL     1      -2.310   9.627  18.526  0.00  0.00    +0.000 F 
ATOM     22  F   UNL     1      -2.233  10.903  16.793  0.00  0.00    +0.000 F 
ATOM     23  F   UNL     1      -0.661   9.446  17.136  0.00  0.00    +0.000 F 
ENDBRANCH  19  20
ENDBRANCH  10  14
BRANCH   4  24
ATOM     24  C   UNL     1       2.187   2.994  21.219  0.00  0.00    +0.000 C 
ATOM     25  O   UNL     1       2.996   2.497  21.978  0.00  0.00    +0.000 OA
BRANCH  24  26
ATOM     26  OXT UNL     1       0.841   2.855  21.327  0.00  0.00    +0.000 OA
ATOM     27  HXT UNL     1       0.457   3.727  21.582  0.00  0.00    +0.000 HD
ENDBRANCH  24  26
ENDBRANCH   4  24
TORSDOF 4
ENDMDL
MODEL 8
REMARK VINA RESULT:      -7.2      0.889      1.175
REMARK  Name = 
REMARK  5 active torsions:
REMARK  status: ('A' for Active; 'I' for Inactive)
REMARK    1  A    between atoms: C_1  and  C_2
REMARK    2  A    between atoms: CA_4  and  C_5
REMARK    3  A    between atoms: C_5  and  OXT_7
REMARK    4  A    between atoms: N_13  and  C_14
REMARK    5  A    between atoms: C_19  and  C_20
REMARK                            x       y       z     vdW  Elec       q    Type
REMARK                         _______ _______ _______ _____ _____    ______ ____
ROOT
ATOM      1  C   UNL     1      -0.708   9.357  23.049  0.00  0.00    +0.000 C 
ATOM      2  C   UNL     1      -0.282   9.746  21.665  0.00  0.00    +0.000 A 
ATOM      3  C   UNL     1      -0.746  10.896  21.071  0.00  0.00    +0.000 A 
ATOM      4  CA  UNL     1      -0.245  11.128  19.816  0.00  0.00    +0.000 A 
ATOM      5  N   UNL     1       0.636  10.328  19.168  0.00  0.00    +0.000 NA
ATOM      6  C   UNL     1       1.056   9.250  19.832  0.00  0.00    +0.000 A 
ATOM      7  N   UNL     1       2.058   8.483  19.266  0.00  0.00    +0.000 N 
ATOM      8  C   UNL     1       2.142   8.491  17.793  0.00  0.00    +0.000 C 
ATOM      9  C   UNL     1       3.499   7.910  17.336  0.00  0.00    +0.000 C 
ATOM     10  N   UNL     1       3.670   6.561  17.918  0.00  0.00    +0.000 N 
ATOM     11  C   UNL     1       3.651   6.592  19.400  0.00  0.00    +0.000 C 
ATOM     12  C   UNL     1       2.287   7.159  19.876  0.00  0.00    +0.000 C 
ATOM     13  N   UNL     1       0.603   8.937  21.058  0.00  0.00    +0.000 NA
ENDROOT
BRANCH  10  14
ATOM     14  C   UNL     1       4.335   5.564  17.226  0.00  0.00    +0.000 A 
ATOM     15  C   UNL     1       5.546   5.858  16.557  0.00  0.00    +0.000 A 
ATOM     16  C   UNL     1       6.212   4.926  15.754  0.00  0.00    +0.000 A 
ATOM     17  C   UNL     1       5.697   3.651  15.608  0.00  0.00    +0.000 A 
ATOM     18  C   UNL     1       4.522   3.320  16.270  0.00  0.00    +0.000 A 
ATOM     19  C   UNL     1       3.820   4.259  17.068  0.00  0.00    +0.000 A 
BRANCH  19  20
ATOM     20  C   UNL     1       2.515   3.742  17.629  0.00  0.00    +0.000 C 
ATOM     21  F   UNL     1       1.393   4.468  17.389  0.00  0.00    +0.000 F 
ATOM     22  F   UNL     1       2.217   2.491  17.163  0.00  0.00    +0.000 F 
ATOM     23  F   UNL     1       2.571   3.610  18.989  0.00  0.00    +0.000 F 
ENDBRANCH  19  20
ENDBRANCH  10  14
BRANCH   4  24
ATOM     24  C   UNL     1      -0.631  12.352  19.063  0.00  0.00    +0.000 C 
ATOM     25  O   UNL     1      -1.590  13.053  19.317  0.00  0.00    +0.000 OA
BRANCH  24  26
ATOM     26  OXT UNL     1       0.242  12.576  18.046  0.00  0.00    +0.000 OA
ATOM     27  HXT UNL     1       0.257  13.545  17.859  0.00  0.00    +0.000 HD
ENDBRANCH  24  26
ENDBRANCH   4  24
TORSDOF 4
ENDMDL
MODEL 9
REMARK VINA RESULT:      -7.1      3.988      8.030
REMARK  Name = 
REMARK  5 active torsions:
REMARK  status: ('A' for Active; 'I' for Inactive)
REMARK    1  A    between atoms: C_1  and  C_2
REMARK    2  A    between atoms: CA_4  and  C_5
REMARK    3  A    between atoms: C_5  and  OXT_7
REMARK    4  A    between atoms: N_13  and  C_14
REMARK    5  A    between atoms: C_19  and  C_20
REMARK                            x       y       z     vdW  Elec       q    Type
REMARK                         _______ _______ _______ _____ _____    ______ ____
ROOT
ATOM      1  C   UNL     1       5.355   5.868  15.564  0.00  0.00    +0.000 C 
ATOM      2  C   UNL     1       4.606   5.734  16.856  0.00  0.00    +0.000 A 
ATOM      3  C   UNL     1       4.726   4.610  17.638  0.00  0.00    +0.000 A 
ATOM      4  CA  UNL     1       4.000   4.647  18.800  0.00  0.00    +0.000 A 
ATOM      5  N   UNL     1       3.215   5.678  19.197  0.00  0.00    +0.000 NA
ATOM      6  C   UNL     1       3.182   6.741  18.391  0.00  0.00    +0.000 A 
ATOM      7  N   UNL     1       2.507   7.868  18.822  0.00  0.00    +0.000 N 
ATOM      8  C   UNL     1       1.388   7.648  19.759  0.00  0.00    +0.000 C 
ATOM      9  C   UNL     1       0.985   8.982  20.426  0.00  0.00    +0.000 C 
ATOM     10  N   UNL     1       0.673   9.975  19.375  0.00  0.00    +0.000 N 
ATOM     11  C   UNL     1       1.836  10.228  18.492  0.00  0.00    +0.000 C 
ATOM     12  C   UNL     1       2.244   8.900  17.800  0.00  0.00    +0.000 C 
ATOM     13  N   UNL     1       3.848   6.781  17.224  0.00  0.00    +0.000 NA
ENDROOT
BRANCH  10  14
ATOM     14  C   UNL     1      -0.309  10.931  19.565  0.00  0.00    +0.000 A 
ATOM     15  C   UNL     1      -0.225  11.822  20.661  0.00  0.00    +0.000 A 
ATOM     16  C   UNL     1      -1.234  12.738  20.970  0.00  0.00    +0.000 A 
ATOM     17  C   UNL     1      -2.364  12.812  20.176  0.00  0.00    +0.000 A 
ATOM     18  C   UNL     1      -2.471  11.969  19.078  0.00  0.00    +0.000 A 
ATOM     19  C   UNL     1      -1.469  11.016  18.763  0.00  0.00    +0.000 A 
BRANCH  19  20
ATOM     20  C   UNL     1      -1.807  10.126  17.589  0.00  0.00    +0.000 C 
ATOM     21  F   UNL     1      -2.117  10.727  16.411  0.00  0.00    +0.000 F 
ATOM     22  F   UNL     1      -0.781   9.277  17.278  0.00  0.00    +0.000 F 
ATOM     23  F   UNL     1      -2.871   9.313  17.866  0.00  0.00    +0.000 F 
ENDBRANCH  19  20
ENDBRANCH  10  14
BRANCH   4  24
ATOM     24  C   UNL     1       4.058   3.516  19.765  0.00  0.00    +0.000 C 
ATOM     25  O   UNL     1       4.994   2.751  19.886  0.00  0.00    +0.000 OA
BRANCH  24  26
ATOM     26  OXT UNL     1       2.913   3.454  20.493  0.00  0.00    +0.000 OA
ATOM     27  HXT UNL     1       2.898   4.221  21.113  0.00  0.00    +0.000 HD
ENDBRANCH  24  26
ENDBRANCH   4  24
TORSDOF 4
ENDMDL
