MODEL 1
REMARK VINA RESULT:      -9.1      0.000      0.000
REMARK  Name = 
REMARK  6 active torsions:
REMARK  status: ('A' for Active; 'I' for Inactive)
REMARK    1  A    between atoms: C_1  and  C_2
REMARK    2  A    between atoms: C_2  and  C_4
REMARK    3  A    between atoms: C_4  and  O_5
REMARK    4  A    between atoms: O_5  and  C_6
REMARK    5  A    between atoms: C_9  and  N_10
REMARK    6  A    between atoms: N_10  and  C_11
REMARK                            x       y       z     vdW  Elec       q    Type
REMARK                         _______ _______ _______ _____ _____    ______ ____
ROOT
ATOM      1  C   UNL     1       3.636   5.207  19.110  0.00  0.00    +0.000 A 
ATOM      2  C   UNL     1       4.270   5.222  17.789  0.00  0.00    +0.000 A 
ATOM      3  C   UNL     1       4.459   6.302  16.908  0.00  0.00    +0.000 A 
ATOM      4  C   UNL     1       5.215   6.197  15.740  0.00  0.00    +0.000 A 
ATOM      5  C   UNL     1       5.780   4.983  15.398  0.00  0.00    +0.000 A 
ATOM      6  C   UNL     1       5.428   3.862  16.140  0.00  0.00    +0.000 A 
ATOM      7  C   UNL     1       4.596   3.981  17.252  0.00  0.00    +0.000 A 
ATOM      8  N   UNL     1       3.955   2.869  17.630  0.00  0.00    +0.000 NA
ATOM      9  C   UNL     1       3.002   3.040  18.541  0.00  0.00    +0.000 A 
ATOM     10  C   UNL     1       1.697   2.678  18.259  0.00  0.00    +0.000 A 
ATOM     11  C   UNL     1       0.661   2.966  19.151  0.00  0.00    +0.000 A 
ATOM     12  C   UNL     1       0.983   3.398  20.430  0.00  0.00    +0.000 A 
ATOM     13  C   UNL     1       2.281   3.824  20.675  0.00  0.00    +0.000 A 
ATOM     14  C   UNL     1       3.115   3.965  19.556  0.00  0.00    +0.000 A 
ENDROOT
BRANCH   1  15
ATOM     15  N   UNL     1       3.315   6.356  19.900  0.00  0.00    +0.000 N 
ATOM     16  H   UNL     1       3.518   6.156  20.880  0.00  0.00    +0.000 HD
BRANCH  15  20
ATOM     17  C   UNL     1       0.676   9.602  19.702  0.00  0.00    +0.000 A 
ATOM     18  C   UNL     1       1.386   9.219  18.569  0.00  0.00    +0.000 A 
ATOM     19  C   UNL     1       2.205   8.086  18.622  0.00  0.00    +0.000 A 
ATOM     20  C   UNL     1       2.304   7.326  19.796  0.00  0.00    +0.000 A 
ATOM     21  C   UNL     1       1.456   7.631  20.856  0.00  0.00    +0.000 A 
ATOM     22  C   UNL     1       0.712   8.810  20.844  0.00  0.00    +0.000 A 
BRANCH  17  23
ATOM     23  O   UNL     1      -0.042  10.756  19.818  0.00  0.00    +0.000 OA
BRANCH  23  24
ATOM     24  C   UNL     1      -0.411  11.349  18.581  0.00  0.00    +0.000 C 
BRANCH  24  26
ATOM     25  C   UNL     1      -2.094   9.954  17.190  0.00  0.00    +0.000 C 
ATOM     26  C   UNL     1      -1.850  10.986  18.262  0.00  0.00    +0.000 C 
ATOM     27  O   UNL     1      -2.790  11.569  18.806  0.00  0.00    +0.000 OA
ENDBRANCH  24  26
ENDBRANCH  23  24
ENDBRANCH  17  23
ENDBRANCH  15  20
ENDBRANCH   1  15
TORSDOF 5
ENDMDL
MODEL 2
REMARK VINA RESULT:      -9.0      2.074      2.748
REMARK  Name = 
REMARK  6 active torsions:
REMARK  status: ('A' for Active; 'I' for Inactive)
REMARK    1  A    between atoms: C_1  and  C_2
REMARK    2  A    between atoms: C_2  and  C_4
REMARK    3  A    between atoms: C_4  and  O_5
REMARK    4  A    between atoms: O_5  and  C_6
REMARK    5  A    between atoms: C_9  and  N_10
REMARK    6  A    between atoms: N_10  and  C_11
REMARK                            x       y       z     vdW  Elec       q    Type
REMARK                         _______ _______ _______ _____ _____    ______ ____
ROOT
ATOM      1  C   UNL     1       3.597   5.904  18.509  0.00  0.00    +0.000 A 
ATOM      2  C   UNL     1       5.031   6.069  18.258  0.00  0.00    +0.000 A 
ATOM      3  C   UNL     1       5.681   6.950  17.374  0.00  0.00    +0.000 A 
ATOM      4  C   UNL     1       7.068   7.100  17.347  0.00  0.00    +0.000 A 
ATOM      5  C   UNL     1       7.855   6.337  18.188  0.00  0.00    +0.000 A 
ATOM      6  C   UNL     1       7.249   5.317  18.910  0.00  0.00    +0.000 A 
ATOM      7  C   UNL     1       5.868   5.130  18.850  0.00  0.00    +0.000 A 
ATOM      8  N   UNL     1       5.423   3.913  19.183  0.00  0.00    +0.000 NA
ATOM      9  C   UNL     1       4.144   3.677  18.910  0.00  0.00    +0.000 A 
ATOM     10  C   UNL     1       3.793   2.642  18.061  0.00  0.00    +0.000 A 
ATOM     11  C   UNL     1       2.467   2.458  17.660  0.00  0.00    +0.000 A 
ATOM     12  C   UNL     1       1.469   3.169  18.313  0.00  0.00    +0.000 A 
ATOM     13  C   UNL     1       1.836   4.247  19.104  0.00  0.00    +0.000 A 
ATOM     14  C   UNL     1       3.178   4.652  19.027  0.00  0.00    +0.000 A 
ENDROOT
BRANCH   1  15
ATOM     15  N   UNL     1       2.564   6.805  18.098  0.00  0.00    +0.000 N 
ATOM     16  H   UNL     1       2.606   6.924  17.086  0.00  0.00    +0.000 HD
BRANCH  15  20
ATOM     17  C   UNL     1       0.432   9.926  19.903  0.00  0.00    +0.000 A 
ATOM     18  C   UNL     1       1.008   8.936  20.692  0.00  0.00    +0.000 A 
ATOM     19  C   UNL     1       1.785   7.942  20.088  0.00  0.00    +0.000 A 
ATOM     20  C   UNL     1       2.001   7.942  18.703  0.00  0.00    +0.000 A 
ATOM     21  C   UNL     1       1.558   9.034  17.963  0.00  0.00    +0.000 A 
ATOM     22  C   UNL     1       0.706   9.974  18.540  0.00  0.00    +0.000 A 
BRANCH  17  23
ATOM     23  O   UNL     1      -0.452  10.863  20.350  0.00  0.00    +0.000 OA
BRANCH  23  24
ATOM     24  C   UNL     1       0.001  11.618  21.465  0.00  0.00    +0.000 C 
BRANCH  24  26
ATOM     25  C   UNL     1      -2.098  11.886  22.960  0.00  0.00    +0.000 C 
ATOM     26  C   UNL     1      -0.779  11.204  22.700  0.00  0.00    +0.000 C 
ATOM     27  O   UNL     1      -0.314  10.393  23.504  0.00  0.00    +0.000 OA
ENDBRANCH  24  26
ENDBRANCH  23  24
ENDBRANCH  17  23
ENDBRANCH  15  20
ENDBRANCH   1  15
TORSDOF 5
ENDMDL
MODEL 3
REMARK VINA RESULT:      -8.9      1.211      1.788
REMARK  Name = 
REMARK  6 active torsions:
REMARK  status: ('A' for Active; 'I' for Inactive)
REMARK    1  A    between atoms: C_1  and  C_2
REMARK    2  A    between atoms: C_2  and  C_4
REMARK    3  A    between atoms: C_4  and  O_5
REMARK    4  A    between atoms: O_5  and  C_6
REMARK    5  A    between atoms: C_9  and  N_10
REMARK    6  A    between atoms: N_10  and  C_11
REMARK                            x       y       z     vdW  Elec       q    Type
REMARK                         _______ _______ _______ _____ _____    ______ ____
ROOT
ATOM      1  C   UNL     1       3.630   5.203  19.098  0.00  0.00    +0.000 A 
ATOM      2  C   UNL     1       4.280   5.186  17.785  0.00  0.00    +0.000 A 
ATOM      3  C   UNL     1       4.481   6.246  16.882  0.00  0.00    +0.000 A 
ATOM      4  C   UNL     1       5.252   6.112  15.726  0.00  0.00    +0.000 A 
ATOM      5  C   UNL     1       5.820   4.891  15.420  0.00  0.00    +0.000 A 
ATOM      6  C   UNL     1       5.457   3.787  16.183  0.00  0.00    +0.000 A 
ATOM      7  C   UNL     1       4.612   3.933  17.282  0.00  0.00    +0.000 A 
ATOM      8  N   UNL     1       3.964   2.831  17.678  0.00  0.00    +0.000 NA
ATOM      9  C   UNL     1       3.001   3.024  18.573  0.00  0.00    +0.000 A 
ATOM     10  C   UNL     1       1.699   2.656  18.282  0.00  0.00    +0.000 A 
ATOM     11  C   UNL     1       0.652   2.966  19.155  0.00  0.00    +0.000 A 
ATOM     12  C   UNL     1       0.959   3.427  20.428  0.00  0.00    +0.000 A 
ATOM     13  C   UNL     1       2.254   3.858  20.678  0.00  0.00    +0.000 A 
ATOM     14  C   UNL     1       3.102   3.972  19.566  0.00  0.00    +0.000 A 
ENDROOT
BRANCH   1  15
ATOM     15  N   UNL     1       3.301   6.370  19.857  0.00  0.00    +0.000 N 
ATOM     16  H   UNL     1       3.442   6.176  20.849  0.00  0.00    +0.000 HD
BRANCH  15  20
ATOM     17  C   UNL     1       0.788   9.694  19.430  0.00  0.00    +0.000 A 
ATOM     18  C   UNL     1       1.470   9.196  18.324  0.00  0.00    +0.000 A 
ATOM     19  C   UNL     1       2.244   8.040  18.459  0.00  0.00    +0.000 A 
ATOM     20  C   UNL     1       2.327   7.369  19.686  0.00  0.00    +0.000 A 
ATOM     21  C   UNL     1       1.503   7.788  20.727  0.00  0.00    +0.000 A 
ATOM     22  C   UNL     1       0.806   8.990  20.629  0.00  0.00    +0.000 A 
BRANCH  17  23
ATOM     23  O   UNL     1       0.117  10.881  19.462  0.00  0.00    +0.000 OA
BRANCH  23  24
ATOM     24  C   UNL     1       0.331  11.648  20.637  0.00  0.00    +0.000 C 
BRANCH  24  26
ATOM     25  C   UNL     1       1.423  13.314  18.979  0.00  0.00    +0.000 C 
ATOM     26  C   UNL     1       1.384  12.706  20.359  0.00  0.00    +0.000 C 
ATOM     27  O   UNL     1       2.227  13.004  21.207  0.00  0.00    +0.000 OA
ENDBRANCH  24  26
ENDBRANCH  23  24
ENDBRANCH  17  23
ENDBRANCH  15  20
ENDBRANCH   1  15
TORSDOF 5
ENDMDL
MODEL 4
REMARK VINA RESULT:      -8.8      1.266      1.656
REMARK  Name = 
REMARK  6 active torsions:
REMARK  status: ('A' for Active; 'I' for Inactive)
REMARK    1  A    between atoms: C_1  and  C_2
REMARK    2  A    between atoms: C_2  and  C_4
REMARK    3  A    between atoms: C_4  and  O_5
REMARK    4  A    between atoms: O_5  and  C_6
REMARK    5  A    between atoms: C_9  and  N_10
REMARK    6  A    between atoms: N_10  and  C_11
REMARK                            x       y       z     vdW  Elec       q    Type
REMARK                         _______ _______ _______ _____ _____    ______ ____
ROOT
ATOM      1  C   UNL     1       3.646   5.182  19.121  0.00  0.00    +0.000 A 
ATOM      2  C   UNL     1       4.266   5.205  17.793  0.00  0.00    +0.000 A 
ATOM      3  C   UNL     1       4.452   6.292  16.920  0.00  0.00    +0.000 A 
ATOM      4  C   UNL     1       5.195   6.193  15.743  0.00  0.00    +0.000 A 
ATOM      5  C   UNL     1       5.749   4.979  15.385  0.00  0.00    +0.000 A 
ATOM      6  C   UNL     1       5.399   3.854  16.120  0.00  0.00    +0.000 A 
ATOM      7  C   UNL     1       4.580   3.967  17.242  0.00  0.00    +0.000 A 
ATOM      8  N   UNL     1       3.936   2.856  17.617  0.00  0.00    +0.000 NA
ATOM      9  C   UNL     1       2.994   3.024  18.540  0.00  0.00    +0.000 A 
ATOM     10  C   UNL     1       1.684   2.671  18.268  0.00  0.00    +0.000 A 
ATOM     11  C   UNL     1       0.659   2.957  19.173  0.00  0.00    +0.000 A 
ATOM     12  C   UNL     1       0.998   3.375  20.453  0.00  0.00    +0.000 A 
ATOM     13  C   UNL     1       2.300   3.792  20.688  0.00  0.00    +0.000 A 
ATOM     14  C   UNL     1       3.123   3.939  19.561  0.00  0.00    +0.000 A 
ENDROOT
BRANCH   1  15
ATOM     15  N   UNL     1       3.340   6.325  19.924  0.00  0.00    +0.000 N 
ATOM     16  H   UNL     1       3.586   6.129  20.895  0.00  0.00    +0.000 HD
BRANCH  15  20
ATOM     17  C   UNL     1       0.639   9.526  19.873  0.00  0.00    +0.000 A 
ATOM     18  C   UNL     1       1.363   9.214  18.727  0.00  0.00    +0.000 A 
ATOM     19  C   UNL     1       2.203   8.097  18.728  0.00  0.00    +0.000 A 
ATOM     20  C   UNL     1       2.311   7.280  19.862  0.00  0.00    +0.000 A 
ATOM     21  C   UNL     1       1.450   7.514  20.931  0.00  0.00    +0.000 A 
ATOM     22  C   UNL     1       0.683   8.676  20.973  0.00  0.00    +0.000 A 
BRANCH  17  23
ATOM     23  O   UNL     1      -0.103  10.658  20.042  0.00  0.00    +0.000 OA
BRANCH  23  24
ATOM     24  C   UNL     1       0.432  11.579  20.981  0.00  0.00    +0.000 C 
BRANCH  24  26
ATOM     25  C   UNL     1      -1.189  11.152  22.957  0.00  0.00    +0.000 C 
ATOM     26  C   UNL     1      -0.683  12.080  21.881  0.00  0.00    +0.000 C 
ATOM     27  O   UNL     1      -1.209  13.179  21.692  0.00  0.00    +0.000 OA
ENDBRANCH  24  26
ENDBRANCH  23  24
ENDBRANCH  17  23
ENDBRANCH  15  20
ENDBRANCH   1  15
TORSDOF 5
ENDMDL
MODEL 5
REMARK VINA RESULT:      -8.7      1.295      3.739
REMARK  Name = 
REMARK  6 active torsions:
REMARK  status: ('A' for Active; 'I' for Inactive)
REMARK    1  A    between atoms: C_1  and  C_2
REMARK    2  A    between atoms: C_2  and  C_4
REMARK    3  A    between atoms: C_4  and  O_5
REMARK    4  A    between atoms: O_5  and  C_6
REMARK    5  A    between atoms: C_9  and  N_10
REMARK    6  A    between atoms: N_10  and  C_11
REMARK                            x       y       z     vdW  Elec       q    Type
REMARK                         _______ _______ _______ _____ _____    ______ ____
ROOT
ATOM      1  C   UNL     1       2.815   6.134  18.555  0.00  0.00    +0.000 A 
ATOM      2  C   UNL     1       2.167   4.906  19.020  0.00  0.00    +0.000 A 
ATOM      3  C   UNL     1       1.628   4.613  20.286  0.00  0.00    +0.000 A 
ATOM      4  C   UNL     1       0.905   3.447  20.544  0.00  0.00    +0.000 A 
ATOM      5  C   UNL     1       0.729   2.515  19.540  0.00  0.00    +0.000 A 
ATOM      6  C   UNL     1       1.431   2.687  18.353  0.00  0.00    +0.000 A 
ATOM      7  C   UNL     1       2.220   3.819  18.154  0.00  0.00    +0.000 A 
ATOM      8  N   UNL     1       3.183   3.711  17.232  0.00  0.00    +0.000 NA
ATOM      9  C   UNL     1       4.065   4.706  17.207  0.00  0.00    +0.000 A 
ATOM     10  C   UNL     1       5.409   4.448  17.412  0.00  0.00    +0.000 A 
ATOM     11  C   UNL     1       6.334   5.490  17.517  0.00  0.00    +0.000 A 
ATOM     12  C   UNL     1       5.934   6.774  17.171  0.00  0.00    +0.000 A 
ATOM     13  C   UNL     1       4.577   7.029  17.039  0.00  0.00    +0.000 A 
ATOM     14  C   UNL     1       3.705   6.012  17.457  0.00  0.00    +0.000 A 
ENDROOT
BRANCH   1  15
ATOM     15  N   UNL     1       2.792   7.400  19.221  0.00  0.00    +0.000 N 
ATOM     16  H   UNL     1       3.237   7.307  20.134  0.00  0.00    +0.000 HD
BRANCH  15  20
ATOM     17  C   UNL     1      -0.374  10.142  19.238  0.00  0.00    +0.000 A 
ATOM     18  C   UNL     1       0.073   9.595  20.436  0.00  0.00    +0.000 A 
ATOM     19  C   UNL     1       1.181   8.742  20.430  0.00  0.00    +0.000 A 
ATOM     20  C   UNL     1       1.853   8.446  19.237  0.00  0.00    +0.000 A 
ATOM     21  C   UNL     1       1.492   9.137  18.084  0.00  0.00    +0.000 A 
ATOM     22  C   UNL     1       0.334   9.912  18.064  0.00  0.00    +0.000 A 
BRANCH  17  23
ATOM     23  O   UNL     1      -1.518  10.872  19.093  0.00  0.00    +0.000 OA
BRANCH  23  24
ATOM     24  C   UNL     1      -1.871  11.154  17.748  0.00  0.00    +0.000 C 
BRANCH  24  26
ATOM     25  C   UNL     1      -4.298  11.400  16.872  0.00  0.00    +0.000 C 
ATOM     26  C   UNL     1      -3.215  10.517  17.439  0.00  0.00    +0.000 C 
ATOM     27  O   UNL     1      -3.438   9.336  17.713  0.00  0.00    +0.000 OA
ENDBRANCH  24  26
ENDBRANCH  23  24
ENDBRANCH  17  23
ENDBRANCH  15  20
ENDBRANCH   1  15
TORSDOF 5
ENDMDL
MODEL 6
REMARK VINA RESULT:      -8.6      1.916      2.708
REMARK  Name = 
REMARK  6 active torsions:
REMARK  status: ('A' for Active; 'I' for Inactive)
REMARK    1  A    between atoms: C_1  and  C_2
REMARK    2  A    between atoms: C_2  and  C_4
REMARK    3  A    between atoms: C_4  and  O_5
REMARK    4  A    between atoms: O_5  and  C_6
REMARK    5  A    between atoms: C_9  and  N_10
REMARK    6  A    between atoms: N_10  and  C_11
REMARK                            x       y       z     vdW  Elec       q    Type
REMARK                         _______ _______ _______ _____ _____    ______ ____
ROOT
ATOM      1  C   UNL     1       3.525   5.813  18.563  0.00  0.00    +0.000 A 
ATOM      2  C   UNL     1       4.953   5.994  18.291  0.00  0.00    +0.000 A 
ATOM      3  C   UNL     1       5.579   6.880  17.396  0.00  0.00    +0.000 A 
ATOM      4  C   UNL     1       6.965   7.047  17.348  0.00  0.00    +0.000 A 
ATOM      5  C   UNL     1       7.772   6.296  18.179  0.00  0.00    +0.000 A 
ATOM      6  C   UNL     1       7.189   5.270  18.912  0.00  0.00    +0.000 A 
ATOM      7  C   UNL     1       5.810   5.066  18.873  0.00  0.00    +0.000 A 
ATOM      8  N   UNL     1       5.385   3.845  19.215  0.00  0.00    +0.000 NA
ATOM      9  C   UNL     1       4.104   3.593  18.961  0.00  0.00    +0.000 A 
ATOM     10  C   UNL     1       3.754   2.552  18.120  0.00  0.00    +0.000 A 
ATOM     11  C   UNL     1       2.424   2.351  17.739  0.00  0.00    +0.000 A 
ATOM     12  C   UNL     1       1.427   3.051  18.404  0.00  0.00    +0.000 A 
ATOM     13  C   UNL     1       1.793   4.136  19.187  0.00  0.00    +0.000 A 
ATOM     14  C   UNL     1       3.128   4.557  19.090  0.00  0.00    +0.000 A 
ENDROOT
BRANCH   1  15
ATOM     15  N   UNL     1       2.476   6.700  18.166  0.00  0.00    +0.000 N 
ATOM     16  H   UNL     1       2.390   6.684  17.149  0.00  0.00    +0.000 HD
BRANCH  15  20
ATOM     17  C   UNL     1       0.662  10.170  19.653  0.00  0.00    +0.000 A 
ATOM     18  C   UNL     1       1.014   9.146  20.526  0.00  0.00    +0.000 A 
ATOM     19  C   UNL     1       1.690   8.026  20.032  0.00  0.00    +0.000 A 
ATOM     20  C   UNL     1       2.030   7.931  18.676  0.00  0.00    +0.000 A 
ATOM     21  C   UNL     1       1.820   9.040  17.862  0.00  0.00    +0.000 A 
ATOM     22  C   UNL     1       1.064  10.116  18.323  0.00  0.00    +0.000 A 
BRANCH  17  23
ATOM     23  O   UNL     1      -0.115  11.242  19.982  0.00  0.00    +0.000 OA
BRANCH  23  24
ATOM     24  C   UNL     1       0.330  11.966  21.120  0.00  0.00    +0.000 C 
BRANCH  24  26
ATOM     25  C   UNL     1       0.990  13.849  19.466  0.00  0.00    +0.000 C 
ATOM     26  C   UNL     1       1.329  13.023  20.682  0.00  0.00    +0.000 C 
ATOM     27  O   UNL     1       2.413  13.151  21.253  0.00  0.00    +0.000 OA
ENDBRANCH  24  26
ENDBRANCH  23  24
ENDBRANCH  17  23
ENDBRANCH  15  20
ENDBRANCH   1  15
TORSDOF 5
ENDMDL
MODEL 7
REMARK VINA RESULT:      -8.6      1.416      1.875
REMARK  Name = 
REMARK  6 active torsions:
REMARK  status: ('A' for Active; 'I' for Inactive)
REMARK    1  A    between atoms: C_1  and  C_2
REMARK    2  A    between atoms: C_2  and  C_4
REMARK    3  A    between atoms: C_4  and  O_5
REMARK    4  A    between atoms: O_5  and  C_6
REMARK    5  A    between atoms: C_9  and  N_10
REMARK    6  A    between atoms: N_10  and  C_11
REMARK                            x       y       z     vdW  Elec       q    Type
REMARK                         _______ _______ _______ _____ _____    ______ ____
ROOT
ATOM      1  C   UNL     1       3.484   5.695  18.883  0.00  0.00    +0.000 A 
ATOM      2  C   UNL     1       4.851   5.944  18.419  0.00  0.00    +0.000 A 
ATOM      3  C   UNL     1       5.303   6.841  17.434  0.00  0.00    +0.000 A 
ATOM      4  C   UNL     1       6.658   7.078  17.198  0.00  0.00    +0.000 A 
ATOM      5  C   UNL     1       7.609   6.390  17.925  0.00  0.00    +0.000 A 
ATOM      6  C   UNL     1       7.186   5.352  18.746  0.00  0.00    +0.000 A 
ATOM      7  C   UNL     1       5.827   5.076  18.895  0.00  0.00    +0.000 A 
ATOM      8  N   UNL     1       5.519   3.843  19.311  0.00  0.00    +0.000 NA
ATOM      9  C   UNL     1       4.231   3.519  19.235  0.00  0.00    +0.000 A 
ATOM     10  C   UNL     1       3.830   2.442  18.465  0.00  0.00    +0.000 A 
ATOM     11  C   UNL     1       2.474   2.163  18.269  0.00  0.00    +0.000 A 
ATOM     12  C   UNL     1       1.538   2.825  19.051  0.00  0.00    +0.000 A 
ATOM     13  C   UNL     1       1.945   3.946  19.761  0.00  0.00    +0.000 A 
ATOM     14  C   UNL     1       3.230   4.433  19.478  0.00  0.00    +0.000 A 
ENDROOT
BRANCH   1  15
ATOM     15  N   UNL     1       2.344   6.517  18.616  0.00  0.00    +0.000 N 
ATOM     16  H   UNL     1       1.980   6.295  17.688  0.00  0.00    +0.000 HD
BRANCH  15  20
ATOM     17  C   UNL     1       0.899  10.335  19.554  0.00  0.00    +0.000 A 
ATOM     18  C   UNL     1       0.962   9.358  20.542  0.00  0.00    +0.000 A 
ATOM     19  C   UNL     1       1.518   8.111  20.240  0.00  0.00    +0.000 A 
ATOM     20  C   UNL     1       2.027   7.842  18.962  0.00  0.00    +0.000 A 
ATOM     21  C   UNL     1       2.108   8.888  18.047  0.00  0.00    +0.000 A 
ATOM     22  C   UNL     1       1.471  10.099  18.308  0.00  0.00    +0.000 A 
BRANCH  17  23
ATOM     23  O   UNL     1       0.260  11.533  19.682  0.00  0.00    +0.000 OA
BRANCH  23  24
ATOM     24  C   UNL     1      -0.517  11.911  18.556  0.00  0.00    +0.000 C 
BRANCH  24  26
ATOM     25  C   UNL     1      -2.377  10.218  17.934  0.00  0.00    +0.000 C 
ATOM     26  C   UNL     1      -1.941  11.415  18.740  0.00  0.00    +0.000 C 
ATOM     27  O   UNL     1      -2.735  12.015  19.466  0.00  0.00    +0.000 OA
ENDBRANCH  24  26
ENDBRANCH  23  24
ENDBRANCH  17  23
ENDBRANCH  15  20
ENDBRANCH   1  15
TORSDOF 5
ENDMDL
MODEL 8
REMARK VINA RESULT:      -8.5      1.791      3.920
REMARK  Name = 
REMARK  6 active torsions:
REMARK  status: ('A' for Active; 'I' for Inactive)
REMARK    1  A    between atoms: C_1  and  C_2
REMARK    2  A    between atoms: C_2  and  C_4
REMARK    3  A    between atoms: C_4  and  O_5
REMARK    4  A    between atoms: O_5  and  C_6
REMARK    5  A    between atoms: C_9  and  N_10
REMARK    6  A    between atoms: N_10  and  C_11
REMARK                            x       y       z     vdW  Elec       q    Type
REMARK                         _______ _______ _______ _____ _____    ______ ____
ROOT
ATOM      1  C   UNL     1       3.256   6.051  18.096  0.00  0.00    +0.000 A 
ATOM      2  C   UNL     1       2.542   4.870  18.588  0.00  0.00    +0.000 A 
ATOM      3  C   UNL     1       1.826   4.702  19.787  0.00  0.00    +0.000 A 
ATOM      4  C   UNL     1       1.069   3.561  20.058  0.00  0.00    +0.000 A 
ATOM      5  C   UNL     1       1.036   2.529  19.140  0.00  0.00    +0.000 A 
ATOM      6  C   UNL     1       1.902   2.586  18.055  0.00  0.00    +0.000 A 
ATOM      7  C   UNL     1       2.716   3.700  17.856  0.00  0.00    +0.000 A 
ATOM      8  N   UNL     1       3.801   3.509  17.097  0.00  0.00    +0.000 NA
ATOM      9  C   UNL     1       4.681   4.505  17.097  0.00  0.00    +0.000 A 
ATOM     10  C   UNL     1       5.981   4.285  17.517  0.00  0.00    +0.000 A 
ATOM     11  C   UNL     1       6.885   5.343  17.646  0.00  0.00    +0.000 A 
ATOM     12  C   UNL     1       6.544   6.579  17.115  0.00  0.00    +0.000 A 
ATOM     13  C   UNL     1       5.220   6.804  16.765  0.00  0.00    +0.000 A 
ATOM     14  C   UNL     1       4.294   5.826  17.156  0.00  0.00    +0.000 A 
ENDROOT
BRANCH   1  15
ATOM     15  N   UNL     1       3.141   7.378  18.617  0.00  0.00    +0.000 N 
ATOM     16  H   UNL     1       3.924   7.560  19.247  0.00  0.00    +0.000 HD
BRANCH  15  20
ATOM     17  C   UNL     1       0.177  10.125  19.717  0.00  0.00    +0.000 A 
ATOM     18  C   UNL     1       0.523   9.981  18.377  0.00  0.00    +0.000 A 
ATOM     19  C   UNL     1       1.456   9.006  18.010  0.00  0.00    +0.000 A 
ATOM     20  C   UNL     1       2.033   8.166  18.972  0.00  0.00    +0.000 A 
ATOM     21  C   UNL     1       1.545   8.216  20.274  0.00  0.00    +0.000 A 
ATOM     22  C   UNL     1       0.689   9.245  20.664  0.00  0.00    +0.000 A 
BRANCH  17  23
ATOM     23  O   UNL     1      -0.610  11.122  20.216  0.00  0.00    +0.000 OA
BRANCH  23  24
ATOM     24  C   UNL     1      -0.102  11.745  21.386  0.00  0.00    +0.000 C 
BRANCH  24  26
ATOM     25  C   UNL     1      -2.338  12.274  22.586  0.00  0.00    +0.000 C 
ATOM     26  C   UNL     1      -1.053  11.486  22.543  0.00  0.00    +0.000 C 
ATOM     27  O   UNL     1      -0.750  10.715  23.455  0.00  0.00    +0.000 OA
ENDBRANCH  24  26
ENDBRANCH  23  24
ENDBRANCH  17  23
ENDBRANCH  15  20
ENDBRANCH   1  15
TORSDOF 5
ENDMDL
MODEL 9
REMARK VINA RESULT:      -8.5      2.123      2.647
REMARK  Name = 
REMARK  6 active torsions:
REMARK  status: ('A' for Active; 'I' for Inactive)
REMARK    1  A    between atoms: C_1  and  C_2
REMARK    2  A    between atoms: C_2  and  C_4
REMARK    3  A    between atoms: C_4  and  O_5
REMARK    4  A    between atoms: O_5  and  C_6
REMARK    5  A    between atoms: C_9  and  N_10
REMARK    6  A    between atoms: N_10  and  C_11
REMARK                            x       y       z     vdW  Elec       q    Type
REMARK                         _______ _______ _______ _____ _____    ______ ____
ROOT
ATOM      1  C   UNL     1       3.643   5.978  18.411  0.00  0.00    +0.000 A 
ATOM      2  C   UNL     1       5.085   6.138  18.206  0.00  0.00    +0.000 A 
ATOM      3  C   UNL     1       5.765   7.012  17.337  0.00  0.00    +0.000 A 
ATOM      4  C   UNL     1       7.153   7.160  17.355  0.00  0.00    +0.000 A 
ATOM      5  C   UNL     1       7.910   6.404  18.229  0.00  0.00    +0.000 A 
ATOM      6  C   UNL     1       7.279   5.390  18.939  0.00  0.00    +0.000 A 
ATOM      7  C   UNL     1       5.901   5.204  18.834  0.00  0.00    +0.000 A 
ATOM      8  N   UNL     1       5.443   3.990  19.162  0.00  0.00    +0.000 NA
ATOM      9  C   UNL     1       4.173   3.753  18.848  0.00  0.00    +0.000 A 
ATOM     10  C   UNL     1       3.850   2.712  17.997  0.00  0.00    +0.000 A 
ATOM     11  C   UNL     1       2.538   2.525  17.553  0.00  0.00    +0.000 A 
ATOM     12  C   UNL     1       1.519   3.242  18.166  0.00  0.00    +0.000 A 
ATOM     13  C   UNL     1       1.861   4.327  18.960  0.00  0.00    +0.000 A 
ATOM     14  C   UNL     1       3.205   4.730  18.924  0.00  0.00    +0.000 A 
ENDROOT
BRANCH   1  15
ATOM     15  N   UNL     1       2.626   6.876  17.958  0.00  0.00    +0.000 N 
ATOM     16  H   UNL     1       2.815   7.137  16.989  0.00  0.00    +0.000 HD
BRANCH  15  20
ATOM     17  C   UNL     1       0.917  10.150  19.933  0.00  0.00    +0.000 A 
ATOM     18  C   UNL     1       1.046  10.169  18.548  0.00  0.00    +0.000 A 
ATOM     19  C   UNL     1       1.544   9.040  17.890  0.00  0.00    +0.000 A 
ATOM     20  C   UNL     1       1.898   7.889  18.606  0.00  0.00    +0.000 A 
ATOM     21  C   UNL     1       1.601   7.836  19.964  0.00  0.00    +0.000 A 
ATOM     22  C   UNL     1       1.196   8.985  20.640  0.00  0.00    +0.000 A 
BRANCH  17  23
ATOM     23  O   UNL     1       0.577  11.227  20.699  0.00  0.00    +0.000 OA
BRANCH  23  24
ATOM     24  C   UNL     1      -0.795  11.285  21.059  0.00  0.00    +0.000 C 
BRANCH  24  26
ATOM     25  C   UNL     1      -1.141  13.077  22.899  0.00  0.00    +0.000 C 
ATOM     26  C   UNL     1      -0.911  11.632  22.533  0.00  0.00    +0.000 C 
ATOM     27  O   UNL     1      -0.747  10.775  23.403  0.00  0.00    +0.000 OA
ENDBRANCH  24  26
ENDBRANCH  23  24
ENDBRANCH  17  23
ENDBRANCH  15  20
ENDBRANCH   1  15
TORSDOF 5
ENDMDL
