MODEL 1
REMARK VINA RESULT:      -7.3      0.000      0.000
REMARK  Name = 
REMARK  4 active torsions:
REMARK  status: ('A' for Active; 'I' for Inactive)
REMARK    1  A    between atoms: C_1  and  C_2
REMARK    2  A    between atoms: C_5  and  C_6
REMARK    3  A    between atoms: N_7  and  C_8
REMARK    4  A    between atoms: C_13  and  C_14
REMARK                            x       y       z     vdW  Elec       q    Type
REMARK                         _______ _______ _______ _____ _____    ______ ____
ROOT
ATOM      1  C   UNL     1       3.625   4.171  19.333  0.00  0.00    +0.000 A 
ATOM      2  C   UNL     1       2.632   5.146  19.559  0.00  0.00    +0.000 A 
ATOM      3  C   UNL     1       1.597   4.950  20.475  0.00  0.00    +0.000 A 
ATOM      4  C   UNL     1       1.505   3.748  21.160  0.00  0.00    +0.000 A 
ATOM      5  C   UNL     1       2.445   2.746  20.922  0.00  0.00    +0.000 A 
ATOM      6  C   UNL     1       3.507   2.940  20.016  0.00  0.00    +0.000 A 
ENDROOT
BRANCH   6   7
ATOM      7  C   UNL     1       4.438   1.780  19.850  0.00  0.00    +0.000 C 
ATOM      8  N   UNL     1       4.308   1.004  18.737  0.00  0.00    +0.000 N 
ATOM      9  O   UNL     1       5.296   1.514  20.686  0.00  0.00    +0.000 OA
ATOM     10  H   UNL     1       3.570   1.191  18.065  0.00  0.00    +0.000 HD
ATOM     11  H   UNL     1       4.909   0.201  18.630  0.00  0.00    +0.000 HD
ENDBRANCH   6   7
BRANCH   1  13
ATOM     12  C   UNL     1       4.344   4.355  17.126  0.00  0.00    +0.000 C 
ATOM     13  N   UNL     1       4.651   4.424  18.385  0.00  0.00    +0.000 NA
BRANCH  12  18
ATOM     14  C   UNL     1       6.125   3.585  12.737  0.00  0.00    +0.000 C 
ATOM     15  C   UNL     1       6.179   4.141  14.103  0.00  0.00    +0.000 A 
ATOM     16  C   UNL     1       7.139   4.832  14.809  0.00  0.00    +0.000 A 
ATOM     17  C   UNL     1       6.602   5.051  16.101  0.00  0.00    +0.000 A 
ATOM     18  C   UNL     1       5.342   4.490  16.105  0.00  0.00    +0.000 A 
ATOM     19  O   UNL     1       5.077   3.944  14.881  0.00  0.00    +0.000 OA
ENDBRANCH  12  18
ENDBRANCH   1  13
TORSDOF 3
ENDMDL
MODEL 2
REMARK VINA RESULT:      -6.8      2.139      6.257
REMARK  Name = 
REMARK  4 active torsions:
REMARK  status: ('A' for Active; 'I' for Inactive)
REMARK    1  A    between atoms: C_1  and  C_2
REMARK    2  A    between atoms: C_5  and  C_6
REMARK    3  A    between atoms: N_7  and  C_8
REMARK    4  A    between atoms: C_13  and  C_14
REMARK                            x       y       z     vdW  Elec       q    Type
REMARK                         _______ _______ _______ _____ _____    ______ ____
ROOT
ATOM      1  C   UNL     1       5.396   4.458  16.614  0.00  0.00    +0.000 A 
ATOM      2  C   UNL     1       5.058   4.058  15.305  0.00  0.00    +0.000 A 
ATOM      3  C   UNL     1       5.936   4.215  14.232  0.00  0.00    +0.000 A 
ATOM      4  C   UNL     1       7.167   4.820  14.435  0.00  0.00    +0.000 A 
ATOM      5  C   UNL     1       7.512   5.270  15.710  0.00  0.00    +0.000 A 
ATOM      6  C   UNL     1       6.641   5.099  16.806  0.00  0.00    +0.000 A 
ENDROOT
BRANCH   6   7
ATOM      7  C   UNL     1       7.132   5.636  18.113  0.00  0.00    +0.000 C 
ATOM      8  N   UNL     1       6.834   4.942  19.247  0.00  0.00    +0.000 N 
ATOM      9  O   UNL     1       7.780   6.675  18.183  0.00  0.00    +0.000 OA
ATOM     10  H   UNL     1       6.259   4.106  19.201  0.00  0.00    +0.000 HD
ATOM     11  H   UNL     1       7.132   5.311  20.137  0.00  0.00    +0.000 HD
ENDBRANCH   6   7
BRANCH   1  13
ATOM     12  C   UNL     1       3.543   3.373  17.514  0.00  0.00    +0.000 C 
ATOM     13  N   UNL     1       4.460   4.279  17.665  0.00  0.00    +0.000 NA
BRANCH  12  18
ATOM     14  C   UNL     1       1.872   2.624  21.950  0.00  0.00    +0.000 C 
ATOM     15  C   UNL     1       1.710   2.852  20.500  0.00  0.00    +0.000 A 
ATOM     16  C   UNL     1       0.618   2.889  19.662  0.00  0.00    +0.000 A 
ATOM     17  C   UNL     1       1.124   3.108  18.358  0.00  0.00    +0.000 A 
ATOM     18  C   UNL     1       2.496   3.202  18.477  0.00  0.00    +0.000 A 
ATOM     19  O   UNL     1       2.854   3.057  19.788  0.00  0.00    +0.000 OA
ENDBRANCH  12  18
ENDBRANCH   1  13
TORSDOF 3
ENDMDL
MODEL 3
REMARK VINA RESULT:      -6.8      2.074      6.280
REMARK  Name = 
REMARK  4 active torsions:
REMARK  status: ('A' for Active; 'I' for Inactive)
REMARK    1  A    between atoms: C_1  and  C_2
REMARK    2  A    between atoms: C_5  and  C_6
REMARK    3  A    between atoms: N_7  and  C_8
REMARK    4  A    between atoms: C_13  and  C_14
REMARK                            x       y       z     vdW  Elec       q    Type
REMARK                         _______ _______ _______ _____ _____    ______ ____
ROOT
ATOM      1  C   UNL     1       5.560   4.414  16.607  0.00  0.00    +0.000 A 
ATOM      2  C   UNL     1       5.048   3.962  15.373  0.00  0.00    +0.000 A 
ATOM      3  C   UNL     1       5.757   4.106  14.180  0.00  0.00    +0.000 A 
ATOM      4  C   UNL     1       6.985   4.751  14.184  0.00  0.00    +0.000 A 
ATOM      5  C   UNL     1       7.496   5.253  15.381  0.00  0.00    +0.000 A 
ATOM      6  C   UNL     1       6.799   5.094  16.597  0.00  0.00    +0.000 A 
ENDROOT
BRANCH   6   7
ATOM      7  C   UNL     1       7.457   5.688  17.803  0.00  0.00    +0.000 C 
ATOM      8  N   UNL     1       7.776   4.859  18.835  0.00  0.00    +0.000 N 
ATOM      9  O   UNL     1       7.703   6.887  17.880  0.00  0.00    +0.000 OA
ATOM     10  H   UNL     1       7.533   3.874  18.797  0.00  0.00    +0.000 HD
ATOM     11  H   UNL     1       8.190   5.253  19.667  0.00  0.00    +0.000 HD
ENDBRANCH   6   7
BRANCH   1  13
ATOM     12  C   UNL     1       3.706   4.944  17.911  0.00  0.00    +0.000 C 
ATOM     13  N   UNL     1       4.792   4.245  17.788  0.00  0.00    +0.000 NA
BRANCH  12  18
ATOM     14  C   UNL     1       1.534   2.713  21.563  0.00  0.00    +0.000 C 
ATOM     15  C   UNL     1       1.922   3.911  20.792  0.00  0.00    +0.000 A 
ATOM     16  C   UNL     1       1.630   5.251  20.913  0.00  0.00    +0.000 A 
ATOM     17  C   UNL     1       2.274   5.897  19.829  0.00  0.00    +0.000 A 
ATOM     18  C   UNL     1       2.930   4.914  19.116  0.00  0.00    +0.000 A 
ATOM     19  O   UNL     1       2.725   3.701  19.712  0.00  0.00    +0.000 OA
ENDBRANCH  12  18
ENDBRANCH   1  13
TORSDOF 3
ENDMDL
MODEL 4
REMARK VINA RESULT:      -6.7      1.469      1.601
REMARK  Name = 
REMARK  4 active torsions:
REMARK  status: ('A' for Active; 'I' for Inactive)
REMARK    1  A    between atoms: C_1  and  C_2
REMARK    2  A    between atoms: C_5  and  C_6
REMARK    3  A    between atoms: N_7  and  C_8
REMARK    4  A    between atoms: C_13  and  C_14
REMARK                            x       y       z     vdW  Elec       q    Type
REMARK                         _______ _______ _______ _____ _____    ______ ____
ROOT
ATOM      1  C   UNL     1       3.233   4.782  18.278  0.00  0.00    +0.000 A 
ATOM      2  C   UNL     1       3.045   6.140  18.613  0.00  0.00    +0.000 A 
ATOM      3  C   UNL     1       2.356   6.531  19.761  0.00  0.00    +0.000 A 
ATOM      4  C   UNL     1       1.795   5.567  20.587  0.00  0.00    +0.000 A 
ATOM      5  C   UNL     1       1.922   4.218  20.257  0.00  0.00    +0.000 A 
ATOM      6  C   UNL     1       2.635   3.810  19.111  0.00  0.00    +0.000 A 
ENDROOT
BRANCH   6   7
ATOM      7  C   UNL     1       2.685   2.334  18.871  0.00  0.00    +0.000 C 
ATOM      8  N   UNL     1       3.873   1.784  18.492  0.00  0.00    +0.000 N 
ATOM      9  O   UNL     1       1.694   1.623  19.000  0.00  0.00    +0.000 OA
ATOM     10  H   UNL     1       4.686   2.373  18.338  0.00  0.00    +0.000 HD
ATOM     11  H   UNL     1       3.912   0.795  18.296  0.00  0.00    +0.000 HD
ENDBRANCH   6   7
BRANCH   1  13
ATOM     12  C   UNL     1       5.074   5.032  16.874  0.00  0.00    +0.000 C 
ATOM     13  N   UNL     1       3.938   4.444  17.093  0.00  0.00    +0.000 NA
BRANCH  12  18
ATOM     14  C   UNL     1       5.586   3.304  12.426  0.00  0.00    +0.000 C 
ATOM     15  C   UNL     1       6.054   4.040  13.618  0.00  0.00    +0.000 A 
ATOM     16  C   UNL     1       7.246   4.642  13.953  0.00  0.00    +0.000 A 
ATOM     17  C   UNL     1       7.083   5.146  15.266  0.00  0.00    +0.000 A 
ATOM     18  C   UNL     1       5.796   4.829  15.653  0.00  0.00    +0.000 A 
ATOM     19  O   UNL     1       5.163   4.164  14.641  0.00  0.00    +0.000 OA
ENDBRANCH  12  18
ENDBRANCH   1  13
TORSDOF 3
ENDMDL
MODEL 5
REMARK VINA RESULT:      -6.7      2.205      2.687
REMARK  Name = 
REMARK  4 active torsions:
REMARK  status: ('A' for Active; 'I' for Inactive)
REMARK    1  A    between atoms: C_1  and  C_2
REMARK    2  A    between atoms: C_5  and  C_6
REMARK    3  A    between atoms: N_7  and  C_8
REMARK    4  A    between atoms: C_13  and  C_14
REMARK                            x       y       z     vdW  Elec       q    Type
REMARK                         _______ _______ _______ _____ _____    ______ ____
ROOT
ATOM      1  C   UNL     1       2.451   3.935  18.128  0.00  0.00    +0.000 A 
ATOM      2  C   UNL     1       1.750   2.712  18.088  0.00  0.00    +0.000 A 
ATOM      3  C   UNL     1       0.889   2.318  19.114  0.00  0.00    +0.000 A 
ATOM      4  C   UNL     1       0.741   3.124  20.233  0.00  0.00    +0.000 A 
ATOM      5  C   UNL     1       1.459   4.317  20.323  0.00  0.00    +0.000 A 
ATOM      6  C   UNL     1       2.315   4.735  19.284  0.00  0.00    +0.000 A 
ENDROOT
BRANCH   6   7
ATOM      7  C   UNL     1       3.030   6.029  19.515  0.00  0.00    +0.000 C 
ATOM      8  N   UNL     1       4.389   6.006  19.609  0.00  0.00    +0.000 N 
ATOM      9  O   UNL     1       2.426   7.091  19.627  0.00  0.00    +0.000 OA
ATOM     10  H   UNL     1       4.892   5.125  19.563  0.00  0.00    +0.000 HD
ATOM     11  H   UNL     1       4.879   6.868  19.796  0.00  0.00    +0.000 HD
ENDBRANCH   6   7
BRANCH   1  13
ATOM     12  C   UNL     1       4.486   3.717  17.017  0.00  0.00    +0.000 C 
ATOM     13  N   UNL     1       3.318   4.280  17.058  0.00  0.00    +0.000 NA
BRANCH  12  18
ATOM     14  C   UNL     1       6.346   3.691  12.593  0.00  0.00    +0.000 C 
ATOM     15  C   UNL     1       6.333   4.083  14.017  0.00  0.00    +0.000 A 
ATOM     16  C   UNL     1       7.205   4.792  14.813  0.00  0.00    +0.000 A 
ATOM     17  C   UNL     1       6.646   4.790  16.114  0.00  0.00    +0.000 A 
ATOM     18  C   UNL     1       5.461   4.088  16.034  0.00  0.00    +0.000 A 
ATOM     19  O   UNL     1       5.263   3.666  14.750  0.00  0.00    +0.000 OA
ENDBRANCH  12  18
ENDBRANCH   1  13
TORSDOF 3
ENDMDL
MODEL 6
REMARK VINA RESULT:      -6.7      1.916      2.866
REMARK  Name = 
REMARK  4 active torsions:
REMARK  status: ('A' for Active; 'I' for Inactive)
REMARK    1  A    between atoms: C_1  and  C_2
REMARK    2  A    between atoms: C_5  and  C_6
REMARK    3  A    between atoms: N_7  and  C_8
REMARK    4  A    between atoms: C_13  and  C_14
REMARK                            x       y       z     vdW  Elec       q    Type
REMARK                         _______ _______ _______ _____ _____    ______ ____
ROOT
ATOM      1  C   UNL     1       3.136   4.229  18.969  0.00  0.00    +0.000 A 
ATOM      2  C   UNL     1       2.971   2.873  19.322  0.00  0.00    +0.000 A 
ATOM      3  C   UNL     1       1.960   2.451  20.186  0.00  0.00    +0.000 A 
ATOM      4  C   UNL     1       1.109   3.387  20.757  0.00  0.00    +0.000 A 
ATOM      5  C   UNL     1       1.277   4.740  20.464  0.00  0.00    +0.000 A 
ATOM      6  C   UNL     1       2.282   5.177  19.576  0.00  0.00    +0.000 A 
ENDROOT
BRANCH   6   7
ATOM      7  C   UNL     1       2.357   6.655  19.359  0.00  0.00    +0.000 C 
ATOM      8  N   UNL     1       2.690   7.107  18.118  0.00  0.00    +0.000 N 
ATOM      9  O   UNL     1       2.135   7.454  20.263  0.00  0.00    +0.000 OA
ATOM     10  H   UNL     1       2.920   6.452  17.377  0.00  0.00    +0.000 HD
ATOM     11  H   UNL     1       2.775   8.102  17.968  0.00  0.00    +0.000 HD
ENDBRANCH   6   7
BRANCH   1  13
ATOM     12  C   UNL     1       4.206   4.067  16.907  0.00  0.00    +0.000 C 
ATOM     13  N   UNL     1       4.187   4.600  18.090  0.00  0.00    +0.000 NA
BRANCH  12  18
ATOM     14  C   UNL     1       6.385   3.727  12.645  0.00  0.00    +0.000 C 
ATOM     15  C   UNL     1       6.307   4.153  14.057  0.00  0.00    +0.000 A 
ATOM     16  C   UNL     1       7.190   4.780  14.908  0.00  0.00    +0.000 A 
ATOM     17  C   UNL     1       6.536   4.872  16.160  0.00  0.00    +0.000 A 
ATOM     18  C   UNL     1       5.289   4.304  15.998  0.00  0.00    +0.000 A 
ATOM     19  O   UNL     1       5.144   3.875  14.709  0.00  0.00    +0.000 OA
ENDBRANCH  12  18
ENDBRANCH   1  13
TORSDOF 3
ENDMDL
MODEL 7
REMARK VINA RESULT:      -6.6      2.515      3.965
REMARK  Name = 
REMARK  4 active torsions:
REMARK  status: ('A' for Active; 'I' for Inactive)
REMARK    1  A    between atoms: C_1  and  C_2
REMARK    2  A    between atoms: C_5  and  C_6
REMARK    3  A    between atoms: N_7  and  C_8
REMARK    4  A    between atoms: C_13  and  C_14
REMARK                            x       y       z     vdW  Elec       q    Type
REMARK                         _______ _______ _______ _____ _____    ______ ____
ROOT
ATOM      1  C   UNL     1       6.174   4.203  16.835  0.00  0.00    +0.000 A 
ATOM      2  C   UNL     1       7.330   4.986  17.031  0.00  0.00    +0.000 A 
ATOM      3  C   UNL     1       7.574   5.660  18.228  0.00  0.00    +0.000 A 
ATOM      4  C   UNL     1       6.639   5.602  19.251  0.00  0.00    +0.000 A 
ATOM      5  C   UNL     1       5.463   4.874  19.070  0.00  0.00    +0.000 A 
ATOM      6  C   UNL     1       5.215   4.172  17.873  0.00  0.00    +0.000 A 
ENDROOT
BRANCH   6   7
ATOM      7  C   UNL     1       3.911   3.441  17.809  0.00  0.00    +0.000 C 
ATOM      8  N   UNL     1       3.934   2.080  17.840  0.00  0.00    +0.000 N 
ATOM      9  O   UNL     1       2.841   4.034  17.722  0.00  0.00    +0.000 OA
ATOM     10  H   UNL     1       4.819   1.582  17.866  0.00  0.00    +0.000 HD
ATOM     11  H   UNL     1       3.064   1.575  17.765  0.00  0.00    +0.000 HD
ENDBRANCH   6   7
BRANCH   1  13
ATOM     12  C   UNL     1       6.221   4.212  14.507  0.00  0.00    +0.000 C 
ATOM     13  N   UNL     1       5.976   3.545  15.593  0.00  0.00    +0.000 NA
BRANCH  12  18
ATOM     14  C   UNL     1       3.352   3.200  10.795  0.00  0.00    +0.000 C 
ATOM     15  C   UNL     1       4.646   3.179  11.507  0.00  0.00    +0.000 A 
ATOM     16  C   UNL     1       5.870   2.610  11.233  0.00  0.00    +0.000 A 
ATOM     17  C   UNL     1       6.705   2.914  12.335  0.00  0.00    +0.000 A 
ATOM     18  C   UNL     1       5.945   3.659  13.213  0.00  0.00    +0.000 A 
ATOM     19  O   UNL     1       4.690   3.832  12.702  0.00  0.00    +0.000 OA
ENDBRANCH  12  18
ENDBRANCH   1  13
TORSDOF 3
ENDMDL
MODEL 8
REMARK VINA RESULT:      -6.6      1.727      2.684
REMARK  Name = 
REMARK  4 active torsions:
REMARK  status: ('A' for Active; 'I' for Inactive)
REMARK    1  A    between atoms: C_1  and  C_2
REMARK    2  A    between atoms: C_5  and  C_6
REMARK    3  A    between atoms: N_7  and  C_8
REMARK    4  A    between atoms: C_13  and  C_14
REMARK                            x       y       z     vdW  Elec       q    Type
REMARK                         _______ _______ _______ _____ _____    ______ ____
ROOT
ATOM      1  C   UNL     1       3.261   3.160  19.284  0.00  0.00    +0.000 A 
ATOM      2  C   UNL     1       3.578   2.478  20.478  0.00  0.00    +0.000 A 
ATOM      3  C   UNL     1       2.701   2.437  21.563  0.00  0.00    +0.000 A 
ATOM      4  C   UNL     1       1.495   3.118  21.496  0.00  0.00    +0.000 A 
ATOM      5  C   UNL     1       1.173   3.841  20.347  0.00  0.00    +0.000 A 
ATOM      6  C   UNL     1       2.042   3.873  19.237  0.00  0.00    +0.000 A 
ENDROOT
BRANCH   6   7
ATOM      7  C   UNL     1       1.578   4.694  18.075  0.00  0.00    +0.000 C 
ATOM      8  N   UNL     1       1.901   6.017  18.052  0.00  0.00    +0.000 N 
ATOM      9  O   UNL     1       0.918   4.208  17.162  0.00  0.00    +0.000 OA
ATOM     10  H   UNL     1       2.407   6.435  18.827  0.00  0.00    +0.000 HD
ATOM     11  H   UNL     1       1.567   6.587  17.290  0.00  0.00    +0.000 HD
ENDBRANCH   6   7
BRANCH   1  13
ATOM     12  C   UNL     1       4.867   4.264  18.010  0.00  0.00    +0.000 C 
ATOM     13  N   UNL     1       4.195   3.173  18.216  0.00  0.00    +0.000 NA
BRANCH  12  18
ATOM     14  C   UNL     1       6.027   3.775  13.379  0.00  0.00    +0.000 C 
ATOM     15  C   UNL     1       6.304   4.174  14.773  0.00  0.00    +0.000 A 
ATOM     16  C   UNL     1       7.415   4.678  15.413  0.00  0.00    +0.000 A 
ATOM     17  C   UNL     1       7.060   4.815  16.777  0.00  0.00    +0.000 A 
ATOM     18  C   UNL     1       5.750   4.397  16.889  0.00  0.00    +0.000 A 
ATOM     19  O   UNL     1       5.283   4.016  15.662  0.00  0.00    +0.000 OA
ENDBRANCH  12  18
ENDBRANCH   1  13
TORSDOF 3
ENDMDL
MODEL 9
REMARK VINA RESULT:      -6.6      1.511      1.954
REMARK  Name = 
REMARK  4 active torsions:
REMARK  status: ('A' for Active; 'I' for Inactive)
REMARK    1  A    between atoms: C_1  and  C_2
REMARK    2  A    between atoms: C_5  and  C_6
REMARK    3  A    between atoms: N_7  and  C_8
REMARK    4  A    between atoms: C_13  and  C_14
REMARK                            x       y       z     vdW  Elec       q    Type
REMARK                         _______ _______ _______ _____ _____    ______ ____
ROOT
ATOM      1  C   UNL     1       4.057   4.713  18.244  0.00  0.00    +0.000 A 
ATOM      2  C   UNL     1       3.587   6.040  18.325  0.00  0.00    +0.000 A 
ATOM      3  C   UNL     1       2.751   6.469  19.357  0.00  0.00    +0.000 A 
ATOM      4  C   UNL     1       2.326   5.563  20.317  0.00  0.00    +0.000 A 
ATOM      5  C   UNL     1       2.735   4.232  20.238  0.00  0.00    +0.000 A 
ATOM      6  C   UNL     1       3.596   3.791  19.212  0.00  0.00    +0.000 A 
ENDROOT
BRANCH   6   7
ATOM      7  C   UNL     1       3.948   2.337  19.240  0.00  0.00    +0.000 C 
ATOM      8  N   UNL     1       4.976   1.940  20.041  0.00  0.00    +0.000 N 
ATOM      9  O   UNL     1       3.344   1.512  18.563  0.00  0.00    +0.000 OA
ATOM     10  H   UNL     1       5.510   2.623  20.569  0.00  0.00    +0.000 HD
ATOM     11  H   UNL     1       5.243   0.966  20.044  0.00  0.00    +0.000 HD
ENDBRANCH   6   7
BRANCH   1  13
ATOM     12  C   UNL     1       4.931   5.099  16.121  0.00  0.00    +0.000 C 
ATOM     13  N   UNL     1       4.900   4.333  17.168  0.00  0.00    +0.000 NA
BRANCH  12  18
ATOM     14  C   UNL     1       8.403   5.725  12.868  0.00  0.00    +0.000 C 
ATOM     15  C   UNL     1       7.249   5.006  13.444  0.00  0.00    +0.000 A 
ATOM     16  C   UNL     1       6.521   3.907  13.046  0.00  0.00    +0.000 A 
ATOM     17  C   UNL     1       5.500   3.735  14.011  0.00  0.00    +0.000 A 
ATOM     18  C   UNL     1       5.671   4.733  14.949  0.00  0.00    +0.000 A 
ATOM     19  O   UNL     1       6.747   5.503  14.609  0.00  0.00    +0.000 OA
ENDBRANCH  12  18
ENDBRANCH   1  13
TORSDOF 3
ENDMDL
