MODEL 1
REMARK VINA RESULT:      -6.9      0.000      0.000
REMARK  Name = 
REMARK  8 active torsions:
REMARK  status: ('A' for Active; 'I' for Inactive)
REMARK    1  A    between atoms: N_10  and  C_11
REMARK    2  A    between atoms: C_11  and  C_12
REMARK    3  A    between atoms: C_12  and  C_13
REMARK    4  A    between atoms: C_12  and  O_15
REMARK    5  A    between atoms: O_15  and  C_16
REMARK    6  A    between atoms: C_16  and  P_17
REMARK    7  A    between atoms: P_17  and  O_19
REMARK    8  A    between atoms: P_17  and  O_20
REMARK                            x       y       z     vdW  Elec       q    Type
REMARK                         _______ _______ _______ _____ _____    ______ ____
ROOT
ATOM      1  C   UNL     1       4.632   4.926  16.517  0.00  0.00    +0.000 C 
ENDROOT
BRANCH   1  11
ATOM      2  O   UNL     1       2.058   3.697  21.738  0.00  0.00    +0.000 OA
ATOM      3  C   UNL     1       2.368   4.431  20.805  0.00  0.00    +0.000 A 
ATOM      4  N   UNL     1       2.109   5.795  20.824  0.00  0.00    +0.000 N 
ATOM      5  C   UNL     1       2.453   6.660  19.798  0.00  0.00    +0.000 A 
ATOM      6  N   UNL     1       3.073   6.323  18.705  0.00  0.00    +0.000 NA
ATOM      7  C   UNL     1       3.341   4.994  18.659  0.00  0.00    +0.000 A 
ATOM      8  C   UNL     1       3.041   4.019  19.589  0.00  0.00    +0.000 A 
ATOM      9  N   UNL     1       3.466   2.780  19.176  0.00  0.00    +0.000 NA
ATOM     10  C   UNL     1       4.037   3.001  18.012  0.00  0.00    +0.000 A 
ATOM     11  N   UNL     1       4.015   4.332  17.677  0.00  0.00    +0.000 N 
ATOM     12  H   UNL     1       1.649   6.136  21.653  0.00  0.00    +0.000 HD
ENDBRANCH   1  11
BRANCH   1  13
ATOM     13  C   UNL     1       5.831   4.123  15.980  0.00  0.00    +0.000 C 
BRANCH  13  14
ATOM     14  C   UNL     1       5.918   4.185  14.454  0.00  0.00    +0.000 C 
ATOM     15  F   UNL     1       7.122   4.714  14.097  0.00  0.00    +0.000 F 
ENDBRANCH  13  14
BRANCH  13  16
ATOM     16  O   UNL     1       7.077   4.632  16.511  0.00  0.00    +0.000 OA
BRANCH  16  17
ATOM     17  C   UNL     1       6.853   5.821  17.263  0.00  0.00    +0.000 C 
BRANCH  17  18
ATOM     18  P   UNL     1       7.432   5.662  18.991  0.00  0.00    +0.000 P 
ATOM     19  O   UNL     1       8.360   4.500  18.616  0.00  0.00    +0.000 OA
BRANCH  18  20
ATOM     20  O   UNL     1       8.385   6.989  18.844  0.00  0.00    +0.000 OA
ATOM     21  H   UNL     1       8.500   7.229  17.905  0.00  0.00    +0.000 HD
ENDBRANCH  18  20
BRANCH  18  22
ATOM     22  O   UNL     1       7.980   5.511  20.625  0.00  0.00    +0.000 OA
ATOM     23  H   UNL     1       7.720   4.607  20.893  0.00  0.00    +0.000 HD
ENDBRANCH  18  22
ENDBRANCH  17  18
ENDBRANCH  16  17
ENDBRANCH  13  16
ENDBRANCH   1  13
TORSDOF 8
ENDMDL
MODEL 2
REMARK VINA RESULT:      -6.8      2.671      3.915
REMARK  Name = 
REMARK  8 active torsions:
REMARK  status: ('A' for Active; 'I' for Inactive)
REMARK    1  A    between atoms: N_10  and  C_11
REMARK    2  A    between atoms: C_11  and  C_12
REMARK    3  A    between atoms: C_12  and  C_13
REMARK    4  A    between atoms: C_12  and  O_15
REMARK    5  A    between atoms: O_15  and  C_16
REMARK    6  A    between atoms: C_16  and  P_17
REMARK    7  A    between atoms: P_17  and  O_19
REMARK    8  A    between atoms: P_17  and  O_20
REMARK                            x       y       z     vdW  Elec       q    Type
REMARK                         _______ _______ _______ _____ _____    ______ ____
ROOT
ATOM      1  C   UNL     1       5.298   5.316  19.349  0.00  0.00    +0.000 C 
ENDROOT
BRANCH   1  11
ATOM      2  O   UNL     1       0.118   2.411  19.001  0.00  0.00    +0.000 OA
ATOM      3  C   UNL     1       1.340   2.500  18.942  0.00  0.00    +0.000 A 
ATOM      4  N   UNL     1       2.135   1.448  18.510  0.00  0.00    +0.000 N 
ATOM      5  C   UNL     1       3.516   1.511  18.417  0.00  0.00    +0.000 A 
ATOM      6  N   UNL     1       4.242   2.554  18.697  0.00  0.00    +0.000 NA
ATOM      7  C   UNL     1       3.491   3.601  19.120  0.00  0.00    +0.000 A 
ATOM      8  C   UNL     1       2.122   3.674  19.282  0.00  0.00    +0.000 A 
ATOM      9  N   UNL     1       1.733   4.906  19.745  0.00  0.00    +0.000 NA
ATOM     10  C   UNL     1       2.854   5.585  19.849  0.00  0.00    +0.000 A 
ATOM     11  N   UNL     1       3.939   4.846  19.447  0.00  0.00    +0.000 N 
ATOM     12  H   UNL     1       1.639   0.609  18.252  0.00  0.00    +0.000 HD
ENDBRANCH   1  11
BRANCH   1  13
ATOM     13  C   UNL     1       5.590   6.083  18.046  0.00  0.00    +0.000 C 
BRANCH  13  14
ATOM     14  C   UNL     1       7.091   6.220  17.791  0.00  0.00    +0.000 C 
ATOM     15  F   UNL     1       7.755   5.271  18.508  0.00  0.00    +0.000 F 
ENDBRANCH  13  14
BRANCH  13  16
ATOM     16  O   UNL     1       5.011   5.407  16.904  0.00  0.00    +0.000 OA
BRANCH  16  17
ATOM     17  C   UNL     1       5.568   5.904  15.692  0.00  0.00    +0.000 C 
BRANCH  17  18
ATOM     18  P   UNL     1       6.028   4.558  14.543  0.00  0.00    +0.000 P 
ATOM     19  O   UNL     1       7.466   5.080  14.441  0.00  0.00    +0.000 OA
BRANCH  18  20
ATOM     20  O   UNL     1       6.090   3.469  15.768  0.00  0.00    +0.000 OA
ATOM     21  H   UNL     1       5.689   2.622  15.497  0.00  0.00    +0.000 HD
ENDBRANCH  18  20
BRANCH  18  22
ATOM     22  O   UNL     1       6.463   3.284  13.456  0.00  0.00    +0.000 OA
ATOM     23  H   UNL     1       6.426   3.691  12.566  0.00  0.00    +0.000 HD
ENDBRANCH  18  22
ENDBRANCH  17  18
ENDBRANCH  16  17
ENDBRANCH  13  16
ENDBRANCH   1  13
TORSDOF 8
ENDMDL
MODEL 3
REMARK VINA RESULT:      -6.8      1.024      1.177
REMARK  Name = 
REMARK  8 active torsions:
REMARK  status: ('A' for Active; 'I' for Inactive)
REMARK    1  A    between atoms: N_10  and  C_11
REMARK    2  A    between atoms: C_11  and  C_12
REMARK    3  A    between atoms: C_12  and  C_13
REMARK    4  A    between atoms: C_12  and  O_15
REMARK    5  A    between atoms: O_15  and  C_16
REMARK    6  A    between atoms: C_16  and  P_17
REMARK    7  A    between atoms: P_17  and  O_19
REMARK    8  A    between atoms: P_17  and  O_20
REMARK                            x       y       z     vdW  Elec       q    Type
REMARK                         _______ _______ _______ _____ _____    ______ ____
ROOT
ATOM      1  C   UNL     1       4.746   5.623  16.597  0.00  0.00    +0.000 C 
ENDROOT
BRANCH   1  11
ATOM      2  O   UNL     1       0.880   3.413  20.542  0.00  0.00    +0.000 OA
ATOM      3  C   UNL     1       1.539   4.309  20.025  0.00  0.00    +0.000 A 
ATOM      4  N   UNL     1       1.585   5.591  20.556  0.00  0.00    +0.000 N 
ATOM      5  C   UNL     1       2.325   6.627  20.011  0.00  0.00    +0.000 A 
ATOM      6  N   UNL     1       3.083   6.537  18.957  0.00  0.00    +0.000 NA
ATOM      7  C   UNL     1       3.061   5.293  18.417  0.00  0.00    +0.000 A 
ATOM      8  C   UNL     1       2.359   4.180  18.835  0.00  0.00    +0.000 A 
ATOM      9  N   UNL     1       2.586   3.102  18.016  0.00  0.00    +0.000 NA
ATOM     10  C   UNL     1       3.433   3.549  17.115  0.00  0.00    +0.000 A 
ATOM     11  N   UNL     1       3.775   4.858  17.340  0.00  0.00    +0.000 N 
ATOM     12  H   UNL     1       1.038   5.732  21.391  0.00  0.00    +0.000 HD
ENDBRANCH   1  11
BRANCH   1  13
ATOM     13  C   UNL     1       5.928   4.781  16.084  0.00  0.00    +0.000 C 
BRANCH  13  14
ATOM     14  C   UNL     1       5.950   4.702  14.557  0.00  0.00    +0.000 C 
ATOM     15  F   UNL     1       6.350   3.456  14.179  0.00  0.00    +0.000 F 
ENDBRANCH  13  14
BRANCH  13  16
ATOM     16  O   UNL     1       7.192   5.343  16.513  0.00  0.00    +0.000 OA
BRANCH  16  17
ATOM     17  C   UNL     1       6.986   6.325  17.522  0.00  0.00    +0.000 C 
BRANCH  17  18
ATOM     18  P   UNL     1       7.643   5.793  19.144  0.00  0.00    +0.000 P 
ATOM     19  O   UNL     1       6.246   5.378  19.620  0.00  0.00    +0.000 OA
BRANCH  18  20
ATOM     20  O   UNL     1       8.262   4.419  18.496  0.00  0.00    +0.000 OA
ATOM     21  H   UNL     1       7.576   3.930  18.005  0.00  0.00    +0.000 HD
ENDBRANCH  18  20
BRANCH  18  22
ATOM     22  O   UNL     1       8.264   5.290  20.678  0.00  0.00    +0.000 OA
ATOM     23  H   UNL     1       8.710   4.437  20.500  0.00  0.00    +0.000 HD
ENDBRANCH  18  22
ENDBRANCH  17  18
ENDBRANCH  16  17
ENDBRANCH  13  16
ENDBRANCH   1  13
TORSDOF 8
ENDMDL
MODEL 4
REMARK VINA RESULT:      -6.7      1.003      1.201
REMARK  Name = 
REMARK  8 active torsions:
REMARK  status: ('A' for Active; 'I' for Inactive)
REMARK    1  A    between atoms: N_10  and  C_11
REMARK    2  A    between atoms: C_11  and  C_12
REMARK    3  A    between atoms: C_12  and  C_13
REMARK    4  A    between atoms: C_12  and  O_15
REMARK    5  A    between atoms: O_15  and  C_16
REMARK    6  A    between atoms: C_16  and  P_17
REMARK    7  A    between atoms: P_17  and  O_19
REMARK    8  A    between atoms: P_17  and  O_20
REMARK                            x       y       z     vdW  Elec       q    Type
REMARK                         _______ _______ _______ _____ _____    ______ ____
ROOT
ATOM      1  C   UNL     1       3.819   3.883  16.503  0.00  0.00    +0.000 C 
ENDROOT
BRANCH   1  11
ATOM      2  O   UNL     1       2.243   3.281  22.208  0.00  0.00    +0.000 OA
ATOM      3  C   UNL     1       2.369   3.900  21.156  0.00  0.00    +0.000 A 
ATOM      4  N   UNL     1       2.095   5.258  21.064  0.00  0.00    +0.000 N 
ATOM      5  C   UNL     1       2.236   5.997  19.900  0.00  0.00    +0.000 A 
ATOM      6  N   UNL     1       2.655   5.532  18.760  0.00  0.00    +0.000 NA
ATOM      7  C   UNL     1       2.933   4.206  18.820  0.00  0.00    +0.000 A 
ATOM      8  C   UNL     1       2.819   3.346  19.894  0.00  0.00    +0.000 A 
ATOM      9  N   UNL     1       3.183   2.066  19.557  0.00  0.00    +0.000 NA
ATOM     10  C   UNL     1       3.532   2.148  18.292  0.00  0.00    +0.000 A 
ATOM     11  N   UNL     1       3.430   3.430  17.815  0.00  0.00    +0.000 N 
ATOM     12  H   UNL     1       1.787   5.696  21.918  0.00  0.00    +0.000 HD
ENDBRANCH   1  11
BRANCH   1  13
ATOM     13  C   UNL     1       5.338   4.075  16.344  0.00  0.00    +0.000 C 
BRANCH  13  14
ATOM     14  C   UNL     1       5.716   4.463  14.915  0.00  0.00    +0.000 C 
ATOM     15  F   UNL     1       6.231   3.375  14.277  0.00  0.00    +0.000 F 
ENDBRANCH  13  14
BRANCH  13  16
ATOM     16  O   UNL     1       5.825   5.115  17.225  0.00  0.00    +0.000 OA
BRANCH  16  17
ATOM     17  C   UNL     1       7.240   5.034  17.363  0.00  0.00    +0.000 C 
BRANCH  17  18
ATOM     18  P   UNL     1       7.773   5.213  19.104  0.00  0.00    +0.000 P 
ATOM     19  O   UNL     1       8.108   6.694  18.892  0.00  0.00    +0.000 OA
BRANCH  18  20
ATOM     20  O   UNL     1       6.218   5.233  19.628  0.00  0.00    +0.000 OA
ATOM     21  H   UNL     1       6.121   5.826  20.396  0.00  0.00    +0.000 HD
ENDBRANCH  18  20
BRANCH  18  22
ATOM     22  O   UNL     1       8.277   5.382  20.750  0.00  0.00    +0.000 OA
ATOM     23  H   UNL     1       8.365   6.348  20.886  0.00  0.00    +0.000 HD
ENDBRANCH  18  22
ENDBRANCH  17  18
ENDBRANCH  16  17
ENDBRANCH  13  16
ENDBRANCH   1  13
TORSDOF 8
ENDMDL
MODEL 5
REMARK VINA RESULT:      -6.6      2.410      3.936
REMARK  Name = 
REMARK  8 active torsions:
REMARK  status: ('A' for Active; 'I' for Inactive)
REMARK    1  A    between atoms: N_10  and  C_11
REMARK    2  A    between atoms: C_11  and  C_12
REMARK    3  A    between atoms: C_12  and  C_13
REMARK    4  A    between atoms: C_12  and  O_15
REMARK    5  A    between atoms: O_15  and  C_16
REMARK    6  A    between atoms: C_16  and  P_17
REMARK    7  A    between atoms: P_17  and  O_19
REMARK    8  A    between atoms: P_17  and  O_20
REMARK                            x       y       z     vdW  Elec       q    Type
REMARK                         _______ _______ _______ _____ _____    ______ ____
ROOT
ATOM      1  C   UNL     1       5.359   5.255  19.412  0.00  0.00    +0.000 C 
ENDROOT
BRANCH   1  11
ATOM      2  O   UNL     1       0.153   2.505  18.559  0.00  0.00    +0.000 OA
ATOM      3  C   UNL     1       1.371   2.544  18.704  0.00  0.00    +0.000 A 
ATOM      4  N   UNL     1       2.166   1.414  18.570  0.00  0.00    +0.000 N 
ATOM      5  C   UNL     1       3.543   1.417  18.714  0.00  0.00    +0.000 A 
ATOM      6  N   UNL     1       4.271   2.464  18.971  0.00  0.00    +0.000 NA
ATOM      7  C   UNL     1       3.521   3.586  19.106  0.00  0.00    +0.000 A 
ATOM      8  C   UNL     1       2.151   3.727  19.012  0.00  0.00    +0.000 A 
ATOM      9  N   UNL     1       1.761   5.026  19.225  0.00  0.00    +0.000 NA
ATOM     10  C   UNL     1       2.886   5.676  19.431  0.00  0.00    +0.000 A 
ATOM     11  N   UNL     1       3.978   4.850  19.333  0.00  0.00    +0.000 N 
ATOM     12  H   UNL     1       1.673   0.563  18.346  0.00  0.00    +0.000 HD
ENDBRANCH   1  11
BRANCH   1  13
ATOM     13  C   UNL     1       5.972   5.619  18.048  0.00  0.00    +0.000 C 
BRANCH  13  14
ATOM     14  C   UNL     1       7.238   6.463  18.200  0.00  0.00    +0.000 C 
ATOM     15  F   UNL     1       7.075   7.639  17.532  0.00  0.00    +0.000 F 
ENDBRANCH  13  14
BRANCH  13  16
ATOM     16  O   UNL     1       6.324   4.430  17.302  0.00  0.00    +0.000 OA
BRANCH  16  17
ATOM     17  C   UNL     1       5.572   4.354  16.095  0.00  0.00    +0.000 C 
BRANCH  17  18
ATOM     18  P   UNL     1       6.563   4.837  14.636  0.00  0.00    +0.000 P 
ATOM     19  O   UNL     1       7.872   4.654  15.412  0.00  0.00    +0.000 OA
BRANCH  18  20
ATOM     20  O   UNL     1       6.319   3.378  13.927  0.00  0.00    +0.000 OA
ATOM     21  H   UNL     1       6.952   2.720  14.267  0.00  0.00    +0.000 HD
ENDBRANCH  18  20
BRANCH  18  22
ATOM     22  O   UNL     1       7.500   5.294  13.255  0.00  0.00    +0.000 OA
ATOM     23  H   UNL     1       7.652   6.256  13.363  0.00  0.00    +0.000 HD
ENDBRANCH  18  22
ENDBRANCH  17  18
ENDBRANCH  16  17
ENDBRANCH  13  16
ENDBRANCH   1  13
TORSDOF 8
ENDMDL
MODEL 6
REMARK VINA RESULT:      -6.6      2.595      3.380
REMARK  Name = 
REMARK  8 active torsions:
REMARK  status: ('A' for Active; 'I' for Inactive)
REMARK    1  A    between atoms: N_10  and  C_11
REMARK    2  A    between atoms: C_11  and  C_12
REMARK    3  A    between atoms: C_12  and  C_13
REMARK    4  A    between atoms: C_12  and  O_15
REMARK    5  A    between atoms: O_15  and  C_16
REMARK    6  A    between atoms: C_16  and  P_17
REMARK    7  A    between atoms: P_17  and  O_19
REMARK    8  A    between atoms: P_17  and  O_20
REMARK                            x       y       z     vdW  Elec       q    Type
REMARK                         _______ _______ _______ _____ _____    ______ ____
ROOT
ATOM      1  C   UNL     1       5.614   4.325  19.072  0.00  0.00    +0.000 C 
ENDROOT
BRANCH   1  11
ATOM      2  O   UNL     1       0.074   2.168  18.834  0.00  0.00    +0.000 OA
ATOM      3  C   UNL     1       0.947   2.927  19.242  0.00  0.00    +0.000 A 
ATOM      4  N   UNL     1       0.718   3.825  20.276  0.00  0.00    +0.000 N 
ATOM      5  C   UNL     1       1.678   4.690  20.775  0.00  0.00    +0.000 A 
ATOM      6  N   UNL     1       2.910   4.764  20.363  0.00  0.00    +0.000 NA
ATOM      7  C   UNL     1       3.165   3.896  19.353  0.00  0.00    +0.000 A 
ATOM      8  C   UNL     1       2.308   3.000  18.746  0.00  0.00    +0.000 A 
ATOM      9  N   UNL     1       2.935   2.300  17.746  0.00  0.00    +0.000 NA
ATOM     10  C   UNL     1       4.169   2.754  17.753  0.00  0.00    +0.000 A 
ATOM     11  N   UNL     1       4.362   3.695  18.733  0.00  0.00    +0.000 N 
ATOM     12  H   UNL     1      -0.212   3.809  20.664  0.00  0.00    +0.000 HD
ENDBRANCH   1  11
BRANCH   1  13
ATOM     13  C   UNL     1       5.759   5.749  18.505  0.00  0.00    +0.000 C 
BRANCH  13  14
ATOM     14  C   UNL     1       7.218   6.204  18.480  0.00  0.00    +0.000 C 
ATOM     15  F   UNL     1       8.020   5.154  18.809  0.00  0.00    +0.000 F 
ENDBRANCH  13  14
BRANCH  13  16
ATOM     16  O   UNL     1       5.252   5.823  17.152  0.00  0.00    +0.000 OA
BRANCH  16  17
ATOM     17  C   UNL     1       6.318   6.005  16.226  0.00  0.00    +0.000 C 
BRANCH  17  18
ATOM     18  P   UNL     1       6.370   4.679  14.967  0.00  0.00    +0.000 P 
ATOM     19  O   UNL     1       7.548   5.349  14.249  0.00  0.00    +0.000 OA
BRANCH  18  20
ATOM     20  O   UNL     1       7.089   3.644  16.018  0.00  0.00    +0.000 OA
ATOM     21  H   UNL     1       7.456   2.873  15.546  0.00  0.00    +0.000 HD
ENDBRANCH  18  20
BRANCH  18  22
ATOM     22  O   UNL     1       6.420   3.424  13.777  0.00  0.00    +0.000 OA
ATOM     23  H   UNL     1       7.295   3.002  13.895  0.00  0.00    +0.000 HD
ENDBRANCH  18  22
ENDBRANCH  17  18
ENDBRANCH  16  17
ENDBRANCH  13  16
ENDBRANCH   1  13
TORSDOF 8
ENDMDL
MODEL 7
REMARK VINA RESULT:      -6.6      2.487      3.629
REMARK  Name = 
REMARK  8 active torsions:
REMARK  status: ('A' for Active; 'I' for Inactive)
REMARK    1  A    between atoms: N_10  and  C_11
REMARK    2  A    between atoms: C_11  and  C_12
REMARK    3  A    between atoms: C_12  and  C_13
REMARK    4  A    between atoms: C_12  and  O_15
REMARK    5  A    between atoms: O_15  and  C_16
REMARK    6  A    between atoms: C_16  and  P_17
REMARK    7  A    between atoms: P_17  and  O_19
REMARK    8  A    between atoms: P_17  and  O_20
REMARK                            x       y       z     vdW  Elec       q    Type
REMARK                         _______ _______ _______ _____ _____    ______ ____
ROOT
ATOM      1  C   UNL     1       4.878   5.669  19.250  0.00  0.00    +0.000 C 
ENDROOT
BRANCH   1  11
ATOM      2  O   UNL     1       0.102   2.125  19.086  0.00  0.00    +0.000 OA
ATOM      3  C   UNL     1       1.280   2.402  18.881  0.00  0.00    +0.000 A 
ATOM      4  N   UNL     1       2.121   1.559  18.168  0.00  0.00    +0.000 N 
ATOM      5  C   UNL     1       3.451   1.839  17.903  0.00  0.00    +0.000 A 
ATOM      6  N   UNL     1       4.079   2.920  18.265  0.00  0.00    +0.000 NA
ATOM      7  C   UNL     1       3.281   3.765  18.963  0.00  0.00    +0.000 A 
ATOM      8  C   UNL     1       1.956   3.609  19.317  0.00  0.00    +0.000 A 
ATOM      9  N   UNL     1       1.496   4.681  20.039  0.00  0.00    +0.000 NA
ATOM     10  C   UNL     1       2.528   5.493  20.111  0.00  0.00    +0.000 A 
ATOM     11  N   UNL     1       3.619   4.995  19.444  0.00  0.00    +0.000 N 
ATOM     12  H   UNL     1       1.697   0.708  17.833  0.00  0.00    +0.000 HD
ENDBRANCH   1  11
BRANCH   1  13
ATOM     13  C   UNL     1       5.096   6.160  17.807  0.00  0.00    +0.000 C 
BRANCH  13  14
ATOM     14  C   UNL     1       3.866   6.887  17.262  0.00  0.00    +0.000 C 
ATOM     15  F   UNL     1       3.761   8.103  17.868  0.00  0.00    +0.000 F 
ENDBRANCH  13  14
BRANCH  13  16
ATOM     16  O   UNL     1       6.215   7.075  17.733  0.00  0.00    +0.000 OA
BRANCH  16  17
ATOM     17  C   UNL     1       7.310   6.473  17.050  0.00  0.00    +0.000 C 
BRANCH  17  18
ATOM     18  P   UNL     1       6.857   4.865  16.306  0.00  0.00    +0.000 P 
ATOM     19  O   UNL     1       7.562   5.227  14.993  0.00  0.00    +0.000 OA
BRANCH  18  20
ATOM     20  O   UNL     1       8.013   4.085  17.171  0.00  0.00    +0.000 OA
ATOM     21  H   UNL     1       8.780   3.873  16.608  0.00  0.00    +0.000 HD
ENDBRANCH  18  20
BRANCH  18  22
ATOM     22  O   UNL     1       6.429   3.343  15.603  0.00  0.00    +0.000 OA
ATOM     23  H   UNL     1       5.474   3.240  15.793  0.00  0.00    +0.000 HD
ENDBRANCH  18  22
ENDBRANCH  17  18
ENDBRANCH  16  17
ENDBRANCH  13  16
ENDBRANCH   1  13
TORSDOF 8
ENDMDL
MODEL 8
REMARK VINA RESULT:      -6.6      2.354      3.829
REMARK  Name = 
REMARK  8 active torsions:
REMARK  status: ('A' for Active; 'I' for Inactive)
REMARK    1  A    between atoms: N_10  and  C_11
REMARK    2  A    between atoms: C_11  and  C_12
REMARK    3  A    between atoms: C_12  and  C_13
REMARK    4  A    between atoms: C_12  and  O_15
REMARK    5  A    between atoms: O_15  and  C_16
REMARK    6  A    between atoms: C_16  and  P_17
REMARK    7  A    between atoms: P_17  and  O_19
REMARK    8  A    between atoms: P_17  and  O_20
REMARK                            x       y       z     vdW  Elec       q    Type
REMARK                         _______ _______ _______ _____ _____    ______ ____
ROOT
ATOM      1  C   UNL     1       6.225   5.371  19.431  0.00  0.00    +0.000 C 
ENDROOT
BRANCH   1  11
ATOM      2  O   UNL     1       0.924   3.071  18.014  0.00  0.00    +0.000 OA
ATOM      3  C   UNL     1       2.072   3.017  18.442  0.00  0.00    +0.000 A 
ATOM      4  N   UNL     1       2.674   1.815  18.789  0.00  0.00    +0.000 N 
ATOM      5  C   UNL     1       3.971   1.709  19.264  0.00  0.00    +0.000 A 
ATOM      6  N   UNL     1       4.795   2.702  19.429  0.00  0.00    +0.000 NA
ATOM      7  C   UNL     1       4.235   3.891  19.097  0.00  0.00    +0.000 A 
ATOM      8  C   UNL     1       2.960   4.148  18.635  0.00  0.00    +0.000 A 
ATOM      9  N   UNL     1       2.760   5.489  18.422  0.00  0.00    +0.000 NA
ATOM     10  C   UNL     1       3.911   6.045  18.734  0.00  0.00    +0.000 A 
ATOM     11  N   UNL     1       4.843   5.112  19.114  0.00  0.00    +0.000 N 
ATOM     12  H   UNL     1       2.102   0.994  18.665  0.00  0.00    +0.000 HD
ENDBRANCH   1  11
BRANCH   1  13
ATOM     13  C   UNL     1       7.061   5.815  18.217  0.00  0.00    +0.000 C 
BRANCH  13  14
ATOM     14  C   UNL     1       8.039   6.933  18.578  0.00  0.00    +0.000 C 
ATOM     15  F   UNL     1       8.049   7.858  17.578  0.00  0.00    +0.000 F 
ENDBRANCH  13  14
BRANCH  13  16
ATOM     16  O   UNL     1       7.833   4.712  17.686  0.00  0.00    +0.000 OA
BRANCH  16  17
ATOM     17  C   UNL     1       7.305   4.287  16.434  0.00  0.00    +0.000 C 
BRANCH  17  18
ATOM     18  P   UNL     1       6.192   5.537  15.697  0.00  0.00    +0.000 P 
ATOM     19  O   UNL     1       6.878   5.403  14.332  0.00  0.00    +0.000 OA
BRANCH  18  20
ATOM     20  O   UNL     1       4.955   4.461  15.622  0.00  0.00    +0.000 OA
ATOM     21  H   UNL     1       5.284   3.574  15.388  0.00  0.00    +0.000 HD
ENDBRANCH  18  20
BRANCH  18  22
ATOM     22  O   UNL     1       5.139   6.719  14.999  0.00  0.00    +0.000 OA
ATOM     23  H   UNL     1       5.046   6.449  14.063  0.00  0.00    +0.000 HD
ENDBRANCH  18  22
ENDBRANCH  17  18
ENDBRANCH  16  17
ENDBRANCH  13  16
ENDBRANCH   1  13
TORSDOF 8
ENDMDL
MODEL 9
REMARK VINA RESULT:      -6.5      2.042      2.370
REMARK  Name = 
REMARK  8 active torsions:
REMARK  status: ('A' for Active; 'I' for Inactive)
REMARK    1  A    between atoms: N_10  and  C_11
REMARK    2  A    between atoms: C_11  and  C_12
REMARK    3  A    between atoms: C_12  and  C_13
REMARK    4  A    between atoms: C_12  and  O_15
REMARK    5  A    between atoms: O_15  and  C_16
REMARK    6  A    between atoms: C_16  and  P_17
REMARK    7  A    between atoms: P_17  and  O_19
REMARK    8  A    between atoms: P_17  and  O_20
REMARK                            x       y       z     vdW  Elec       q    Type
REMARK                         _______ _______ _______ _____ _____    ______ ____
ROOT
ATOM      1  C   UNL     1       4.198   3.621  16.913  0.00  0.00    +0.000 C 
ENDROOT
BRANCH   1  11
ATOM      2  O   UNL     1       1.588   2.535  22.149  0.00  0.00    +0.000 OA
ATOM      3  C   UNL     1       1.595   2.732  20.938  0.00  0.00    +0.000 A 
ATOM      4  N   UNL     1       0.422   2.871  20.207  0.00  0.00    +0.000 N 
ATOM      5  C   UNL     1       0.386   3.106  18.843  0.00  0.00    +0.000 A 
ATOM      6  N   UNL     1       1.427   3.246  18.075  0.00  0.00    +0.000 NA
ATOM      7  C   UNL     1       2.589   3.117  18.762  0.00  0.00    +0.000 A 
ATOM      8  C   UNL     1       2.776   2.862  20.106  0.00  0.00    +0.000 A 
ATOM      9  N   UNL     1       4.108   2.788  20.425  0.00  0.00    +0.000 NA
ATOM     10  C   UNL     1       4.730   3.013  19.289  0.00  0.00    +0.000 A 
ATOM     11  N   UNL     1       3.851   3.252  18.263  0.00  0.00    +0.000 N 
ATOM     12  H   UNL     1      -0.430   2.798  20.740  0.00  0.00    +0.000 HD
ENDBRANCH   1  11
BRANCH   1  13
ATOM     13  C   UNL     1       4.680   5.077  16.780  0.00  0.00    +0.000 C 
BRANCH  13  14
ATOM     14  C   UNL     1       3.909   6.018  17.705  0.00  0.00    +0.000 C 
ATOM     15  F   UNL     1       3.678   7.193  17.055  0.00  0.00    +0.000 F 
ENDBRANCH  13  14
BRANCH  13  16
ATOM     16  O   UNL     1       6.085   5.191  17.110  0.00  0.00    +0.000 OA
BRANCH  16  17
ATOM     17  C   UNL     1       6.284   6.174  18.121  0.00  0.00    +0.000 C 
BRANCH  17  18
ATOM     18  P   UNL     1       7.547   5.660  19.340  0.00  0.00    +0.000 P 
ATOM     19  O   UNL     1       8.040   4.537  18.419  0.00  0.00    +0.000 OA
BRANCH  18  20
ATOM     20  O   UNL     1       8.507   6.934  18.954  0.00  0.00    +0.000 OA
ATOM     21  H   UNL     1       8.167   7.755  19.355  0.00  0.00    +0.000 HD
ENDBRANCH  18  20
BRANCH  18  22
ATOM     22  O   UNL     1       8.742   5.174  20.493  0.00  0.00    +0.000 OA
ATOM     23  H   UNL     1       8.462   4.282  20.783  0.00  0.00    +0.000 HD
ENDBRANCH  18  22
ENDBRANCH  17  18
ENDBRANCH  16  17
ENDBRANCH  13  16
ENDBRANCH   1  13
TORSDOF 8
ENDMDL
