MODEL 1
REMARK VINA RESULT:      -7.9      0.000      0.000
REMARK  Name = 
REMARK  5 active torsions:
REMARK  status: ('A' for Active; 'I' for Inactive)
REMARK    1  A    between atoms: C_1  and  S_2
REMARK    2  A    between atoms: S_2  and  C_3
REMARK    3  A    between atoms: N_16  and  C_17
REMARK    4  A    between atoms: C_20  and  O_21
REMARK    5  A    between atoms: O_21  and  C_22
REMARK                            x       y       z     vdW  Elec       q    Type
REMARK                         _______ _______ _______ _____ _____    ______ ____
ROOT
ATOM      1  C   UNL     1       2.026   5.756  20.539  0.00  0.00    +0.000 A 
ATOM      2  N   UNL     1       1.210   6.447  21.271  0.00  0.00    +0.000 NA
ATOM      3  C   UNL     1       0.978   7.710  20.857  0.00  0.00    +0.000 A 
ATOM      4  S   UNL     1      -0.088   8.727  21.701  0.00  0.00    +0.000 S 
ATOM      5  C   UNL     1       0.149  10.021  20.594  0.00  0.00    +0.000 A 
ATOM      6  C   UNL     1      -0.463  11.290  20.636  0.00  0.00    +0.000 A 
ATOM      7  C   UNL     1      -0.162  12.220  19.641  0.00  0.00    +0.000 A 
ATOM      8  C   UNL     1       0.726  11.903  18.625  0.00  0.00    +0.000 A 
ATOM      9  C   UNL     1       1.335  10.645  18.589  0.00  0.00    +0.000 A 
ATOM     10  C   UNL     1       1.055   9.674  19.585  0.00  0.00    +0.000 A 
ATOM     11  C   UNL     1       1.536   8.328  19.769  0.00  0.00    +0.000 A 
ATOM     12  C   UNL     1       2.475   7.571  18.964  0.00  0.00    +0.000 A 
ATOM     13  O   UNL     1       3.007   8.075  17.977  0.00  0.00    +0.000 OA
ATOM     14  N   UNL     1       2.670   6.241  19.388  0.00  0.00    +0.000 N 
ENDROOT
BRANCH  14  15
ATOM     15  C   UNL     1       3.478   5.428  18.536  0.00  0.00    +0.000 A 
ATOM     16  C   UNL     1       4.866   5.596  18.521  0.00  0.00    +0.000 A 
ATOM     17  C   UNL     1       5.647   4.917  17.585  0.00  0.00    +0.000 A 
ATOM     18  C   UNL     1       5.062   4.068  16.642  0.00  0.00    +0.000 A 
ATOM     19  C   UNL     1       3.677   3.913  16.638  0.00  0.00    +0.000 A 
ATOM     20  C   UNL     1       2.889   4.573  17.594  0.00  0.00    +0.000 A 
BRANCH  18  21
ATOM     21  O   UNL     1       5.948   3.524  15.765  0.00  0.00    +0.000 OA
BRANCH  21  22
ATOM     22  C   UNL     1       6.313   4.214  14.582  0.00  0.00    +0.000 C 
ATOM     23  F   UNL     1       7.508   4.834  14.650  0.00  0.00    +0.000 F 
ATOM     24  F   UNL     1       6.324   3.353  13.542  0.00  0.00    +0.000 F 
ATOM     25  F   UNL     1       5.374   5.157  14.336  0.00  0.00    +0.000 F 
ENDBRANCH  21  22
ENDBRANCH  18  21
ENDBRANCH  14  15
BRANCH   1  27
ATOM     26  C   UNL     1       0.949   3.215  20.506  0.00  0.00    +0.000 C 
ATOM     27  S   UNL     1       2.403   4.121  21.093  0.00  0.00    +0.000 S 
ENDBRANCH   1  27
TORSDOF 4
ENDMDL
MODEL 2
REMARK VINA RESULT:      -7.4      1.757      2.418
REMARK  Name = 
REMARK  5 active torsions:
REMARK  status: ('A' for Active; 'I' for Inactive)
REMARK    1  A    between atoms: C_1  and  S_2
REMARK    2  A    between atoms: S_2  and  C_3
REMARK    3  A    between atoms: N_16  and  C_17
REMARK    4  A    between atoms: C_20  and  O_21
REMARK    5  A    between atoms: O_21  and  C_22
REMARK                            x       y       z     vdW  Elec       q    Type
REMARK                         _______ _______ _______ _____ _____    ______ ____
ROOT
ATOM      1  C   UNL     1       3.866   4.741  19.085  0.00  0.00    +0.000 A 
ATOM      2  N   UNL     1       3.069   5.157  20.019  0.00  0.00    +0.000 NA
ATOM      3  C   UNL     1       2.534   6.381  19.829  0.00  0.00    +0.000 A 
ATOM      4  S   UNL     1       1.452   7.048  20.955  0.00  0.00    +0.000 S 
ATOM      5  C   UNL     1       1.246   8.479  20.024  0.00  0.00    +0.000 A 
ATOM      6  C   UNL     1       0.419   9.577  20.336  0.00  0.00    +0.000 A 
ATOM      7  C   UNL     1       0.363  10.655  19.453  0.00  0.00    +0.000 A 
ATOM      8  C   UNL     1       1.111  10.649  18.285  0.00  0.00    +0.000 A 
ATOM      9  C   UNL     1       1.934   9.560  17.981  0.00  0.00    +0.000 A 
ATOM     10  C   UNL     1       2.017   8.447  18.856  0.00  0.00    +0.000 A 
ATOM     11  C   UNL     1       2.771   7.222  18.773  0.00  0.00    +0.000 A 
ATOM     12  C   UNL     1       3.686   6.775  17.741  0.00  0.00    +0.000 A 
ATOM     13  O   UNL     1       3.937   7.488  16.771  0.00  0.00    +0.000 OA
ATOM     14  N   UNL     1       4.201   5.478  17.936  0.00  0.00    +0.000 N 
ENDROOT
BRANCH  14  15
ATOM     15  C   UNL     1       4.993   4.955  16.869  0.00  0.00    +0.000 A 
ATOM     16  C   UNL     1       6.322   5.363  16.720  0.00  0.00    +0.000 A 
ATOM     17  C   UNL     1       7.055   4.978  15.597  0.00  0.00    +0.000 A 
ATOM     18  C   UNL     1       6.478   4.191  14.597  0.00  0.00    +0.000 A 
ATOM     19  C   UNL     1       5.147   3.799  14.729  0.00  0.00    +0.000 A 
ATOM     20  C   UNL     1       4.412   4.161  15.870  0.00  0.00    +0.000 A 
BRANCH  18  21
ATOM     21  O   UNL     1       7.301   3.948  13.543  0.00  0.00    +0.000 OA
BRANCH  21  22
ATOM     22  C   UNL     1       6.777   3.793  12.235  0.00  0.00    +0.000 C 
ATOM     23  F   UNL     1       5.432   3.842  12.169  0.00  0.00    +0.000 F 
ATOM     24  F   UNL     1       7.292   4.745  11.427  0.00  0.00    +0.000 F 
ATOM     25  F   UNL     1       7.168   2.587  11.764  0.00  0.00    +0.000 F 
ENDBRANCH  21  22
ENDBRANCH  18  21
ENDBRANCH  14  15
BRANCH   1  27
ATOM     26  C   UNL     1       3.343   2.053  18.740  0.00  0.00    +0.000 C 
ATOM     27  S   UNL     1       4.637   3.171  19.338  0.00  0.00    +0.000 S 
ENDBRANCH   1  27
TORSDOF 4
ENDMDL
MODEL 3
REMARK VINA RESULT:      -7.3      0.739      1.286
REMARK  Name = 
REMARK  5 active torsions:
REMARK  status: ('A' for Active; 'I' for Inactive)
REMARK    1  A    between atoms: C_1  and  S_2
REMARK    2  A    between atoms: S_2  and  C_3
REMARK    3  A    between atoms: N_16  and  C_17
REMARK    4  A    between atoms: C_20  and  O_21
REMARK    5  A    between atoms: O_21  and  C_22
REMARK                            x       y       z     vdW  Elec       q    Type
REMARK                         _______ _______ _______ _____ _____    ______ ____
ROOT
ATOM      1  C   UNL     1       2.345   6.067  20.038  0.00  0.00    +0.000 A 
ATOM      2  N   UNL     1       1.560   6.611  20.914  0.00  0.00    +0.000 NA
ATOM      3  C   UNL     1       1.129   7.856  20.621  0.00  0.00    +0.000 A 
ATOM      4  S   UNL     1       0.074   8.686  21.662  0.00  0.00    +0.000 S 
ATOM      5  C   UNL     1       0.008  10.056  20.625  0.00  0.00    +0.000 A 
ATOM      6  C   UNL     1      -0.736  11.235  20.832  0.00  0.00    +0.000 A 
ATOM      7  C   UNL     1      -0.683  12.247  19.873  0.00  0.00    +0.000 A 
ATOM      8  C   UNL     1       0.093  12.097  18.733  0.00  0.00    +0.000 A 
ATOM      9  C   UNL     1       0.834  10.928  18.534  0.00  0.00    +0.000 A 
ATOM     10  C   UNL     1       0.805   9.879  19.488  0.00  0.00    +0.000 A 
ATOM     11  C   UNL     1       1.460   8.596  19.516  0.00  0.00    +0.000 A 
ATOM     12  C   UNL     1       2.364   8.005  18.548  0.00  0.00    +0.000 A 
ATOM     13  O   UNL     1       2.696   8.623  17.539  0.00  0.00    +0.000 OA
ATOM     14  N   UNL     1       2.768   6.689  18.851  0.00  0.00    +0.000 N 
ENDROOT
BRANCH  14  15
ATOM     15  C   UNL     1       3.543   6.029  17.850  0.00  0.00    +0.000 A 
ATOM     16  C   UNL     1       3.180   4.750  17.416  0.00  0.00    +0.000 A 
ATOM     17  C   UNL     1       4.015   4.036  16.555  0.00  0.00    +0.000 A 
ATOM     18  C   UNL     1       5.228   4.575  16.119  0.00  0.00    +0.000 A 
ATOM     19  C   UNL     1       5.605   5.841  16.565  0.00  0.00    +0.000 A 
ATOM     20  C   UNL     1       4.758   6.574  17.411  0.00  0.00    +0.000 A 
BRANCH  18  21
ATOM     21  O   UNL     1       5.952   3.737  15.330  0.00  0.00    +0.000 OA
BRANCH  21  22
ATOM     22  C   UNL     1       6.080   3.979  13.940  0.00  0.00    +0.000 C 
ATOM     23  F   UNL     1       6.476   2.906  13.226  0.00  0.00    +0.000 F 
ATOM     24  F   UNL     1       4.904   4.424  13.448  0.00  0.00    +0.000 F 
ATOM     25  F   UNL     1       7.003   4.952  13.765  0.00  0.00    +0.000 F 
ENDBRANCH  21  22
ENDBRANCH  18  21
ENDBRANCH  14  15
BRANCH   1  27
ATOM     26  C   UNL     1       1.462   3.596  20.893  0.00  0.00    +0.000 C 
ATOM     27  S   UNL     1       2.981   4.465  20.426  0.00  0.00    +0.000 S 
ENDBRANCH   1  27
TORSDOF 4
ENDMDL
MODEL 4
REMARK VINA RESULT:      -7.1      1.489      2.101
REMARK  Name = 
REMARK  5 active torsions:
REMARK  status: ('A' for Active; 'I' for Inactive)
REMARK    1  A    between atoms: C_1  and  S_2
REMARK    2  A    between atoms: S_2  and  C_3
REMARK    3  A    between atoms: N_16  and  C_17
REMARK    4  A    between atoms: C_20  and  O_21
REMARK    5  A    between atoms: O_21  and  C_22
REMARK                            x       y       z     vdW  Elec       q    Type
REMARK                         _______ _______ _______ _____ _____    ______ ____
ROOT
ATOM      1  C   UNL     1       3.568   5.338  19.251  0.00  0.00    +0.000 A 
ATOM      2  N   UNL     1       2.854   5.752  20.250  0.00  0.00    +0.000 NA
ATOM      3  C   UNL     1       2.234   6.938  20.074  0.00  0.00    +0.000 A 
ATOM      4  S   UNL     1       1.242   7.595  21.286  0.00  0.00    +0.000 S 
ATOM      5  C   UNL     1       0.859   8.973  20.331  0.00  0.00    +0.000 A 
ATOM      6  C   UNL     1       0.010  10.039  20.690  0.00  0.00    +0.000 A 
ATOM      7  C   UNL     1      -0.200  11.074  19.780  0.00  0.00    +0.000 A 
ATOM      8  C   UNL     1       0.418  11.057  18.538  0.00  0.00    +0.000 A 
ATOM      9  C   UNL     1       1.263   9.999  18.187  0.00  0.00    +0.000 A 
ATOM     10  C   UNL     1       1.501   8.930  19.088  0.00  0.00    +0.000 A 
ATOM     11  C   UNL     1       2.309   7.743  18.969  0.00  0.00    +0.000 A 
ATOM     12  C   UNL     1       3.132   7.301  17.860  0.00  0.00    +0.000 A 
ATOM     13  O   UNL     1       3.238   7.983  16.843  0.00  0.00    +0.000 OA
ATOM     14  N   UNL     1       3.737   6.041  18.046  0.00  0.00    +0.000 N 
ENDROOT
BRANCH  14  15
ATOM     15  C   UNL     1       4.438   5.514  16.919  0.00  0.00    +0.000 A 
ATOM     16  C   UNL     1       4.104   4.253  16.416  0.00  0.00    +0.000 A 
ATOM     17  C   UNL     1       4.881   3.665  15.417  0.00  0.00    +0.000 A 
ATOM     18  C   UNL     1       6.009   4.314  14.909  0.00  0.00    +0.000 A 
ATOM     19  C   UNL     1       6.360   5.562  15.422  0.00  0.00    +0.000 A 
ATOM     20  C   UNL     1       5.567   6.170  16.408  0.00  0.00    +0.000 A 
BRANCH  18  21
ATOM     21  O   UNL     1       6.692   3.589  13.983  0.00  0.00    +0.000 OA
BRANCH  21  22
ATOM     22  C   UNL     1       6.305   3.605  12.620  0.00  0.00    +0.000 C 
ATOM     23  F   UNL     1       6.467   2.427  11.985  0.00  0.00    +0.000 F 
ATOM     24  F   UNL     1       5.012   3.982  12.522  0.00  0.00    +0.000 F 
ATOM     25  F   UNL     1       7.060   4.526  11.978  0.00  0.00    +0.000 F 
ENDBRANCH  21  22
ENDBRANCH  18  21
ENDBRANCH  14  15
BRANCH   1  27
ATOM     26  C   UNL     1       3.080   2.671  19.765  0.00  0.00    +0.000 C 
ATOM     27  S   UNL     1       4.448   3.822  19.476  0.00  0.00    +0.000 S 
ENDBRANCH   1  27
TORSDOF 4
ENDMDL
MODEL 5
REMARK VINA RESULT:      -7.1      5.124      6.884
REMARK  Name = 
REMARK  5 active torsions:
REMARK  status: ('A' for Active; 'I' for Inactive)
REMARK    1  A    between atoms: C_1  and  S_2
REMARK    2  A    between atoms: S_2  and  C_3
REMARK    3  A    between atoms: N_16  and  C_17
REMARK    4  A    between atoms: C_20  and  O_21
REMARK    5  A    between atoms: O_21  and  C_22
REMARK                            x       y       z     vdW  Elec       q    Type
REMARK                         _______ _______ _______ _____ _____    ______ ____
ROOT
ATOM      1  C   UNL     1       5.868   4.638  16.459  0.00  0.00    +0.000 A 
ATOM      2  N   UNL     1       4.974   3.731  16.215  0.00  0.00    +0.000 NA
ATOM      3  C   UNL     1       4.040   3.557  17.174  0.00  0.00    +0.000 A 
ATOM      4  S   UNL     1       2.790   2.424  16.982  0.00  0.00    +0.000 S 
ATOM      5  C   UNL     1       2.092   2.825  18.502  0.00  0.00    +0.000 A 
ATOM      6  C   UNL     1       0.929   2.266  19.070  0.00  0.00    +0.000 A 
ATOM      7  C   UNL     1       0.496   2.723  20.314  0.00  0.00    +0.000 A 
ATOM      8  C   UNL     1       1.199   3.713  20.985  0.00  0.00    +0.000 A 
ATOM      9  C   UNL     1       2.355   4.261  20.421  0.00  0.00    +0.000 A 
ATOM     10  C   UNL     1       2.826   3.820  19.158  0.00  0.00    +0.000 A 
ATOM     11  C   UNL     1       3.965   4.218  18.371  0.00  0.00    +0.000 A 
ATOM     12  C   UNL     1       4.981   5.211  18.664  0.00  0.00    +0.000 A 
ATOM     13  O   UNL     1       4.964   5.835  19.724  0.00  0.00    +0.000 OA
ATOM     14  N   UNL     1       5.922   5.408  17.634  0.00  0.00    +0.000 N 
ENDROOT
BRANCH  14  15
ATOM     15  C   UNL     1       6.850   6.475  17.832  0.00  0.00    +0.000 A 
ATOM     16  C   UNL     1       7.855   6.357  18.797  0.00  0.00    +0.000 A 
ATOM     17  C   UNL     1       8.667   7.449  19.105  0.00  0.00    +0.000 A 
ATOM     18  C   UNL     1       8.488   8.680  18.468  0.00  0.00    +0.000 A 
ATOM     19  C   UNL     1       7.474   8.810  17.521  0.00  0.00    +0.000 A 
ATOM     20  C   UNL     1       6.671   7.708  17.188  0.00  0.00    +0.000 A 
BRANCH  18  21
ATOM     21  O   UNL     1       9.319   9.659  18.916  0.00  0.00    +0.000 OA
BRANCH  21  22
ATOM     22  C   UNL     1       9.327  10.938  18.307  0.00  0.00    +0.000 C 
ATOM     23  F   UNL     1       8.197  11.238  17.636  0.00  0.00    +0.000 F 
ATOM     24  F   UNL     1       9.545  11.884  19.246  0.00  0.00    +0.000 F 
ATOM     25  F   UNL     1      10.352  10.979  17.425  0.00  0.00    +0.000 F 
ENDBRANCH  21  22
ENDBRANCH  18  21
ENDBRANCH  14  15
BRANCH   1  27
ATOM     26  C   UNL     1       6.389   4.044  13.815  0.00  0.00    +0.000 C 
ATOM     27  S   UNL     1       7.145   4.841  15.255  0.00  0.00    +0.000 S 
ENDBRANCH   1  27
TORSDOF 4
ENDMDL
MODEL 6
REMARK VINA RESULT:      -6.9      4.867      8.262
REMARK  Name = 
REMARK  5 active torsions:
REMARK  status: ('A' for Active; 'I' for Inactive)
REMARK    1  A    between atoms: C_1  and  S_2
REMARK    2  A    between atoms: S_2  and  C_3
REMARK    3  A    between atoms: N_16  and  C_17
REMARK    4  A    between atoms: C_20  and  O_21
REMARK    5  A    between atoms: O_21  and  C_22
REMARK                            x       y       z     vdW  Elec       q    Type
REMARK                         _______ _______ _______ _____ _____    ______ ____
ROOT
ATOM      1  C   UNL     1       1.023   8.197  20.472  0.00  0.00    +0.000 A 
ATOM      2  N   UNL     1       1.534   7.021  20.657  0.00  0.00    +0.000 NA
ATOM      3  C   UNL     1       2.390   6.598  19.703  0.00  0.00    +0.000 A 
ATOM      4  S   UNL     1       3.158   5.088  19.823  0.00  0.00    +0.000 S 
ATOM      5  C   UNL     1       4.017   5.324  18.352  0.00  0.00    +0.000 A 
ATOM      6  C   UNL     1       4.936   4.434  17.760  0.00  0.00    +0.000 A 
ATOM      7  C   UNL     1       5.555   4.796  16.564  0.00  0.00    +0.000 A 
ATOM      8  C   UNL     1       5.270   6.013  15.963  0.00  0.00    +0.000 A 
ATOM      9  C   UNL     1       4.353   6.891  16.551  0.00  0.00    +0.000 A 
ATOM     10  C   UNL     1       3.704   6.556  17.766  0.00  0.00    +0.000 A 
ATOM     11  C   UNL     1       2.742   7.272  18.564  0.00  0.00    +0.000 A 
ATOM     12  C   UNL     1       2.148   8.576  18.335  0.00  0.00    +0.000 A 
ATOM     13  O   UNL     1       2.426   9.226  17.329  0.00  0.00    +0.000 OA
ATOM     14  N   UNL     1       1.291   9.018  19.362  0.00  0.00    +0.000 N 
ENDROOT
BRANCH  14  15
ATOM     15  C   UNL     1       0.802  10.353  19.235  0.00  0.00    +0.000 A 
ATOM     16  C   UNL     1      -0.413  10.593  18.586  0.00  0.00    +0.000 A 
ATOM     17  C   UNL     1      -0.823  11.901  18.322  0.00  0.00    +0.000 A 
ATOM     18  C   UNL     1      -0.029  12.991  18.688  0.00  0.00    +0.000 A 
ATOM     19  C   UNL     1       1.193  12.757  19.315  0.00  0.00    +0.000 A 
ATOM     20  C   UNL     1       1.599  11.445  19.607  0.00  0.00    +0.000 A 
BRANCH  18  21
ATOM     21  O   UNL     1      -0.539  14.194  18.312  0.00  0.00    +0.000 OA
BRANCH  21  22
ATOM     22  C   UNL     1      -0.237  15.370  19.044  0.00  0.00    +0.000 C 
ATOM     23  F   UNL     1       1.069  15.702  19.043  0.00  0.00    +0.000 F 
ATOM     24  F   UNL     1      -0.954  16.404  18.554  0.00  0.00    +0.000 F 
ATOM     25  F   UNL     1      -0.611  15.173  20.330  0.00  0.00    +0.000 F 
ENDBRANCH  21  22
ENDBRANCH  18  21
ENDBRANCH  14  15
BRANCH   1  27
ATOM     26  C   UNL     1       0.937   9.499  22.904  0.00  0.00    +0.000 C 
ATOM     27  S   UNL     1      -0.155   8.750  21.668  0.00  0.00    +0.000 S 
ENDBRANCH   1  27
TORSDOF 4
ENDMDL
MODEL 7
REMARK VINA RESULT:      -6.9      4.732      8.221
REMARK  Name = 
REMARK  5 active torsions:
REMARK  status: ('A' for Active; 'I' for Inactive)
REMARK    1  A    between atoms: C_1  and  S_2
REMARK    2  A    between atoms: S_2  and  C_3
REMARK    3  A    between atoms: N_16  and  C_17
REMARK    4  A    between atoms: C_20  and  O_21
REMARK    5  A    between atoms: O_21  and  C_22
REMARK                            x       y       z     vdW  Elec       q    Type
REMARK                         _______ _______ _______ _____ _____    ______ ____
ROOT
ATOM      1  C   UNL     1       0.890   8.300  20.554  0.00  0.00    +0.000 A 
ATOM      2  N   UNL     1       1.380   7.116  20.748  0.00  0.00    +0.000 NA
ATOM      3  C   UNL     1       2.247   6.681  19.809  0.00  0.00    +0.000 A 
ATOM      4  S   UNL     1       2.991   5.160  19.942  0.00  0.00    +0.000 S 
ATOM      5  C   UNL     1       3.880   5.384  18.486  0.00  0.00    +0.000 A 
ATOM      6  C   UNL     1       4.796   4.481  17.911  0.00  0.00    +0.000 A 
ATOM      7  C   UNL     1       5.442   4.834  16.726  0.00  0.00    +0.000 A 
ATOM      8  C   UNL     1       5.185   6.056  16.121  0.00  0.00    +0.000 A 
ATOM      9  C   UNL     1       4.271   6.946  16.693  0.00  0.00    +0.000 A 
ATOM     10  C   UNL     1       3.595   6.621  17.896  0.00  0.00    +0.000 A 
ATOM     11  C   UNL     1       2.629   7.351  18.677  0.00  0.00    +0.000 A 
ATOM     12  C   UNL     1       2.059   8.663  18.438  0.00  0.00    +0.000 A 
ATOM     13  O   UNL     1       2.365   9.309  17.438  0.00  0.00    +0.000 OA
ATOM     14  N   UNL     1       1.190   9.117  19.450  0.00  0.00    +0.000 N 
ENDROOT
BRANCH  14  15
ATOM     15  C   UNL     1       0.723  10.459  19.315  0.00  0.00    +0.000 A 
ATOM     16  C   UNL     1       1.310  11.482  20.066  0.00  0.00    +0.000 A 
ATOM     17  C   UNL     1       0.762  12.766  20.057  0.00  0.00    +0.000 A 
ATOM     18  C   UNL     1      -0.383  13.053  19.311  0.00  0.00    +0.000 A 
ATOM     19  C   UNL     1      -0.986  12.032  18.577  0.00  0.00    +0.000 A 
ATOM     20  C   UNL     1      -0.425  10.745  18.562  0.00  0.00    +0.000 A 
BRANCH  18  21
ATOM     21  O   UNL     1      -0.826  14.331  19.449  0.00  0.00    +0.000 OA
BRANCH  21  22
ATOM     22  C   UNL     1      -0.017  15.425  19.053  0.00  0.00    +0.000 C 
ATOM     23  F   UNL     1       1.074  15.077  18.341  0.00  0.00    +0.000 F 
ATOM     24  F   UNL     1      -0.755  16.293  18.328  0.00  0.00    +0.000 F 
ATOM     25  F   UNL     1       0.406  16.063  20.168  0.00  0.00    +0.000 F 
ENDBRANCH  21  22
ENDBRANCH  18  21
ENDBRANCH  14  15
BRANCH   1  27
ATOM     26  C   UNL     1       0.779   9.398  23.083  0.00  0.00    +0.000 C 
ATOM     27  S   UNL     1      -0.301   8.870  21.729  0.00  0.00    +0.000 S 
ENDBRANCH   1  27
TORSDOF 4
ENDMDL
MODEL 8
REMARK VINA RESULT:      -6.9      5.334      8.554
REMARK  Name = 
REMARK  5 active torsions:
REMARK  status: ('A' for Active; 'I' for Inactive)
REMARK    1  A    between atoms: C_1  and  S_2
REMARK    2  A    between atoms: S_2  and  C_3
REMARK    3  A    between atoms: N_16  and  C_17
REMARK    4  A    between atoms: C_20  and  O_21
REMARK    5  A    between atoms: O_21  and  C_22
REMARK                            x       y       z     vdW  Elec       q    Type
REMARK                         _______ _______ _______ _____ _____    ______ ____
ROOT
ATOM      1  C   UNL     1       0.670   9.218  20.662  0.00  0.00    +0.000 A 
ATOM      2  N   UNL     1       1.021   8.039  21.070  0.00  0.00    +0.000 NA
ATOM      3  C   UNL     1       1.818   7.342  20.233  0.00  0.00    +0.000 A 
ATOM      4  S   UNL     1       2.380   5.794  20.645  0.00  0.00    +0.000 S 
ATOM      5  C   UNL     1       3.269   5.644  19.180  0.00  0.00    +0.000 A 
ATOM      6  C   UNL     1       4.065   4.551  18.785  0.00  0.00    +0.000 A 
ATOM      7  C   UNL     1       4.731   4.605  17.560  0.00  0.00    +0.000 A 
ATOM      8  C   UNL     1       4.611   5.718  16.742  0.00  0.00    +0.000 A 
ATOM      9  C   UNL     1       3.816   6.799  17.136  0.00  0.00    +0.000 A 
ATOM     10  C   UNL     1       3.123   6.778  18.373  0.00  0.00    +0.000 A 
ATOM     11  C   UNL     1       2.260   7.746  19.001  0.00  0.00    +0.000 A 
ATOM     12  C   UNL     1       1.845   9.051  18.524  0.00  0.00    +0.000 A 
ATOM     13  O   UNL     1       2.210   9.466  17.425  0.00  0.00    +0.000 OA
ATOM     14  N   UNL     1       1.049   9.780  19.430  0.00  0.00    +0.000 N 
ENDROOT
BRANCH  14  15
ATOM     15  C   UNL     1       0.740  11.122  19.051  0.00  0.00    +0.000 A 
ATOM     16  C   UNL     1       1.610  12.161  19.393  0.00  0.00    +0.000 A 
ATOM     17  C   UNL     1       1.245  13.489  19.163  0.00  0.00    +0.000 A 
ATOM     18  C   UNL     1       0.006  13.806  18.600  0.00  0.00    +0.000 A 
ATOM     19  C   UNL     1      -0.874  12.775  18.276  0.00  0.00    +0.000 A 
ATOM     20  C   UNL     1      -0.501  11.437  18.481  0.00  0.00    +0.000 A 
BRANCH  18  21
ATOM     21  O   UNL     1      -0.224  15.142  18.491  0.00  0.00    +0.000 OA
BRANCH  21  22
ATOM     22  C   UNL     1      -0.700  15.888  19.599  0.00  0.00    +0.000 C 
ATOM     23  F   UNL     1      -1.338  15.150  20.529  0.00  0.00    +0.000 F 
ATOM     24  F   UNL     1       0.331  16.535  20.183  0.00  0.00    +0.000 F 
ATOM     25  F   UNL     1      -1.571  16.815  19.140  0.00  0.00    +0.000 F 
ENDBRANCH  21  22
ENDBRANCH  18  21
ENDBRANCH  14  15
BRANCH   1  27
ATOM     26  C   UNL     1       0.020   9.470  23.332  0.00  0.00    +0.000 C 
ATOM     27  S   UNL     1      -0.429  10.127  21.705  0.00  0.00    +0.000 S 
ENDBRANCH   1  27
TORSDOF 4
ENDMDL
MODEL 9
REMARK VINA RESULT:      -6.9      0.904      1.446
REMARK  Name = 
REMARK  5 active torsions:
REMARK  status: ('A' for Active; 'I' for Inactive)
REMARK    1  A    between atoms: C_1  and  S_2
REMARK    2  A    between atoms: S_2  and  C_3
REMARK    3  A    between atoms: N_16  and  C_17
REMARK    4  A    between atoms: C_20  and  O_21
REMARK    5  A    between atoms: O_21  and  C_22
REMARK                            x       y       z     vdW  Elec       q    Type
REMARK                         _______ _______ _______ _____ _____    ______ ____
ROOT
ATOM      1  C   UNL     1       1.959   6.652  20.330  0.00  0.00    +0.000 A 
ATOM      2  N   UNL     1       1.204   7.281  21.175  0.00  0.00    +0.000 NA
ATOM      3  C   UNL     1       0.795   8.509  20.793  0.00  0.00    +0.000 A 
ATOM      4  S   UNL     1      -0.219   9.442  21.785  0.00  0.00    +0.000 S 
ATOM      5  C   UNL     1      -0.278  10.729  20.645  0.00  0.00    +0.000 A 
ATOM      6  C   UNL     1      -0.992  11.936  20.772  0.00  0.00    +0.000 A 
ATOM      7  C   UNL     1      -0.937  12.869  19.736  0.00  0.00    +0.000 A 
ATOM      8  C   UNL     1      -0.189  12.611  18.596  0.00  0.00    +0.000 A 
ATOM      9  C   UNL     1       0.522  11.413  18.476  0.00  0.00    +0.000 A 
ATOM     10  C   UNL     1       0.490  10.443  19.510  0.00  0.00    +0.000 A 
ATOM     11  C   UNL     1       1.118   9.152  19.627  0.00  0.00    +0.000 A 
ATOM     12  C   UNL     1       1.988   8.466  18.691  0.00  0.00    +0.000 A 
ATOM     13  O   UNL     1       2.312   8.994  17.630  0.00  0.00    +0.000 OA
ATOM     14  N   UNL     1       2.370   7.169  19.089  0.00  0.00    +0.000 N 
ENDROOT
BRANCH  14  15
ATOM     15  C   UNL     1       3.109   6.414  18.129  0.00  0.00    +0.000 A 
ATOM     16  C   UNL     1       2.664   5.146  17.745  0.00  0.00    +0.000 A 
ATOM     17  C   UNL     1       3.457   4.339  16.927  0.00  0.00    +0.000 A 
ATOM     18  C   UNL     1       4.709   4.774  16.486  0.00  0.00    +0.000 A 
ATOM     19  C   UNL     1       5.167   6.029  16.883  0.00  0.00    +0.000 A 
ATOM     20  C   UNL     1       4.363   6.855  17.684  0.00  0.00    +0.000 A 
BRANCH  18  21
ATOM     21  O   UNL     1       5.382   3.854  15.745  0.00  0.00    +0.000 OA
BRANCH  21  22
ATOM     22  C   UNL     1       6.364   4.258  14.805  0.00  0.00    +0.000 C 
ATOM     23  F   UNL     1       6.069   5.402  14.155  0.00  0.00    +0.000 F 
ATOM     24  F   UNL     1       7.554   4.400  15.428  0.00  0.00    +0.000 F 
ATOM     25  F   UNL     1       6.490   3.279  13.880  0.00  0.00    +0.000 F 
ENDBRANCH  21  22
ENDBRANCH  18  21
ENDBRANCH  14  15
BRANCH   1  27
ATOM     26  C   UNL     1       1.084   4.051  20.630  0.00  0.00    +0.000 C 
ATOM     27  S   UNL     1       2.568   5.071  20.831  0.00  0.00    +0.000 S 
ENDBRANCH   1  27
TORSDOF 4
ENDMDL
