MODEL 1
REMARK VINA RESULT:      -7.7      0.000      0.000
REMARK  Name = 
REMARK  15 active torsions:
REMARK  status: ('A' for Active; 'I' for Inactive)
REMARK    1  A    between atoms: C_1  and  C_2
REMARK    2  A    between atoms: C_2  and  C_3
REMARK    3  A    between atoms: C_3  and  C_4
REMARK    4  A    between atoms: C_4  and  C_5
REMARK    5  A    between atoms: C_5  and  C_6
REMARK    6  A    between atoms: C_6  and  C_7
REMARK    7  A    between atoms: C_7  and  C_8
REMARK    8  A    between atoms: C_8  and  C_9
REMARK    9  A    between atoms: C_9  and  O_10
REMARK   10  A    between atoms: O_10  and  C_11
REMARK   11  A    between atoms: C_11  and  C_13
REMARK   12  A    between atoms: C_13  and  O_14
REMARK   13  A    between atoms: O_14  and  C_15
REMARK   14  A    between atoms: C_17  and  O_18
REMARK   15  A    between atoms: C_23  and  C_24
REMARK                            x       y       z     vdW  Elec       q    Type
REMARK                         _______ _______ _______ _____ _____    ______ ____
ROOT
ATOM      1  C   UNL     1       4.190   4.088  16.909  0.00  0.00    +0.000 A 
ATOM      2  C   UNL     1       3.994   2.988  17.741  0.00  0.00    +0.000 A 
ATOM      3  C   UNL     1       3.328   3.142  18.963  0.00  0.00    +0.000 A 
ATOM      4  C   UNL     1       2.849   4.388  19.369  0.00  0.00    +0.000 A 
ATOM      5  C   UNL     1       2.163   4.597  20.662  0.00  0.00    +0.000 A 
ATOM      6  O   UNL     1       1.959   3.722  21.503  0.00  0.00    +0.000 OA
ATOM      7  C   UNL     1       1.709   5.956  20.953  0.00  0.00    +0.000 A 
ATOM      8  C   UNL     1       1.941   6.932  20.058  0.00  0.00    +0.000 A 
ATOM      9  O   UNL     1       2.577   6.746  18.844  0.00  0.00    +0.000 OA
ATOM     10  C   UNL     1       3.034   5.487  18.532  0.00  0.00    +0.000 A 
ATOM     11  C   UNL     1       3.713   5.343  17.310  0.00  0.00    +0.000 A 
ENDROOT
BRANCH   8  12
ATOM     12  C   UNL     1       1.484   8.304  20.323  0.00  0.00    +0.000 A 
ATOM     13  C   UNL     1       1.168   8.703  21.633  0.00  0.00    +0.000 A 
ATOM     14  C   UNL     1       0.602   9.956  21.868  0.00  0.00    +0.000 A 
ATOM     15  C   UNL     1       0.424  10.851  20.815  0.00  0.00    +0.000 A 
ATOM     16  C   UNL     1       0.792  10.489  19.521  0.00  0.00    +0.000 A 
ATOM     17  C   UNL     1       1.316   9.220  19.274  0.00  0.00    +0.000 A 
ENDBRANCH   8  12
BRANCH   3  18
ATOM     18  O   UNL     1       3.158   2.047  19.760  0.00  0.00    +0.000 OA
ATOM     19  H   UNL     1       3.976   1.832  20.225  0.00  0.00    +0.000 HD
ENDBRANCH   3  18
BRANCH   1  20
ATOM     20  O   UNL     1       4.854   4.050  15.711  0.00  0.00    +0.000 OA
BRANCH  20  21
ATOM     21  C   UNL     1       6.269   3.916  15.758  0.00  0.00    +0.000 C 
BRANCH  21  22
ATOM     22  C   UNL     1       6.943   5.164  15.204  0.00  0.00    +0.000 C 
ATOM     23  O   UNL     1       7.577   5.194  14.168  0.00  0.00    +0.000 OA
BRANCH  22  24
ATOM     24  O   UNL     1       6.781   6.233  16.047  0.00  0.00    +0.000 OA
BRANCH  24  25
ATOM     25  C   UNL     1       7.370   6.049  17.350  0.00  0.00    +0.000 C 
BRANCH  25  26
ATOM     26  C   UNL     1       7.407   7.348  18.144  0.00  0.00    +0.000 C 
BRANCH  26  27
ATOM     27  C   UNL     1       8.187   8.436  17.402  0.00  0.00    +0.000 C 
BRANCH  27  28
ATOM     28  C   UNL     1       8.117   9.765  18.148  0.00  0.00    +0.000 C 
BRANCH  28  29
ATOM     29  C   UNL     1       9.208   9.851  19.211  0.00  0.00    +0.000 C 
BRANCH  29  30
ATOM     30  C   UNL     1       9.875  11.221  19.181  0.00  0.00    +0.000 C 
BRANCH  30  31
ATOM     31  C   UNL     1      10.393  11.530  17.784  0.00  0.00    +0.000 C 
BRANCH  31  33
ATOM     32  C   UNL     1      11.746  13.600  17.430  0.00  0.00    +0.000 C 
ATOM     33  C   UNL     1      11.787  12.143  17.850  0.00  0.00    +0.000 C 
ENDBRANCH  31  33
ENDBRANCH  30  31
ENDBRANCH  29  30
ENDBRANCH  28  29
ENDBRANCH  27  28
ENDBRANCH  26  27
ENDBRANCH  25  26
ENDBRANCH  24  25
ENDBRANCH  22  24
ENDBRANCH  21  22
ENDBRANCH  20  21
ENDBRANCH   1  20
TORSDOF 14
ENDMDL
MODEL 2
REMARK VINA RESULT:      -7.7      0.699      1.425
REMARK  Name = 
REMARK  15 active torsions:
REMARK  status: ('A' for Active; 'I' for Inactive)
REMARK    1  A    between atoms: C_1  and  C_2
REMARK    2  A    between atoms: C_2  and  C_3
REMARK    3  A    between atoms: C_3  and  C_4
REMARK    4  A    between atoms: C_4  and  C_5
REMARK    5  A    between atoms: C_5  and  C_6
REMARK    6  A    between atoms: C_6  and  C_7
REMARK    7  A    between atoms: C_7  and  C_8
REMARK    8  A    between atoms: C_8  and  C_9
REMARK    9  A    between atoms: C_9  and  O_10
REMARK   10  A    between atoms: O_10  and  C_11
REMARK   11  A    between atoms: C_11  and  C_13
REMARK   12  A    between atoms: C_13  and  O_14
REMARK   13  A    between atoms: O_14  and  C_15
REMARK   14  A    between atoms: C_17  and  O_18
REMARK   15  A    between atoms: C_23  and  C_24
REMARK                            x       y       z     vdW  Elec       q    Type
REMARK                         _______ _______ _______ _____ _____    ______ ____
ROOT
ATOM      1  C   UNL     1       4.460   4.503  16.964  0.00  0.00    +0.000 A 
ATOM      2  C   UNL     1       4.151   3.326  17.643  0.00  0.00    +0.000 A 
ATOM      3  C   UNL     1       3.326   3.365  18.774  0.00  0.00    +0.000 A 
ATOM      4  C   UNL     1       2.800   4.570  19.240  0.00  0.00    +0.000 A 
ATOM      5  C   UNL     1       1.946   4.657  20.443  0.00  0.00    +0.000 A 
ATOM      6  O   UNL     1       1.627   3.703  21.154  0.00  0.00    +0.000 OA
ATOM      7  C   UNL     1       1.460   5.985  20.810  0.00  0.00    +0.000 A 
ATOM      8  C   UNL     1       1.814   7.044  20.061  0.00  0.00    +0.000 A 
ATOM      9  O   UNL     1       2.608   6.974  18.931  0.00  0.00    +0.000 OA
ATOM     10  C   UNL     1       3.100   5.746  18.554  0.00  0.00    +0.000 A 
ATOM     11  C   UNL     1       3.937   5.717  17.427  0.00  0.00    +0.000 A 
ENDROOT
BRANCH   8  12
ATOM     12  C   UNL     1       1.328   8.389  20.405  0.00  0.00    +0.000 A 
ATOM     13  C   UNL     1       1.180   9.365  19.404  0.00  0.00    +0.000 A 
ATOM     14  C   UNL     1       0.856  10.678  19.746  0.00  0.00    +0.000 A 
ATOM     15  C   UNL     1       0.595  11.010  21.073  0.00  0.00    +0.000 A 
ATOM     16  C   UNL     1       0.678  10.036  22.067  0.00  0.00    +0.000 A 
ATOM     17  C   UNL     1       1.046   8.732  21.735  0.00  0.00    +0.000 A 
ENDBRANCH   8  12
BRANCH   3  18
ATOM     18  O   UNL     1       3.046   2.197  19.422  0.00  0.00    +0.000 OA
ATOM     19  H   UNL     1       3.665   2.052  20.149  0.00  0.00    +0.000 HD
ENDBRANCH   3  18
BRANCH   1  20
ATOM     20  O   UNL     1       5.280   4.577  15.870  0.00  0.00    +0.000 OA
BRANCH  20  21
ATOM     21  C   UNL     1       6.636   4.186  16.047  0.00  0.00    +0.000 C 
BRANCH  21  22
ATOM     22  C   UNL     1       7.323   5.087  17.064  0.00  0.00    +0.000 C 
ATOM     23  O   UNL     1       7.668   4.727  18.172  0.00  0.00    +0.000 OA
BRANCH  22  24
ATOM     24  O   UNL     1       7.459   6.365  16.585  0.00  0.00    +0.000 OA
BRANCH  24  25
ATOM     25  C   UNL     1       7.206   7.391  17.566  0.00  0.00    +0.000 C 
BRANCH  25  26
ATOM     26  C   UNL     1       8.495   8.025  18.070  0.00  0.00    +0.000 C 
BRANCH  26  27
ATOM     27  C   UNL     1       8.345   9.539  18.239  0.00  0.00    +0.000 C 
BRANCH  27  28
ATOM     28  C   UNL     1       9.004  10.012  19.531  0.00  0.00    +0.000 C 
BRANCH  28  29
ATOM     29  C   UNL     1       9.936  11.190  19.267  0.00  0.00    +0.000 C 
BRANCH  29  30
ATOM     30  C   UNL     1      10.115  11.405  17.770  0.00  0.00    +0.000 C 
BRANCH  30  31
ATOM     31  C   UNL     1      11.451  12.077  17.484  0.00  0.00    +0.000 C 
BRANCH  31  33
ATOM     32  C   UNL     1      11.377  14.510  18.047  0.00  0.00    +0.000 C 
ATOM     33  C   UNL     1      11.239  13.484  16.938  0.00  0.00    +0.000 C 
ENDBRANCH  31  33
ENDBRANCH  30  31
ENDBRANCH  29  30
ENDBRANCH  28  29
ENDBRANCH  27  28
ENDBRANCH  26  27
ENDBRANCH  25  26
ENDBRANCH  24  25
ENDBRANCH  22  24
ENDBRANCH  21  22
ENDBRANCH  20  21
ENDBRANCH   1  20
TORSDOF 14
ENDMDL
MODEL 3
REMARK VINA RESULT:      -7.5      0.920      1.435
REMARK  Name = 
REMARK  15 active torsions:
REMARK  status: ('A' for Active; 'I' for Inactive)
REMARK    1  A    between atoms: C_1  and  C_2
REMARK    2  A    between atoms: C_2  and  C_3
REMARK    3  A    between atoms: C_3  and  C_4
REMARK    4  A    between atoms: C_4  and  C_5
REMARK    5  A    between atoms: C_5  and  C_6
REMARK    6  A    between atoms: C_6  and  C_7
REMARK    7  A    between atoms: C_7  and  C_8
REMARK    8  A    between atoms: C_8  and  C_9
REMARK    9  A    between atoms: C_9  and  O_10
REMARK   10  A    between atoms: O_10  and  C_11
REMARK   11  A    between atoms: C_11  and  C_13
REMARK   12  A    between atoms: C_13  and  O_14
REMARK   13  A    between atoms: O_14  and  C_15
REMARK   14  A    between atoms: C_17  and  O_18
REMARK   15  A    between atoms: C_23  and  C_24
REMARK                            x       y       z     vdW  Elec       q    Type
REMARK                         _______ _______ _______ _____ _____    ______ ____
ROOT
ATOM      1  C   UNL     1       4.236   4.338  16.640  0.00  0.00    +0.000 A 
ATOM      2  C   UNL     1       4.205   3.201  17.445  0.00  0.00    +0.000 A 
ATOM      3  C   UNL     1       3.620   3.257  18.716  0.00  0.00    +0.000 A 
ATOM      4  C   UNL     1       3.059   4.440  19.198  0.00  0.00    +0.000 A 
ATOM      5  C   UNL     1       2.455   4.547  20.543  0.00  0.00    +0.000 A 
ATOM      6  O   UNL     1       2.395   3.633  21.366  0.00  0.00    +0.000 OA
ATOM      7  C   UNL     1       1.900   5.848  20.913  0.00  0.00    +0.000 A 
ATOM      8  C   UNL     1       1.974   6.866  20.038  0.00  0.00    +0.000 A 
ATOM      9  O   UNL     1       2.533   6.776  18.776  0.00  0.00    +0.000 OA
ATOM     10  C   UNL     1       3.080   5.575  18.389  0.00  0.00    +0.000 A 
ATOM     11  C   UNL     1       3.677   5.530  17.118  0.00  0.00    +0.000 A 
ENDROOT
BRANCH   8  12
ATOM     12  C   UNL     1       1.414   8.181  20.384  0.00  0.00    +0.000 A 
ATOM     13  C   UNL     1       1.229   9.155  19.388  0.00  0.00    +0.000 A 
ATOM     14  C   UNL     1       0.830  10.446  19.734  0.00  0.00    +0.000 A 
ATOM     15  C   UNL     1       0.533  10.754  21.060  0.00  0.00    +0.000 A 
ATOM     16  C   UNL     1       0.652   9.778  22.047  0.00  0.00    +0.000 A 
ATOM     17  C   UNL     1       1.094   8.498  21.712  0.00  0.00    +0.000 A 
ENDBRANCH   8  12
BRANCH   3  18
ATOM     18  O   UNL     1       3.611   2.129  19.484  0.00  0.00    +0.000 OA
ATOM     19  H   UNL     1       3.761   2.346  20.413  0.00  0.00    +0.000 HD
ENDBRANCH   3  18
BRANCH   1  20
ATOM     20  O   UNL     1       4.811   4.397  15.398  0.00  0.00    +0.000 OA
BRANCH  20  21
ATOM     21  C   UNL     1       6.125   3.871  15.265  0.00  0.00    +0.000 C 
BRANCH  21  22
ATOM     22  C   UNL     1       7.098   4.964  14.844  0.00  0.00    +0.000 C 
ATOM     23  O   UNL     1       7.514   5.108  13.711  0.00  0.00    +0.000 OA
BRANCH  22  24
ATOM     24  O   UNL     1       7.479   5.730  15.915  0.00  0.00    +0.000 OA
BRANCH  24  25
ATOM     25  C   UNL     1       7.652   4.988  17.139  0.00  0.00    +0.000 C 
BRANCH  25  26
ATOM     26  C   UNL     1       7.362   5.841  18.366  0.00  0.00    +0.000 C 
BRANCH  26  27
ATOM     27  C   UNL     1       7.106   7.301  17.985  0.00  0.00    +0.000 C 
BRANCH  27  28
ATOM     28  C   UNL     1       8.316   8.172  18.311  0.00  0.00    +0.000 C 
BRANCH  28  29
ATOM     29  C   UNL     1       8.256   9.495  17.553  0.00  0.00    +0.000 C 
BRANCH  29  30
ATOM     30  C   UNL     1       8.556  10.660  18.488  0.00  0.00    +0.000 C 
BRANCH  30  31
ATOM     31  C   UNL     1       9.713  10.313  19.415  0.00  0.00    +0.000 C 
BRANCH  31  33
ATOM     32  C   UNL     1      11.519  11.898  20.099  0.00  0.00    +0.000 C 
ATOM     33  C   UNL     1      10.068  11.502  20.300  0.00  0.00    +0.000 C 
ENDBRANCH  31  33
ENDBRANCH  30  31
ENDBRANCH  29  30
ENDBRANCH  28  29
ENDBRANCH  27  28
ENDBRANCH  26  27
ENDBRANCH  25  26
ENDBRANCH  24  25
ENDBRANCH  22  24
ENDBRANCH  21  22
ENDBRANCH  20  21
ENDBRANCH   1  20
TORSDOF 14
ENDMDL
MODEL 4
REMARK VINA RESULT:      -7.3      0.996      1.252
REMARK  Name = 
REMARK  15 active torsions:
REMARK  status: ('A' for Active; 'I' for Inactive)
REMARK    1  A    between atoms: C_1  and  C_2
REMARK    2  A    between atoms: C_2  and  C_3
REMARK    3  A    between atoms: C_3  and  C_4
REMARK    4  A    between atoms: C_4  and  C_5
REMARK    5  A    between atoms: C_5  and  C_6
REMARK    6  A    between atoms: C_6  and  C_7
REMARK    7  A    between atoms: C_7  and  C_8
REMARK    8  A    between atoms: C_8  and  C_9
REMARK    9  A    between atoms: C_9  and  O_10
REMARK   10  A    between atoms: O_10  and  C_11
REMARK   11  A    between atoms: C_11  and  C_13
REMARK   12  A    between atoms: C_13  and  O_14
REMARK   13  A    between atoms: O_14  and  C_15
REMARK   14  A    between atoms: C_17  and  O_18
REMARK   15  A    between atoms: C_23  and  C_24
REMARK                            x       y       z     vdW  Elec       q    Type
REMARK                         _______ _______ _______ _____ _____    ______ ____
ROOT
ATOM      1  C   UNL     1       4.119   5.268  17.080  0.00  0.00    +0.000 A 
ATOM      2  C   UNL     1       3.928   4.047  17.723  0.00  0.00    +0.000 A 
ATOM      3  C   UNL     1       3.174   3.984  18.900  0.00  0.00    +0.000 A 
ATOM      4  C   UNL     1       2.601   5.131  19.450  0.00  0.00    +0.000 A 
ATOM      5  C   UNL     1       1.818   5.111  20.704  0.00  0.00    +0.000 A 
ATOM      6  O   UNL     1       1.607   4.110  21.389  0.00  0.00    +0.000 OA
ATOM      7  C   UNL     1       1.271   6.388  21.158  0.00  0.00    +0.000 A 
ATOM      8  C   UNL     1       1.509   7.498  20.438  0.00  0.00    +0.000 A 
ATOM      9  O   UNL     1       2.235   7.527  19.261  0.00  0.00    +0.000 OA
ATOM     10  C   UNL     1       2.781   6.352  18.801  0.00  0.00    +0.000 A 
ATOM     11  C   UNL     1       3.548   6.425  17.626  0.00  0.00    +0.000 A 
ENDROOT
BRANCH   8  12
ATOM     12  C   UNL     1       0.960   8.792  20.869  0.00  0.00    +0.000 A 
ATOM     13  C   UNL     1       0.487   8.958  22.182  0.00  0.00    +0.000 A 
ATOM     14  C   UNL     1      -0.161  10.137  22.551  0.00  0.00    +0.000 A 
ATOM     15  C   UNL     1      -0.268  11.188  21.644  0.00  0.00    +0.000 A 
ATOM     16  C   UNL     1       0.254  11.059  20.359  0.00  0.00    +0.000 A 
ATOM     17  C   UNL     1       0.862   9.865  19.971  0.00  0.00    +0.000 A 
ENDBRANCH   8  12
BRANCH   3  18
ATOM     18  O   UNL     1       3.011   2.774  19.511  0.00  0.00    +0.000 OA
ATOM     19  H   UNL     1       3.804   2.531  20.006  0.00  0.00    +0.000 HD
ENDBRANCH   3  18
BRANCH   1  20
ATOM     20  O   UNL     1       4.864   5.442  15.944  0.00  0.00    +0.000 OA
BRANCH  20  21
ATOM     21  C   UNL     1       5.499   4.291  15.401  0.00  0.00    +0.000 C 
BRANCH  21  22
ATOM     22  C   UNL     1       6.860   4.655  14.823  0.00  0.00    +0.000 C 
ATOM     23  O   UNL     1       7.216   4.384  13.693  0.00  0.00    +0.000 OA
BRANCH  22  24
ATOM     24  O   UNL     1       7.646   5.281  15.756  0.00  0.00    +0.000 OA
BRANCH  24  25
ATOM     25  C   UNL     1       7.550   4.719  17.080  0.00  0.00    +0.000 C 
BRANCH  25  26
ATOM     26  C   UNL     1       7.934   5.728  18.154  0.00  0.00    +0.000 C 
BRANCH  26  27
ATOM     27  C   UNL     1       7.134   7.026  18.014  0.00  0.00    +0.000 C 
BRANCH  27  28
ATOM     28  C   UNL     1       8.034   8.179  17.578  0.00  0.00    +0.000 C 
BRANCH  28  29
ATOM     29  C   UNL     1       8.575   8.935  18.787  0.00  0.00    +0.000 C 
BRANCH  29  30
ATOM     30  C   UNL     1       9.137  10.286  18.364  0.00  0.00    +0.000 C 
BRANCH  30  31
ATOM     31  C   UNL     1       9.884  10.937  19.520  0.00  0.00    +0.000 C 
BRANCH  31  33
ATOM     32  C   UNL     1      12.189  11.896  19.596  0.00  0.00    +0.000 C 
ATOM     33  C   UNL     1      10.797  12.048  19.014  0.00  0.00    +0.000 C 
ENDBRANCH  31  33
ENDBRANCH  30  31
ENDBRANCH  29  30
ENDBRANCH  28  29
ENDBRANCH  27  28
ENDBRANCH  26  27
ENDBRANCH  25  26
ENDBRANCH  24  25
ENDBRANCH  22  24
ENDBRANCH  21  22
ENDBRANCH  20  21
ENDBRANCH   1  20
TORSDOF 14
ENDMDL
MODEL 5
REMARK VINA RESULT:      -7.2      1.485      2.067
REMARK  Name = 
REMARK  15 active torsions:
REMARK  status: ('A' for Active; 'I' for Inactive)
REMARK    1  A    between atoms: C_1  and  C_2
REMARK    2  A    between atoms: C_2  and  C_3
REMARK    3  A    between atoms: C_3  and  C_4
REMARK    4  A    between atoms: C_4  and  C_5
REMARK    5  A    between atoms: C_5  and  C_6
REMARK    6  A    between atoms: C_6  and  C_7
REMARK    7  A    between atoms: C_7  and  C_8
REMARK    8  A    between atoms: C_8  and  C_9
REMARK    9  A    between atoms: C_9  and  O_10
REMARK   10  A    between atoms: O_10  and  C_11
REMARK   11  A    between atoms: C_11  and  C_13
REMARK   12  A    between atoms: C_13  and  O_14
REMARK   13  A    between atoms: O_14  and  C_15
REMARK   14  A    between atoms: C_17  and  O_18
REMARK   15  A    between atoms: C_23  and  C_24
REMARK                            x       y       z     vdW  Elec       q    Type
REMARK                         _______ _______ _______ _____ _____    ______ ____
ROOT
ATOM      1  C   UNL     1       5.511   4.389  18.647  0.00  0.00    +0.000 A 
ATOM      2  C   UNL     1       4.859   3.200  18.969  0.00  0.00    +0.000 A 
ATOM      3  C   UNL     1       3.589   3.233  19.556  0.00  0.00    +0.000 A 
ATOM      4  C   UNL     1       2.953   4.445  19.827  0.00  0.00    +0.000 A 
ATOM      5  C   UNL     1       1.623   4.524  20.468  0.00  0.00    +0.000 A 
ATOM      6  O   UNL     1       0.958   3.555  20.836  0.00  0.00    +0.000 OA
ATOM      7  C   UNL     1       1.075   5.861  20.685  0.00  0.00    +0.000 A 
ATOM      8  C   UNL     1       1.795   6.934  20.312  0.00  0.00    +0.000 A 
ATOM      9  O   UNL     1       3.038   6.872  19.707  0.00  0.00    +0.000 OA
ATOM     10  C   UNL     1       3.599   5.634  19.495  0.00  0.00    +0.000 A 
ATOM     11  C   UNL     1       4.880   5.610  18.918  0.00  0.00    +0.000 A 
ENDROOT
BRANCH   8  12
ATOM     12  C   UNL     1       1.260   8.289  20.511  0.00  0.00    +0.000 A 
ATOM     13  C   UNL     1       1.233   9.202  19.443  0.00  0.00    +0.000 A 
ATOM     14  C   UNL     1       0.859  10.528  19.662  0.00  0.00    +0.000 A 
ATOM     15  C   UNL     1       0.430  10.933  20.924  0.00  0.00    +0.000 A 
ATOM     16  C   UNL     1       0.393  10.021  21.976  0.00  0.00    +0.000 A 
ATOM     17  C   UNL     1       0.809   8.705  21.772  0.00  0.00    +0.000 A 
ENDBRANCH   8  12
BRANCH   3  18
ATOM     18  O   UNL     1       2.979   2.052  19.867  0.00  0.00    +0.000 OA
ATOM     19  H   UNL     1       2.052   2.196  20.100  0.00  0.00    +0.000 HD
ENDBRANCH   3  18
BRANCH   1  20
ATOM     20  O   UNL     1       6.764   4.466  18.100  0.00  0.00    +0.000 OA
BRANCH  20  21
ATOM     21  C   UNL     1       6.862   4.368  16.685  0.00  0.00    +0.000 C 
BRANCH  21  22
ATOM     22  C   UNL     1       6.798   5.750  16.048  0.00  0.00    +0.000 C 
ATOM     23  O   UNL     1       6.009   6.065  15.180  0.00  0.00    +0.000 OA
BRANCH  22  24
ATOM     24  O   UNL     1       7.775   6.573  16.546  0.00  0.00    +0.000 OA
BRANCH  24  25
ATOM     25  C   UNL     1       7.271   7.717  17.265  0.00  0.00    +0.000 C 
BRANCH  25  26
ATOM     26  C   UNL     1       8.233   8.170  18.355  0.00  0.00    +0.000 C 
BRANCH  26  27
ATOM     27  C   UNL     1       8.604   9.646  18.196  0.00  0.00    +0.000 C 
BRANCH  27  28
ATOM     28  C   UNL     1       9.466  10.122  19.362  0.00  0.00    +0.000 C 
BRANCH  28  29
ATOM     29  C   UNL     1      10.256  11.370  18.981  0.00  0.00    +0.000 C 
BRANCH  29  30
ATOM     30  C   UNL     1      10.339  12.330  20.161  0.00  0.00    +0.000 C 
BRANCH  30  31
ATOM     31  C   UNL     1       8.986  12.445  20.850  0.00  0.00    +0.000 C 
BRANCH  31  33
ATOM     32  C   UNL     1       9.986  14.455  21.946  0.00  0.00    +0.000 C 
ATOM     33  C   UNL     1       9.108  13.234  22.148  0.00  0.00    +0.000 C 
ENDBRANCH  31  33
ENDBRANCH  30  31
ENDBRANCH  29  30
ENDBRANCH  28  29
ENDBRANCH  27  28
ENDBRANCH  26  27
ENDBRANCH  25  26
ENDBRANCH  24  25
ENDBRANCH  22  24
ENDBRANCH  21  22
ENDBRANCH  20  21
ENDBRANCH   1  20
TORSDOF 14
ENDMDL
MODEL 6
REMARK VINA RESULT:      -7.0      4.994     10.755
REMARK  Name = 
REMARK  15 active torsions:
REMARK  status: ('A' for Active; 'I' for Inactive)
REMARK    1  A    between atoms: C_1  and  C_2
REMARK    2  A    between atoms: C_2  and  C_3
REMARK    3  A    between atoms: C_3  and  C_4
REMARK    4  A    between atoms: C_4  and  C_5
REMARK    5  A    between atoms: C_5  and  C_6
REMARK    6  A    between atoms: C_6  and  C_7
REMARK    7  A    between atoms: C_7  and  C_8
REMARK    8  A    between atoms: C_8  and  C_9
REMARK    9  A    between atoms: C_9  and  O_10
REMARK   10  A    between atoms: O_10  and  C_11
REMARK   11  A    between atoms: C_11  and  C_13
REMARK   12  A    between atoms: C_13  and  O_14
REMARK   13  A    between atoms: O_14  and  C_15
REMARK   14  A    between atoms: C_17  and  O_18
REMARK   15  A    between atoms: C_23  and  C_24
REMARK                            x       y       z     vdW  Elec       q    Type
REMARK                         _______ _______ _______ _____ _____    ______ ____
ROOT
ATOM      1  C   UNL     1      -0.374  10.326  21.842  0.00  0.00    +0.000 A 
ATOM      2  C   UNL     1      -0.188  11.130  20.720  0.00  0.00    +0.000 A 
ATOM      3  C   UNL     1       0.533  10.647  19.621  0.00  0.00    +0.000 A 
ATOM      4  C   UNL     1       1.074   9.360  19.625  0.00  0.00    +0.000 A 
ATOM      5  C   UNL     1       1.861   8.822  18.496  0.00  0.00    +0.000 A 
ATOM      6  O   UNL     1       2.131   9.438  17.465  0.00  0.00    +0.000 OA
ATOM      7  C   UNL     1       2.361   7.455  18.636  0.00  0.00    +0.000 A 
ATOM      8  C   UNL     1       2.098   6.772  19.764  0.00  0.00    +0.000 A 
ATOM      9  O   UNL     1       1.358   7.265  20.824  0.00  0.00    +0.000 OA
ATOM     10  C   UNL     1       0.878   8.551  20.743  0.00  0.00    +0.000 A 
ATOM     11  C   UNL     1       0.168   9.034  21.855  0.00  0.00    +0.000 A 
ENDROOT
BRANCH   8  12
ATOM     12  C   UNL     1       2.581   5.392  19.923  0.00  0.00    +0.000 A 
ATOM     13  C   UNL     1       2.012   4.551  20.894  0.00  0.00    +0.000 A 
ATOM     14  C   UNL     1       2.561   3.293  21.141  0.00  0.00    +0.000 A 
ATOM     15  C   UNL     1       3.624   2.830  20.370  0.00  0.00    +0.000 A 
ATOM     16  C   UNL     1       4.156   3.631  19.362  0.00  0.00    +0.000 A 
ATOM     17  C   UNL     1       3.640   4.908  19.140  0.00  0.00    +0.000 A 
ENDBRANCH   8  12
BRANCH   3  18
ATOM     18  O   UNL     1       0.704  11.461  18.540  0.00  0.00    +0.000 OA
ATOM     19  H   UNL     1       0.280  12.317  18.684  0.00  0.00    +0.000 HD
ENDBRANCH   3  18
BRANCH   1  20
ATOM     20  O   UNL     1      -1.034  10.714  22.978  0.00  0.00    +0.000 OA
BRANCH  20  21
ATOM     21  C   UNL     1      -1.325  12.099  23.118  0.00  0.00    +0.000 C 
BRANCH  21  22
ATOM     22  C   UNL     1      -2.830  12.328  23.149  0.00  0.00    +0.000 C 
ATOM     23  O   UNL     1      -3.575  11.857  23.985  0.00  0.00    +0.000 OA
BRANCH  22  24
ATOM     24  O   UNL     1      -3.238  13.092  22.086  0.00  0.00    +0.000 OA
BRANCH  24  25
ATOM     25  C   UNL     1      -4.663  13.085  21.868  0.00  0.00    +0.000 C 
BRANCH  25  26
ATOM     26  C   UNL     1      -5.022  12.598  20.471  0.00  0.00    +0.000 C 
BRANCH  26  27
ATOM     27  C   UNL     1      -6.196  13.388  19.887  0.00  0.00    +0.000 C 
BRANCH  27  28
ATOM     28  C   UNL     1      -6.870  12.611  18.760  0.00  0.00    +0.000 C 
BRANCH  28  29
ATOM     29  C   UNL     1      -5.992  12.587  17.513  0.00  0.00    +0.000 C 
BRANCH  29  30
ATOM     30  C   UNL     1      -5.379  11.206  17.317  0.00  0.00    +0.000 C 
BRANCH  30  31
ATOM     31  C   UNL     1      -4.042  11.315  16.597  0.00  0.00    +0.000 C 
BRANCH  31  33
ATOM     32  C   UNL     1      -2.029   9.901  17.030  0.00  0.00    +0.000 C 
ATOM     33  C   UNL     1      -2.890  11.034  17.555  0.00  0.00    +0.000 C 
ENDBRANCH  31  33
ENDBRANCH  30  31
ENDBRANCH  29  30
ENDBRANCH  28  29
ENDBRANCH  27  28
ENDBRANCH  26  27
ENDBRANCH  25  26
ENDBRANCH  24  25
ENDBRANCH  22  24
ENDBRANCH  21  22
ENDBRANCH  20  21
ENDBRANCH   1  20
TORSDOF 14
ENDMDL
MODEL 7
REMARK VINA RESULT:      -7.0      1.197      1.839
REMARK  Name = 
REMARK  15 active torsions:
REMARK  status: ('A' for Active; 'I' for Inactive)
REMARK    1  A    between atoms: C_1  and  C_2
REMARK    2  A    between atoms: C_2  and  C_3
REMARK    3  A    between atoms: C_3  and  C_4
REMARK    4  A    between atoms: C_4  and  C_5
REMARK    5  A    between atoms: C_5  and  C_6
REMARK    6  A    between atoms: C_6  and  C_7
REMARK    7  A    between atoms: C_7  and  C_8
REMARK    8  A    between atoms: C_8  and  C_9
REMARK    9  A    between atoms: C_9  and  O_10
REMARK   10  A    between atoms: O_10  and  C_11
REMARK   11  A    between atoms: C_11  and  C_13
REMARK   12  A    between atoms: C_13  and  O_14
REMARK   13  A    between atoms: O_14  and  C_15
REMARK   14  A    between atoms: C_17  and  O_18
REMARK   15  A    between atoms: C_23  and  C_24
REMARK                            x       y       z     vdW  Elec       q    Type
REMARK                         _______ _______ _______ _____ _____    ______ ____
ROOT
ATOM      1  C   UNL     1       4.395   4.660  16.917  0.00  0.00    +0.000 A 
ATOM      2  C   UNL     1       4.132   3.459  17.572  0.00  0.00    +0.000 A 
ATOM      3  C   UNL     1       3.351   3.449  18.734  0.00  0.00    +0.000 A 
ATOM      4  C   UNL     1       2.822   4.630  19.255  0.00  0.00    +0.000 A 
ATOM      5  C   UNL     1       2.013   4.665  20.492  0.00  0.00    +0.000 A 
ATOM      6  O   UNL     1       1.739   3.685  21.185  0.00  0.00    +0.000 OA
ATOM      7  C   UNL     1       1.518   5.973  20.917  0.00  0.00    +0.000 A 
ATOM      8  C   UNL     1       1.824   7.060  20.187  0.00  0.00    +0.000 A 
ATOM      9  O   UNL     1       2.575   7.037  19.026  0.00  0.00    +0.000 OA
ATOM     10  C   UNL     1       3.074   5.830  18.594  0.00  0.00    +0.000 A 
ATOM     11  C   UNL     1       3.868   5.850  17.435  0.00  0.00    +0.000 A 
ENDROOT
BRANCH   8  12
ATOM     12  C   UNL     1       1.328   8.385  20.588  0.00  0.00    +0.000 A 
ATOM     13  C   UNL     1       1.092   8.671  21.943  0.00  0.00    +0.000 A 
ATOM     14  C   UNL     1       0.491   9.874  22.313  0.00  0.00    +0.000 A 
ATOM     15  C   UNL     1       0.198  10.834  21.347  0.00  0.00    +0.000 A 
ATOM     16  C   UNL     1       0.485  10.587  20.006  0.00  0.00    +0.000 A 
ATOM     17  C   UNL     1       1.045   9.366  19.627  0.00  0.00    +0.000 A 
ENDBRANCH   8  12
BRANCH   3  18
ATOM     18  O   UNL     1       3.117   2.257  19.357  0.00  0.00    +0.000 OA
ATOM     19  H   UNL     1       2.595   2.386  20.159  0.00  0.00    +0.000 HD
ENDBRANCH   3  18
BRANCH   1  20
ATOM     20  O   UNL     1       5.171   4.782  15.795  0.00  0.00    +0.000 OA
BRANCH  20  21
ATOM     21  C   UNL     1       6.493   4.261  15.861  0.00  0.00    +0.000 C 
BRANCH  21  22
ATOM     22  C   UNL     1       7.309   5.007  16.908  0.00  0.00    +0.000 C 
ATOM     23  O   UNL     1       7.574   4.565  18.008  0.00  0.00    +0.000 OA
BRANCH  22  24
ATOM     24  O   UNL     1       7.662   6.256  16.467  0.00  0.00    +0.000 OA
BRANCH  24  25
ATOM     25  C   UNL     1       7.146   7.334  17.273  0.00  0.00    +0.000 C 
BRANCH  25  26
ATOM     26  C   UNL     1       7.870   7.442  18.608  0.00  0.00    +0.000 C 
BRANCH  26  27
ATOM     27  C   UNL     1       8.964   8.511  18.566  0.00  0.00    +0.000 C 
BRANCH  27  28
ATOM     28  C   UNL     1       8.376   9.883  18.247  0.00  0.00    +0.000 C 
BRANCH  28  29
ATOM     29  C   UNL     1       9.476  10.935  18.137  0.00  0.00    +0.000 C 
BRANCH  29  30
ATOM     30  C   UNL     1       9.324  11.982  19.234  0.00  0.00    +0.000 C 
BRANCH  30  31
ATOM     31  C   UNL     1       9.344  11.322  20.606  0.00  0.00    +0.000 C 
BRANCH  31  33
ATOM     32  C   UNL     1       8.190  11.594  22.804  0.00  0.00    +0.000 C 
ATOM     33  C   UNL     1       8.921  12.311  21.685  0.00  0.00    +0.000 C 
ENDBRANCH  31  33
ENDBRANCH  30  31
ENDBRANCH  29  30
ENDBRANCH  28  29
ENDBRANCH  27  28
ENDBRANCH  26  27
ENDBRANCH  25  26
ENDBRANCH  24  25
ENDBRANCH  22  24
ENDBRANCH  21  22
ENDBRANCH  20  21
ENDBRANCH   1  20
TORSDOF 14
ENDMDL
MODEL 8
REMARK VINA RESULT:      -6.9      4.890     10.342
REMARK  Name = 
REMARK  15 active torsions:
REMARK  status: ('A' for Active; 'I' for Inactive)
REMARK    1  A    between atoms: C_1  and  C_2
REMARK    2  A    between atoms: C_2  and  C_3
REMARK    3  A    between atoms: C_3  and  C_4
REMARK    4  A    between atoms: C_4  and  C_5
REMARK    5  A    between atoms: C_5  and  C_6
REMARK    6  A    between atoms: C_6  and  C_7
REMARK    7  A    between atoms: C_7  and  C_8
REMARK    8  A    between atoms: C_8  and  C_9
REMARK    9  A    between atoms: C_9  and  O_10
REMARK   10  A    between atoms: O_10  and  C_11
REMARK   11  A    between atoms: C_11  and  C_13
REMARK   12  A    between atoms: C_13  and  O_14
REMARK   13  A    between atoms: O_14  and  C_15
REMARK   14  A    between atoms: C_17  and  O_18
REMARK   15  A    between atoms: C_23  and  C_24
REMARK                            x       y       z     vdW  Elec       q    Type
REMARK                         _______ _______ _______ _____ _____    ______ ____
ROOT
ATOM      1  C   UNL     1       0.565  10.304  21.644  0.00  0.00    +0.000 A 
ATOM      2  C   UNL     1       0.755  10.941  20.418  0.00  0.00    +0.000 A 
ATOM      3  C   UNL     1       1.293  10.234  19.336  0.00  0.00    +0.000 A 
ATOM      4  C   UNL     1       1.648   8.890  19.459  0.00  0.00    +0.000 A 
ATOM      5  C   UNL     1       2.242   8.117  18.349  0.00  0.00    +0.000 A 
ATOM      6  O   UNL     1       2.496   8.566  17.231  0.00  0.00    +0.000 OA
ATOM      7  C   UNL     1       2.558   6.715  18.619  0.00  0.00    +0.000 A 
ATOM      8  C   UNL     1       2.310   6.210  19.840  0.00  0.00    +0.000 A 
ATOM      9  O   UNL     1       1.750   6.924  20.884  0.00  0.00    +0.000 OA
ATOM     10  C   UNL     1       1.448   8.250  20.681  0.00  0.00    +0.000 A 
ATOM     11  C   UNL     1       0.920   8.955  21.775  0.00  0.00    +0.000 A 
ENDROOT
BRANCH   8  12
ATOM     12  C   UNL     1       2.609   4.800  20.133  0.00  0.00    +0.000 A 
ATOM     13  C   UNL     1       1.867   4.107  21.105  0.00  0.00    +0.000 A 
ATOM     14  C   UNL     1       2.239   2.816  21.482  0.00  0.00    +0.000 A 
ATOM     15  C   UNL     1       3.296   2.177  20.839  0.00  0.00    +0.000 A 
ATOM     16  C   UNL     1       3.999   2.832  19.830  0.00  0.00    +0.000 A 
ATOM     17  C   UNL     1       3.659   4.139  19.480  0.00  0.00    +0.000 A 
ENDBRANCH   8  12
BRANCH   3  18
ATOM     18  O   UNL     1       1.473  10.887  18.151  0.00  0.00    +0.000 OA
ATOM     19  H   UNL     1       1.652  10.260  17.438  0.00  0.00    +0.000 HD
ENDBRANCH   3  18
BRANCH   1  20
ATOM     20  O   UNL     1       0.076  10.912  22.769  0.00  0.00    +0.000 OA
BRANCH  20  21
ATOM     21  C   UNL     1      -1.244  10.567  23.172  0.00  0.00    +0.000 C 
BRANCH  21  22
ATOM     22  C   UNL     1      -2.149  11.790  23.140  0.00  0.00    +0.000 C 
ATOM     23  O   UNL     1      -3.306  11.793  23.511  0.00  0.00    +0.000 OA
BRANCH  22  24
ATOM     24  O   UNL     1      -1.506  12.871  22.595  0.00  0.00    +0.000 OA
BRANCH  24  25
ATOM     25  C   UNL     1      -2.235  13.518  21.533  0.00  0.00    +0.000 C 
BRANCH  25  26
ATOM     26  C   UNL     1      -2.506  12.571  20.372  0.00  0.00    +0.000 C 
BRANCH  26  27
ATOM     27  C   UNL     1      -1.611  12.889  19.171  0.00  0.00    +0.000 C 
BRANCH  27  28
ATOM     28  C   UNL     1      -1.923  11.964  17.998  0.00  0.00    +0.000 C 
BRANCH  28  29
ATOM     29  C   UNL     1      -3.082  11.031  18.332  0.00  0.00    +0.000 C 
BRANCH  29  30
ATOM     30  C   UNL     1      -4.275  11.317  17.429  0.00  0.00    +0.000 C 
BRANCH  30  31
ATOM     31  C   UNL     1      -5.403  11.960  18.225  0.00  0.00    +0.000 C 
BRANCH  31  33
ATOM     32  C   UNL     1      -7.206  11.093  19.722  0.00  0.00    +0.000 C 
ATOM     33  C   UNL     1      -6.591  11.012  18.337  0.00  0.00    +0.000 C 
ENDBRANCH  31  33
ENDBRANCH  30  31
ENDBRANCH  29  30
ENDBRANCH  28  29
ENDBRANCH  27  28
ENDBRANCH  26  27
ENDBRANCH  25  26
ENDBRANCH  24  25
ENDBRANCH  22  24
ENDBRANCH  21  22
ENDBRANCH  20  21
ENDBRANCH   1  20
TORSDOF 14
ENDMDL
MODEL 9
REMARK VINA RESULT:      -6.9      2.008      3.206
REMARK  Name = 
REMARK  15 active torsions:
REMARK  status: ('A' for Active; 'I' for Inactive)
REMARK    1  A    between atoms: C_1  and  C_2
REMARK    2  A    between atoms: C_2  and  C_3
REMARK    3  A    between atoms: C_3  and  C_4
REMARK    4  A    between atoms: C_4  and  C_5
REMARK    5  A    between atoms: C_5  and  C_6
REMARK    6  A    between atoms: C_6  and  C_7
REMARK    7  A    between atoms: C_7  and  C_8
REMARK    8  A    between atoms: C_8  and  C_9
REMARK    9  A    between atoms: C_9  and  O_10
REMARK   10  A    between atoms: O_10  and  C_11
REMARK   11  A    between atoms: C_11  and  C_13
REMARK   12  A    between atoms: C_13  and  O_14
REMARK   13  A    between atoms: O_14  and  C_15
REMARK   14  A    between atoms: C_17  and  O_18
REMARK   15  A    between atoms: C_23  and  C_24
REMARK                            x       y       z     vdW  Elec       q    Type
REMARK                         _______ _______ _______ _____ _____    ______ ____
ROOT
ATOM      1  C   UNL     1       4.096   6.300  17.671  0.00  0.00    +0.000 A 
ATOM      2  C   UNL     1       3.751   5.539  18.786  0.00  0.00    +0.000 A 
ATOM      3  C   UNL     1       2.856   6.048  19.733  0.00  0.00    +0.000 A 
ATOM      4  C   UNL     1       2.293   7.316  19.583  0.00  0.00    +0.000 A 
ATOM      5  C   UNL     1       1.363   7.900  20.573  0.00  0.00    +0.000 A 
ATOM      6  O   UNL     1       1.006   7.352  21.616  0.00  0.00    +0.000 OA
ATOM      7  C   UNL     1       0.846   9.236  20.281  0.00  0.00    +0.000 A 
ATOM      8  C   UNL     1       1.240   9.862  19.159  0.00  0.00    +0.000 A 
ATOM      9  O   UNL     1       2.106   9.323  18.224  0.00  0.00    +0.000 OA
ATOM     10  C   UNL     1       2.628   8.073  18.462  0.00  0.00    +0.000 A 
ATOM     11  C   UNL     1       3.537   7.575  17.513  0.00  0.00    +0.000 A 
ENDROOT
BRANCH   8  12
ATOM     12  C   UNL     1       0.725  11.202  18.839  0.00  0.00    +0.000 A 
ATOM     13  C   UNL     1       1.612  12.278  18.665  0.00  0.00    +0.000 A 
ATOM     14  C   UNL     1       1.121  13.573  18.501  0.00  0.00    +0.000 A 
ATOM     15  C   UNL     1      -0.252  13.795  18.425  0.00  0.00    +0.000 A 
ATOM     16  C   UNL     1      -1.140  12.727  18.533  0.00  0.00    +0.000 A 
ATOM     17  C   UNL     1      -0.655  11.435  18.742  0.00  0.00    +0.000 A 
ENDBRANCH   8  12
BRANCH   3  18
ATOM     18  O   UNL     1       2.543   5.282  20.819  0.00  0.00    +0.000 OA
ATOM     19  H   UNL     1       3.313   5.168  21.390  0.00  0.00    +0.000 HD
ENDBRANCH   3  18
BRANCH   1  20
ATOM     20  O   UNL     1       4.984   5.908  16.704  0.00  0.00    +0.000 OA
BRANCH  20  21
ATOM     21  C   UNL     1       6.214   6.617  16.626  0.00  0.00    +0.000 C 
BRANCH  21  22
ATOM     22  C   UNL     1       7.263   5.968  17.518  0.00  0.00    +0.000 C 
ATOM     23  O   UNL     1       7.463   4.771  17.577  0.00  0.00    +0.000 OA
BRANCH  22  24
ATOM     24  O   UNL     1       7.917   6.903  18.279  0.00  0.00    +0.000 OA
BRANCH  24  25
ATOM     25  C   UNL     1       7.891   8.234  17.727  0.00  0.00    +0.000 C 
BRANCH  25  26
ATOM     26  C   UNL     1       8.682   9.217  18.579  0.00  0.00    +0.000 C 
BRANCH  26  27
ATOM     27  C   UNL     1       8.553  10.647  18.050  0.00  0.00    +0.000 C 
BRANCH  27  28
ATOM     28  C   UNL     1       9.911  11.342  18.012  0.00  0.00    +0.000 C 
BRANCH  28  29
ATOM     29  C   UNL     1      10.712  11.039  19.274  0.00  0.00    +0.000 C 
BRANCH  29  30
ATOM     30  C   UNL     1      11.372  12.305  19.805  0.00  0.00    +0.000 C 
BRANCH  30  31
ATOM     31  C   UNL     1      10.351  13.174  20.528  0.00  0.00    +0.000 C 
BRANCH  31  33
ATOM     32  C   UNL     1       8.267  12.956  21.889  0.00  0.00    +0.000 C 
ATOM     33  C   UNL     1       9.643  12.378  21.618  0.00  0.00    +0.000 C 
ENDBRANCH  31  33
ENDBRANCH  30  31
ENDBRANCH  29  30
ENDBRANCH  28  29
ENDBRANCH  27  28
ENDBRANCH  26  27
ENDBRANCH  25  26
ENDBRANCH  24  25
ENDBRANCH  22  24
ENDBRANCH  21  22
ENDBRANCH  20  21
ENDBRANCH   1  20
TORSDOF 14
ENDMDL
