MODEL 1
REMARK VINA RESULT:      -7.3      0.000      0.000
REMARK  Name = 
REMARK  13 active torsions:
REMARK  status: ('A' for Active; 'I' for Inactive)
REMARK    1  A    between atoms: C_1  and  C_2
REMARK    2  A    between atoms: C_5  and  N_6
REMARK    3  A    between atoms: N_9  and  C_10
REMARK    4  A    between atoms: C_10  and  C_11
REMARK    5  A    between atoms: C_11  and  C_12
REMARK    6  A    between atoms: C_12  and  C_13
REMARK    7  A    between atoms: C_13  and  C_14
REMARK    8  A    between atoms: C_14  and  C_15
REMARK    9  A    between atoms: C_15  and  C_16
REMARK   10  A    between atoms: C_16  and  C_17
REMARK   11  A    between atoms: C_17  and  C_18
REMARK   12  A    between atoms: C_18  and  C_19
REMARK   13  A    between atoms: C_19  and  N_20
REMARK                            x       y       z     vdW  Elec       q    Type
REMARK                         _______ _______ _______ _____ _____    ______ ____
ROOT
ATOM      1  C   UNL     1       1.222   3.014  21.190  0.00  0.00    +0.000 C 
ENDROOT
BRANCH   1   2
ATOM      2  C   UNL     1       1.023   4.259  20.343  0.00  0.00    +0.000 C 
BRANCH   2   3
ATOM      3  C   UNL     1       1.881   5.407  20.861  0.00  0.00    +0.000 C 
BRANCH   3   4
ATOM      4  C   UNL     1       2.569   6.082  19.704  0.00  0.00    +0.000 C 
BRANCH   4   5
ATOM      5  C   UNL     1       2.154   7.542  19.597  0.00  0.00    +0.000 C 
BRANCH   5   6
ATOM      6  C   UNL     1       1.276   7.922  20.784  0.00  0.00    +0.000 C 
BRANCH   6   7
ATOM      7  C   UNL     1       1.525   9.359  21.243  0.00  0.00    +0.000 C 
BRANCH   7  13
ATOM      8  C   UNL     1      -0.779  10.244  23.184  0.00  0.00    +0.000 C 
ATOM      9  C   UNL     1      -0.577  10.682  21.775  0.00  0.00    +0.000 A 
ATOM     10  N   UNL     1      -1.346  11.567  21.165  0.00  0.00    +0.000 NA
ATOM     11  C   UNL     1      -0.829  11.731  19.908  0.00  0.00    +0.000 A 
ATOM     12  C   UNL     1       0.252  10.918  19.744  0.00  0.00    +0.000 A 
ATOM     13  N   UNL     1       0.424  10.245  20.925  0.00  0.00    +0.000 N 
BRANCH  12  14
ATOM     14  N   UNL     1       1.098  10.786  18.619  0.00  0.00    +0.000 N 
ATOM     15  O   UNL     1       2.035  11.584  18.539  0.00  0.00    +0.000 OA
ATOM     16  O   UNL     1       0.833   9.880  17.823  0.00  0.00    +0.000 OA
ENDBRANCH  12  14
ENDBRANCH   7  13
ENDBRANCH   6   7
ENDBRANCH   5   6
ENDBRANCH   4   5
ENDBRANCH   3   4
ENDBRANCH   2   3
ENDBRANCH   1   2
BRANCH   1  17
ATOM     17  C   UNL     1       1.926   1.909  20.407  0.00  0.00    +0.000 C 
BRANCH  17  18
ATOM     18  C   UNL     1       1.827   2.176  18.917  0.00  0.00    +0.000 C 
BRANCH  18  19
ATOM     19  C   UNL     1       3.162   1.885  18.239  0.00  0.00    +0.000 C 
BRANCH  19  20
ATOM     20  N   UNL     1       3.909   3.107  18.013  0.00  0.00    +0.000 N 
ATOM     21  C   UNL     1       3.634   3.901  16.925  0.00  0.00    +0.000 A 
ATOM     22  N   UNL     1       4.251   4.997  16.634  0.00  0.00    +0.000 NA
ATOM     23  C   UNL     1       5.311   5.385  17.468  0.00  0.00    +0.000 A 
ATOM     24  C   UNL     1       6.038   6.532  17.147  0.00  0.00    +0.000 A 
ATOM     25  C   UNL     1       7.147   6.895  17.915  0.00  0.00    +0.000 A 
ATOM     26 CL   UNL     1       8.069   8.282  17.481  0.00  0.00    +0.000 Cl
ATOM     27  C   UNL     1       7.529   6.136  19.020  0.00  0.00    +0.000 A 
ATOM     28  C   UNL     1       6.792   5.007  19.368  0.00  0.00    +0.000 A 
ATOM     29  C   UNL     1       5.691   4.640  18.586  0.00  0.00    +0.000 A 
ATOM     30  C   UNL     1       4.921   3.429  18.905  0.00  0.00    +0.000 A 
ATOM     31  O   UNL     1       5.197   2.773  19.904  0.00  0.00    +0.000 OA
ENDBRANCH  19  20
ENDBRANCH  18  19
ENDBRANCH  17  18
ENDBRANCH   1  17
TORSDOF 12
ENDMDL
MODEL 2
REMARK VINA RESULT:      -7.2      1.586      2.047
REMARK  Name = 
REMARK  13 active torsions:
REMARK  status: ('A' for Active; 'I' for Inactive)
REMARK    1  A    between atoms: C_1  and  C_2
REMARK    2  A    between atoms: C_5  and  N_6
REMARK    3  A    between atoms: N_9  and  C_10
REMARK    4  A    between atoms: C_10  and  C_11
REMARK    5  A    between atoms: C_11  and  C_12
REMARK    6  A    between atoms: C_12  and  C_13
REMARK    7  A    between atoms: C_13  and  C_14
REMARK    8  A    between atoms: C_14  and  C_15
REMARK    9  A    between atoms: C_15  and  C_16
REMARK   10  A    between atoms: C_16  and  C_17
REMARK   11  A    between atoms: C_17  and  C_18
REMARK   12  A    between atoms: C_18  and  C_19
REMARK   13  A    between atoms: C_19  and  N_20
REMARK                            x       y       z     vdW  Elec       q    Type
REMARK                         _______ _______ _______ _____ _____    ______ ____
ROOT
ATOM      1  C   UNL     1       1.353   4.090  20.614  0.00  0.00    +0.000 C 
ENDROOT
BRANCH   1   2
ATOM      2  C   UNL     1       1.355   5.609  20.595  0.00  0.00    +0.000 C 
BRANCH   2   3
ATOM      3  C   UNL     1       2.478   6.135  19.709  0.00  0.00    +0.000 C 
BRANCH   3   4
ATOM      4  C   UNL     1       2.323   7.622  19.531  0.00  0.00    +0.000 C 
BRANCH   4   5
ATOM      5  C   UNL     1       2.204   7.987  18.059  0.00  0.00    +0.000 C 
BRANCH   5   6
ATOM      6  C   UNL     1       1.806   9.452  17.917  0.00  0.00    +0.000 C 
BRANCH   6   7
ATOM      7  C   UNL     1       1.041   9.958  19.142  0.00  0.00    +0.000 C 
BRANCH   7  13
ATOM      8  C   UNL     1      -1.586   9.912  17.421  0.00  0.00    +0.000 C 
ATOM      9  C   UNL     1      -0.992  11.086  18.121  0.00  0.00    +0.000 A 
ATOM     10  N   UNL     1      -1.550  12.284  18.142  0.00  0.00    +0.000 NA
ATOM     11  C   UNL     1      -0.734  13.078  18.903  0.00  0.00    +0.000 A 
ATOM     12  C   UNL     1       0.342  12.361  19.329  0.00  0.00    +0.000 A 
ATOM     13  N   UNL     1       0.190  11.091  18.839  0.00  0.00    +0.000 N 
BRANCH  12  14
ATOM     14  N   UNL     1       1.411  12.775  20.156  0.00  0.00    +0.000 N 
ATOM     15  O   UNL     1       2.481  13.017  19.591  0.00  0.00    +0.000 OA
ATOM     16  O   UNL     1       1.181  12.867  21.366  0.00  0.00    +0.000 OA
ENDBRANCH  12  14
ENDBRANCH   7  13
ENDBRANCH   6   7
ENDBRANCH   5   6
ENDBRANCH   4   5
ENDBRANCH   3   4
ENDBRANCH   2   3
ENDBRANCH   1   2
BRANCH   1  17
ATOM     17  C   UNL     1       1.485   3.509  19.209  0.00  0.00    +0.000 C 
BRANCH  17  18
ATOM     18  C   UNL     1       2.057   2.106  19.273  0.00  0.00    +0.000 C 
BRANCH  18  19
ATOM     19  C   UNL     1       3.112   1.917  18.186  0.00  0.00    +0.000 C 
BRANCH  19  20
ATOM     20  N   UNL     1       3.868   3.137  17.976  0.00  0.00    +0.000 N 
ATOM     21  C   UNL     1       3.600   3.945  16.897  0.00  0.00    +0.000 A 
ATOM     22  N   UNL     1       4.226   5.040  16.621  0.00  0.00    +0.000 NA
ATOM     23  C   UNL     1       5.287   5.412  17.461  0.00  0.00    +0.000 A 
ATOM     24  C   UNL     1       6.023   6.557  17.156  0.00  0.00    +0.000 A 
ATOM     25  C   UNL     1       7.132   6.903  17.931  0.00  0.00    +0.000 A 
ATOM     26 CL   UNL     1       8.066   8.288  17.516  0.00  0.00    +0.000 Cl
ATOM     27  C   UNL     1       7.507   6.128  19.028  0.00  0.00    +0.000 A 
ATOM     28  C   UNL     1       6.760   5.000  19.360  0.00  0.00    +0.000 A 
ATOM     29  C   UNL     1       5.659   4.650  18.572  0.00  0.00    +0.000 A 
ATOM     30  C   UNL     1       4.880   3.441  18.874  0.00  0.00    +0.000 A 
ATOM     31  O   UNL     1       5.148   2.771  19.867  0.00  0.00    +0.000 OA
ENDBRANCH  19  20
ENDBRANCH  18  19
ENDBRANCH  17  18
ENDBRANCH   1  17
TORSDOF 12
ENDMDL
MODEL 3
REMARK VINA RESULT:      -7.2      1.430      2.009
REMARK  Name = 
REMARK  13 active torsions:
REMARK  status: ('A' for Active; 'I' for Inactive)
REMARK    1  A    between atoms: C_1  and  C_2
REMARK    2  A    between atoms: C_5  and  N_6
REMARK    3  A    between atoms: N_9  and  C_10
REMARK    4  A    between atoms: C_10  and  C_11
REMARK    5  A    between atoms: C_11  and  C_12
REMARK    6  A    between atoms: C_12  and  C_13
REMARK    7  A    between atoms: C_13  and  C_14
REMARK    8  A    between atoms: C_14  and  C_15
REMARK    9  A    between atoms: C_15  and  C_16
REMARK   10  A    between atoms: C_16  and  C_17
REMARK   11  A    between atoms: C_17  and  C_18
REMARK   12  A    between atoms: C_18  and  C_19
REMARK   13  A    between atoms: C_19  and  N_20
REMARK                            x       y       z     vdW  Elec       q    Type
REMARK                         _______ _______ _______ _____ _____    ______ ____
ROOT
ATOM      1  C   UNL     1       1.848   4.277  21.124  0.00  0.00    +0.000 C 
ENDROOT
BRANCH   1   2
ATOM      2  C   UNL     1       1.258   5.425  20.323  0.00  0.00    +0.000 C 
BRANCH   2   3
ATOM      3  C   UNL     1       2.299   6.515  20.097  0.00  0.00    +0.000 C 
BRANCH   3   4
ATOM      4  C   UNL     1       2.112   7.111  18.727  0.00  0.00    +0.000 C 
BRANCH   4   5
ATOM      5  C   UNL     1       1.848   8.607  18.813  0.00  0.00    +0.000 C 
BRANCH   5   6
ATOM      6  C   UNL     1       1.264   8.955  20.177  0.00  0.00    +0.000 C 
BRANCH   6   7
ATOM      7  C   UNL     1      -0.092   9.654  20.057  0.00  0.00    +0.000 C 
BRANCH   7  13
ATOM      8  C   UNL     1      -0.687   9.897  23.131  0.00  0.00    +0.000 C 
ATOM      9  C   UNL     1      -0.375  11.007  22.188  0.00  0.00    +0.000 A 
ATOM     10  N   UNL     1      -0.260  12.271  22.557  0.00  0.00    +0.000 NA
ATOM     11  C   UNL     1       0.061  12.977  21.428  0.00  0.00    +0.000 A 
ATOM     12  C   UNL     1       0.117  12.137  20.358  0.00  0.00    +0.000 A 
ATOM     13  N   UNL     1      -0.158  10.880  20.827  0.00  0.00    +0.000 N 
BRANCH  12  14
ATOM     14  N   UNL     1       0.438  12.435  19.014  0.00  0.00    +0.000 N 
ATOM     15  O   UNL     1      -0.500  12.764  18.285  0.00  0.00    +0.000 OA
ATOM     16  O   UNL     1       1.627  12.349  18.690  0.00  0.00    +0.000 OA
ENDBRANCH  12  14
ENDBRANCH   7  13
ENDBRANCH   6   7
ENDBRANCH   5   6
ENDBRANCH   4   5
ENDBRANCH   3   4
ENDBRANCH   2   3
ENDBRANCH   1   2
BRANCH   1  17
ATOM     17  C   UNL     1       1.107   2.969  20.861  0.00  0.00    +0.000 C 
BRANCH  17  18
ATOM     18  C   UNL     1       1.061   2.682  19.372  0.00  0.00    +0.000 C 
BRANCH  18  19
ATOM     19  C   UNL     1       2.326   1.946  18.938  0.00  0.00    +0.000 C 
BRANCH  19  20
ATOM     20  N   UNL     1       3.428   2.871  18.752  0.00  0.00    +0.000 N 
ATOM     21  C   UNL     1       4.468   2.903  19.650  0.00  0.00    +0.000 A 
ATOM     22  N   UNL     1       5.483   3.697  19.577  0.00  0.00    +0.000 NA
ATOM     23  C   UNL     1       5.507   4.626  18.525  0.00  0.00    +0.000 A 
ATOM     24  C   UNL     1       6.559   5.539  18.452  0.00  0.00    +0.000 A 
ATOM     25  C   UNL     1       6.564   6.523  17.461  0.00  0.00    +0.000 A 
ATOM     26 CL   UNL     1       7.839   7.678  17.411  0.00  0.00    +0.000 Cl
ATOM     27  C   UNL     1       5.535   6.596  16.522  0.00  0.00    +0.000 A 
ATOM     28  C   UNL     1       4.495   5.671  16.568  0.00  0.00    +0.000 A 
ATOM     29  C   UNL     1       4.489   4.696  17.571  0.00  0.00    +0.000 A 
ATOM     30  C   UNL     1       3.383   3.733  17.667  0.00  0.00    +0.000 A 
ATOM     31  O   UNL     1       2.493   3.735  16.822  0.00  0.00    +0.000 OA
ENDBRANCH  19  20
ENDBRANCH  18  19
ENDBRANCH  17  18
ENDBRANCH   1  17
TORSDOF 12
ENDMDL
MODEL 4
REMARK VINA RESULT:      -7.2      1.857      2.682
REMARK  Name = 
REMARK  13 active torsions:
REMARK  status: ('A' for Active; 'I' for Inactive)
REMARK    1  A    between atoms: C_1  and  C_2
REMARK    2  A    between atoms: C_5  and  N_6
REMARK    3  A    between atoms: N_9  and  C_10
REMARK    4  A    between atoms: C_10  and  C_11
REMARK    5  A    between atoms: C_11  and  C_12
REMARK    6  A    between atoms: C_12  and  C_13
REMARK    7  A    between atoms: C_13  and  C_14
REMARK    8  A    between atoms: C_14  and  C_15
REMARK    9  A    between atoms: C_15  and  C_16
REMARK   10  A    between atoms: C_16  and  C_17
REMARK   11  A    between atoms: C_17  and  C_18
REMARK   12  A    between atoms: C_18  and  C_19
REMARK   13  A    between atoms: C_19  and  N_20
REMARK                            x       y       z     vdW  Elec       q    Type
REMARK                         _______ _______ _______ _____ _____    ______ ____
ROOT
ATOM      1  C   UNL     1       0.947   4.627  20.180  0.00  0.00    +0.000 C 
ENDROOT
BRANCH   1   2
ATOM      2  C   UNL     1       2.112   5.478  20.653  0.00  0.00    +0.000 C 
BRANCH   2   3
ATOM      3  C   UNL     1       1.978   6.908  20.143  0.00  0.00    +0.000 C 
BRANCH   3   4
ATOM      4  C   UNL     1       1.204   7.728  21.141  0.00  0.00    +0.000 C 
BRANCH   4   5
ATOM      5  C   UNL     1       1.077   9.172  20.682  0.00  0.00    +0.000 C 
BRANCH   5   6
ATOM      6  C   UNL     1       1.029   9.231  19.159  0.00  0.00    +0.000 C 
BRANCH   6   7
ATOM      7  C   UNL     1       1.079  10.670  18.641  0.00  0.00    +0.000 C 
BRANCH   7  13
ATOM      8  C   UNL     1      -1.665   9.986  17.276  0.00  0.00    +0.000 C 
ATOM      9  C   UNL     1      -1.402  11.064  18.270  0.00  0.00    +0.000 A 
ATOM     10  N   UNL     1      -2.340  11.861  18.751  0.00  0.00    +0.000 NA
ATOM     11  C   UNL     1      -1.723  12.688  19.652  0.00  0.00    +0.000 A 
ATOM     12  C   UNL     1      -0.392  12.406  19.701  0.00  0.00    +0.000 A 
ATOM     13  N   UNL     1      -0.174  11.373  18.827  0.00  0.00    +0.000 N 
BRANCH  12  14
ATOM     14  N   UNL     1       0.609  12.993  20.508  0.00  0.00    +0.000 N 
ATOM     15  O   UNL     1       0.702  12.569  21.663  0.00  0.00    +0.000 OA
ATOM     16  O   UNL     1       1.307  13.868  19.986  0.00  0.00    +0.000 OA
ENDBRANCH  12  14
ENDBRANCH   7  13
ENDBRANCH   6   7
ENDBRANCH   5   6
ENDBRANCH   4   5
ENDBRANCH   3   4
ENDBRANCH   2   3
ENDBRANCH   1   2
BRANCH   1  17
ATOM     17  C   UNL     1       1.187   3.144  20.451  0.00  0.00    +0.000 C 
BRANCH  17  18
ATOM     18  C   UNL     1       1.025   2.344  19.173  0.00  0.00    +0.000 C 
BRANCH  18  19
ATOM     19  C   UNL     1       2.342   1.665  18.806  0.00  0.00    +0.000 C 
BRANCH  19  20
ATOM     20  N   UNL     1       3.416   2.634  18.699  0.00  0.00    +0.000 N 
ATOM     21  C   UNL     1       4.393   2.700  19.664  0.00  0.00    +0.000 A 
ATOM     22  N   UNL     1       5.378   3.534  19.662  0.00  0.00    +0.000 NA
ATOM     23  C   UNL     1       5.433   4.472  18.620  0.00  0.00    +0.000 A 
ATOM     24  C   UNL     1       6.451   5.427  18.621  0.00  0.00    +0.000 A 
ATOM     25  C   UNL     1       6.480   6.419  17.639  0.00  0.00    +0.000 A 
ATOM     26 CL   UNL     1       7.709   7.624  17.679  0.00  0.00    +0.000 Cl
ATOM     27  C   UNL     1       5.514   6.458  16.634  0.00  0.00    +0.000 A 
ATOM     28  C   UNL     1       4.512   5.492  16.605  0.00  0.00    +0.000 A 
ATOM     29  C   UNL     1       4.479   4.509  17.600  0.00  0.00    +0.000 A 
ATOM     30  C   UNL     1       3.408   3.502  17.618  0.00  0.00    +0.000 A 
ATOM     31  O   UNL     1       2.577   3.475  16.716  0.00  0.00    +0.000 OA
ENDBRANCH  19  20
ENDBRANCH  18  19
ENDBRANCH  17  18
ENDBRANCH   1  17
TORSDOF 12
ENDMDL
MODEL 5
REMARK VINA RESULT:      -6.7      3.502      9.140
REMARK  Name = 
REMARK  13 active torsions:
REMARK  status: ('A' for Active; 'I' for Inactive)
REMARK    1  A    between atoms: C_1  and  C_2
REMARK    2  A    between atoms: C_5  and  N_6
REMARK    3  A    between atoms: N_9  and  C_10
REMARK    4  A    between atoms: C_10  and  C_11
REMARK    5  A    between atoms: C_11  and  C_12
REMARK    6  A    between atoms: C_12  and  C_13
REMARK    7  A    between atoms: C_13  and  C_14
REMARK    8  A    between atoms: C_14  and  C_15
REMARK    9  A    between atoms: C_15  and  C_16
REMARK   10  A    between atoms: C_16  and  C_17
REMARK   11  A    between atoms: C_17  and  C_18
REMARK   12  A    between atoms: C_18  and  C_19
REMARK   13  A    between atoms: C_19  and  N_20
REMARK                            x       y       z     vdW  Elec       q    Type
REMARK                         _______ _______ _______ _____ _____    ______ ____
ROOT
ATOM      1  C   UNL     1       2.064   7.698  19.119  0.00  0.00    +0.000 C 
ENDROOT
BRANCH   1   2
ATOM      2  C   UNL     1       2.803   6.425  18.744  0.00  0.00    +0.000 C 
BRANCH   2   3
ATOM      3  C   UNL     1       1.988   5.195  19.128  0.00  0.00    +0.000 C 
BRANCH   3   4
ATOM      4  C   UNL     1       1.495   4.510  17.881  0.00  0.00    +0.000 C 
BRANCH   4   5
ATOM      5  C   UNL     1       2.461   3.423  17.435  0.00  0.00    +0.000 C 
BRANCH   5   6
ATOM      6  C   UNL     1       3.451   3.991  16.424  0.00  0.00    +0.000 C 
BRANCH   6   7
ATOM      7  C   UNL     1       4.884   3.541  16.713  0.00  0.00    +0.000 C 
BRANCH   7  13
ATOM      8  C   UNL     1       4.873   3.019  19.810  0.00  0.00    +0.000 C 
ATOM      9  C   UNL     1       5.573   4.118  19.088  0.00  0.00    +0.000 A 
ATOM     10  N   UNL     1       6.344   5.011  19.685  0.00  0.00    +0.000 NA
ATOM     11  C   UNL     1       6.830   5.826  18.698  0.00  0.00    +0.000 A 
ATOM     12  C   UNL     1       6.330   5.439  17.492  0.00  0.00    +0.000 A 
ATOM     13  N   UNL     1       5.530   4.352  17.726  0.00  0.00    +0.000 N 
BRANCH  12  14
ATOM     14  N   UNL     1       6.587   5.981  16.211  0.00  0.00    +0.000 N 
ATOM     15  O   UNL     1       5.748   6.769  15.769  0.00  0.00    +0.000 OA
ATOM     16  O   UNL     1       7.630   5.626  15.653  0.00  0.00    +0.000 OA
ENDBRANCH  12  14
ENDBRANCH   7  13
ENDBRANCH   6   7
ENDBRANCH   5   6
ENDBRANCH   4   5
ENDBRANCH   3   4
ENDBRANCH   2   3
ENDBRANCH   1   2
BRANCH   1  17
ATOM     17  C   UNL     1       2.200   8.766  18.037  0.00  0.00    +0.000 C 
BRANCH  17  18
ATOM     18  C   UNL     1       0.957   9.634  17.998  0.00  0.00    +0.000 C 
BRANCH  18  19
ATOM     19  C   UNL     1       1.255  11.010  18.586  0.00  0.00    +0.000 C 
BRANCH  19  20
ATOM     20  N   UNL     1       0.440  11.262  19.759  0.00  0.00    +0.000 N 
ATOM     21  C   UNL     1       0.846  10.822  20.997  0.00  0.00    +0.000 A 
ATOM     22  N   UNL     1       0.185  10.988  22.093  0.00  0.00    +0.000 NA
ATOM     23  C   UNL     1      -1.061  11.627  22.010  0.00  0.00    +0.000 A 
ATOM     24  C   UNL     1      -1.829  11.767  23.167  0.00  0.00    +0.000 A 
ATOM     25  C   UNL     1      -3.106  12.327  23.096  0.00  0.00    +0.000 A 
ATOM     26 CL   UNL     1      -4.066  12.448  24.519  0.00  0.00    +0.000 Cl
ATOM     27  C   UNL     1      -3.623  12.774  21.880  0.00  0.00    +0.000 A 
ATOM     28  C   UNL     1      -2.853  12.667  20.724  0.00  0.00    +0.000 A 
ATOM     29  C   UNL     1      -1.581  12.091  20.800  0.00  0.00    +0.000 A 
ATOM     30  C   UNL     1      -0.764  11.928  19.588  0.00  0.00    +0.000 A 
ATOM     31  O   UNL     1      -1.167  12.363  18.514  0.00  0.00    +0.000 OA
ENDBRANCH  19  20
ENDBRANCH  18  19
ENDBRANCH  17  18
ENDBRANCH   1  17
TORSDOF 12
ENDMDL
MODEL 6
REMARK VINA RESULT:      -6.7      1.402      1.997
REMARK  Name = 
REMARK  13 active torsions:
REMARK  status: ('A' for Active; 'I' for Inactive)
REMARK    1  A    between atoms: C_1  and  C_2
REMARK    2  A    between atoms: C_5  and  N_6
REMARK    3  A    between atoms: N_9  and  C_10
REMARK    4  A    between atoms: C_10  and  C_11
REMARK    5  A    between atoms: C_11  and  C_12
REMARK    6  A    between atoms: C_12  and  C_13
REMARK    7  A    between atoms: C_13  and  C_14
REMARK    8  A    between atoms: C_14  and  C_15
REMARK    9  A    between atoms: C_15  and  C_16
REMARK   10  A    between atoms: C_16  and  C_17
REMARK   11  A    between atoms: C_17  and  C_18
REMARK   12  A    between atoms: C_18  and  C_19
REMARK   13  A    between atoms: C_19  and  N_20
REMARK                            x       y       z     vdW  Elec       q    Type
REMARK                         _______ _______ _______ _____ _____    ______ ____
ROOT
ATOM      1  C   UNL     1       1.104   4.094  20.526  0.00  0.00    +0.000 C 
ENDROOT
BRANCH   1   2
ATOM      2  C   UNL     1       1.433   5.161  19.496  0.00  0.00    +0.000 C 
BRANCH   2   3
ATOM      3  C   UNL     1       2.467   6.138  20.043  0.00  0.00    +0.000 C 
BRANCH   3   4
ATOM      4  C   UNL     1       1.973   7.548  19.856  0.00  0.00    +0.000 C 
BRANCH   4   5
ATOM      5  C   UNL     1       1.326   8.074  21.129  0.00  0.00    +0.000 C 
BRANCH   5   6
ATOM      6  C   UNL     1       0.301   9.149  20.785  0.00  0.00    +0.000 C 
BRANCH   6   7
ATOM      7  C   UNL     1       0.795  10.075  19.672  0.00  0.00    +0.000 C 
BRANCH   7  13
ATOM      8  C   UNL     1      -1.595  10.061  17.634  0.00  0.00    +0.000 C 
ATOM      9  C   UNL     1      -1.203  11.170  18.549  0.00  0.00    +0.000 A 
ATOM     10  N   UNL     1      -1.871  12.306  18.650  0.00  0.00    +0.000 NA
ATOM     11  C   UNL     1      -1.230  13.048  19.606  0.00  0.00    +0.000 A 
ATOM     12  C   UNL     1      -0.148  12.366  20.073  0.00  0.00    +0.000 A 
ATOM     13  N   UNL     1      -0.120  11.168  19.409  0.00  0.00    +0.000 N 
BRANCH  12  14
ATOM     14  N   UNL     1       0.772  12.744  21.077  0.00  0.00    +0.000 N 
ATOM     15  O   UNL     1       1.895  12.238  21.012  0.00  0.00    +0.000 OA
ATOM     16  O   UNL     1       0.377  13.553  21.923  0.00  0.00    +0.000 OA
ENDBRANCH  12  14
ENDBRANCH   7  13
ENDBRANCH   6   7
ENDBRANCH   5   6
ENDBRANCH   4   5
ENDBRANCH   3   4
ENDBRANCH   2   3
ENDBRANCH   1   2
BRANCH   1  17
ATOM     17  C   UNL     1       1.642   2.727  20.111  0.00  0.00    +0.000 C 
BRANCH  17  18
ATOM     18  C   UNL     1       1.720   2.631  18.599  0.00  0.00    +0.000 C 
BRANCH  18  19
ATOM     19  C   UNL     1       3.137   2.261  18.167  0.00  0.00    +0.000 C 
BRANCH  19  20
ATOM     20  N   UNL     1       3.944   3.448  17.961  0.00  0.00    +0.000 N 
ATOM     21  C   UNL     1       3.725   4.259  16.873  0.00  0.00    +0.000 A 
ATOM     22  N   UNL     1       4.398   5.326  16.600  0.00  0.00    +0.000 NA
ATOM     23  C   UNL     1       5.461   5.660  17.452  0.00  0.00    +0.000 A 
ATOM     24  C   UNL     1       6.247   6.773  17.151  0.00  0.00    +0.000 A 
ATOM     25  C   UNL     1       7.358   7.079  17.939  0.00  0.00    +0.000 A 
ATOM     26 CL   UNL     1       8.353   8.423  17.528  0.00  0.00    +0.000 Cl
ATOM     27  C   UNL     1       7.686   6.297  19.046  0.00  0.00    +0.000 A 
ATOM     28  C   UNL     1       6.890   5.202  19.375  0.00  0.00    +0.000 A 
ATOM     29  C   UNL     1       5.787   4.892  18.572  0.00  0.00    +0.000 A 
ATOM     30  C   UNL     1       4.955   3.718  18.872  0.00  0.00    +0.000 A 
ATOM     31  O   UNL     1       5.183   3.044  19.872  0.00  0.00    +0.000 OA
ENDBRANCH  19  20
ENDBRANCH  18  19
ENDBRANCH  17  18
ENDBRANCH   1  17
TORSDOF 12
ENDMDL
MODEL 7
REMARK VINA RESULT:      -6.6      2.088      2.907
REMARK  Name = 
REMARK  13 active torsions:
REMARK  status: ('A' for Active; 'I' for Inactive)
REMARK    1  A    between atoms: C_1  and  C_2
REMARK    2  A    between atoms: C_5  and  N_6
REMARK    3  A    between atoms: N_9  and  C_10
REMARK    4  A    between atoms: C_10  and  C_11
REMARK    5  A    between atoms: C_11  and  C_12
REMARK    6  A    between atoms: C_12  and  C_13
REMARK    7  A    between atoms: C_13  and  C_14
REMARK    8  A    between atoms: C_14  and  C_15
REMARK    9  A    between atoms: C_15  and  C_16
REMARK   10  A    between atoms: C_16  and  C_17
REMARK   11  A    between atoms: C_17  and  C_18
REMARK   12  A    between atoms: C_18  and  C_19
REMARK   13  A    between atoms: C_19  and  N_20
REMARK                            x       y       z     vdW  Elec       q    Type
REMARK                         _______ _______ _______ _____ _____    ______ ____
ROOT
ATOM      1  C   UNL     1       2.167   6.120  20.068  0.00  0.00    +0.000 C 
ENDROOT
BRANCH   1   2
ATOM      2  C   UNL     1       2.299   6.293  18.565  0.00  0.00    +0.000 C 
BRANCH   2   3
ATOM      3  C   UNL     1       2.652   7.735  18.217  0.00  0.00    +0.000 C 
BRANCH   3   4
ATOM      4  C   UNL     1       1.767   8.671  18.996  0.00  0.00    +0.000 C 
BRANCH   4   5
ATOM      5  C   UNL     1       1.419   9.904  18.177  0.00  0.00    +0.000 C 
BRANCH   5   6
ATOM      6  C   UNL     1       0.707  10.928  19.054  0.00  0.00    +0.000 C 
BRANCH   6   7
ATOM      7  C   UNL     1      -0.567  10.358  19.679  0.00  0.00    +0.000 C 
BRANCH   7  13
ATOM      8  C   UNL     1       0.585   9.080  22.307  0.00  0.00    +0.000 C 
ATOM      9  C   UNL     1      -0.252  10.308  22.199  0.00  0.00    +0.000 A 
ATOM     10  N   UNL     1      -0.581  11.063  23.233  0.00  0.00    +0.000 NA
ATOM     11  C   UNL     1      -1.317  12.104  22.734  0.00  0.00    +0.000 A 
ATOM     12  C   UNL     1      -1.457  11.968  21.387  0.00  0.00    +0.000 A 
ATOM     13  N   UNL     1      -0.783  10.829  21.033  0.00  0.00    +0.000 N 
BRANCH  12  14
ATOM     14  N   UNL     1      -2.114  12.823  20.473  0.00  0.00    +0.000 N 
ATOM     15  O   UNL     1      -3.283  12.541  20.198  0.00  0.00    +0.000 OA
ATOM     16  O   UNL     1      -1.466  13.781  20.038  0.00  0.00    +0.000 OA
ENDBRANCH  12  14
ENDBRANCH   7  13
ENDBRANCH   6   7
ENDBRANCH   5   6
ENDBRANCH   4   5
ENDBRANCH   3   4
ENDBRANCH   2   3
ENDBRANCH   1   2
BRANCH   1  17
ATOM     17  C   UNL     1       1.525   4.783  20.426  0.00  0.00    +0.000 C 
BRANCH  17  18
ATOM     18  C   UNL     1       2.551   3.861  21.059  0.00  0.00    +0.000 C 
BRANCH  18  19
ATOM     19  C   UNL     1       2.842   2.682  20.135  0.00  0.00    +0.000 C 
BRANCH  19  20
ATOM     20  N   UNL     1       3.496   3.124  18.918  0.00  0.00    +0.000 N 
ATOM     21  C   UNL     1       2.877   2.969  17.700  0.00  0.00    +0.000 A 
ATOM     22  N   UNL     1       3.383   3.318  16.565  0.00  0.00    +0.000 NA
ATOM     23  C   UNL     1       4.679   3.857  16.570  0.00  0.00    +0.000 A 
ATOM     24  C   UNL     1       5.278   4.188  15.354  0.00  0.00    +0.000 A 
ATOM     25  C   UNL     1       6.595   4.652  15.327  0.00  0.00    +0.000 A 
ATOM     26 CL   UNL     1       7.345   5.007  13.818  0.00  0.00    +0.000 Cl
ATOM     27  C   UNL     1       7.321   4.811  16.507  0.00  0.00    +0.000 A 
ATOM     28  C   UNL     1       6.721   4.513  17.728  0.00  0.00    +0.000 A 
ATOM     29  C   UNL     1       5.407   4.036  17.748  0.00  0.00    +0.000 A 
ATOM     30  C   UNL     1       4.764   3.673  19.020  0.00  0.00    +0.000 A 
ATOM     31  O   UNL     1       5.356   3.857  20.079  0.00  0.00    +0.000 OA
ENDBRANCH  19  20
ENDBRANCH  18  19
ENDBRANCH  17  18
ENDBRANCH   1  17
TORSDOF 12
ENDMDL
MODEL 8
REMARK VINA RESULT:      -6.5      1.900      2.693
REMARK  Name = 
REMARK  13 active torsions:
REMARK  status: ('A' for Active; 'I' for Inactive)
REMARK    1  A    between atoms: C_1  and  C_2
REMARK    2  A    between atoms: C_5  and  N_6
REMARK    3  A    between atoms: N_9  and  C_10
REMARK    4  A    between atoms: C_10  and  C_11
REMARK    5  A    between atoms: C_11  and  C_12
REMARK    6  A    between atoms: C_12  and  C_13
REMARK    7  A    between atoms: C_13  and  C_14
REMARK    8  A    between atoms: C_14  and  C_15
REMARK    9  A    between atoms: C_15  and  C_16
REMARK   10  A    between atoms: C_16  and  C_17
REMARK   11  A    between atoms: C_17  and  C_18
REMARK   12  A    between atoms: C_18  and  C_19
REMARK   13  A    between atoms: C_19  and  N_20
REMARK                            x       y       z     vdW  Elec       q    Type
REMARK                         _______ _______ _______ _____ _____    ______ ____
ROOT
ATOM      1  C   UNL     1       1.107   3.839  20.586  0.00  0.00    +0.000 C 
ENDROOT
BRANCH   1   2
ATOM      2  C   UNL     1       1.434   5.141  19.874  0.00  0.00    +0.000 C 
BRANCH   2   3
ATOM      3  C   UNL     1       2.086   6.131  20.833  0.00  0.00    +0.000 C 
BRANCH   3   4
ATOM      4  C   UNL     1       1.874   7.533  20.328  0.00  0.00    +0.000 C 
BRANCH   4   5
ATOM      5  C   UNL     1       0.983   8.325  21.273  0.00  0.00    +0.000 C 
BRANCH   5   6
ATOM      6  C   UNL     1       1.060   9.811  20.937  0.00  0.00    +0.000 C 
BRANCH   6   7
ATOM      7  C   UNL     1      -0.235  10.545  21.291  0.00  0.00    +0.000 C 
BRANCH   7  13
ATOM      8  C   UNL     1      -1.222  10.341  18.317  0.00  0.00    +0.000 C 
ATOM      9  C   UNL     1      -0.986  11.586  19.100  0.00  0.00    +0.000 A 
ATOM     10  N   UNL     1      -1.221  12.801  18.634  0.00  0.00    +0.000 NA
ATOM     11  C   UNL     1      -0.918  13.671  19.646  0.00  0.00    +0.000 A 
ATOM     12  C   UNL     1      -0.472  12.980  20.731  0.00  0.00    +0.000 A 
ATOM     13  N   UNL     1      -0.511  11.652  20.398  0.00  0.00    +0.000 N 
BRANCH  12  14
ATOM     14  N   UNL     1      -0.078  13.474  21.996  0.00  0.00    +0.000 N 
ATOM     15  O   UNL     1       1.074  13.905  22.083  0.00  0.00    +0.000 OA
ATOM     16  O   UNL     1      -0.922  13.439  22.898  0.00  0.00    +0.000 OA
ENDBRANCH  12  14
ENDBRANCH   7  13
ENDBRANCH   6   7
ENDBRANCH   5   6
ENDBRANCH   4   5
ENDBRANCH   3   4
ENDBRANCH   2   3
ENDBRANCH   1   2
BRANCH   1  17
ATOM     17  C   UNL     1       0.742   2.735  19.598  0.00  0.00    +0.000 C 
BRANCH  17  18
ATOM     18  C   UNL     1       1.911   1.784  19.420  0.00  0.00    +0.000 C 
BRANCH  18  19
ATOM     19  C   UNL     1       2.601   2.041  18.083  0.00  0.00    +0.000 C 
BRANCH  19  20
ATOM     20  N   UNL     1       3.711   2.960  18.239  0.00  0.00    +0.000 N 
ATOM     21  C   UNL     1       4.487   2.930  19.374  0.00  0.00    +0.000 A 
ATOM     22  N   UNL     1       5.485   3.714  19.607  0.00  0.00    +0.000 NA
ATOM     23  C   UNL     1       5.775   4.699  18.651  0.00  0.00    +0.000 A 
ATOM     24  C   UNL     1       6.810   5.602  18.901  0.00  0.00    +0.000 A 
ATOM     25  C   UNL     1       7.065   6.639  18.003  0.00  0.00    +0.000 A 
ATOM     26 CL   UNL     1       8.309   7.780  18.346  0.00  0.00    +0.000 Cl
ATOM     27  C   UNL     1       6.312   6.777  16.837  0.00  0.00    +0.000 A 
ATOM     28  C   UNL     1       5.298   5.863  16.562  0.00  0.00    +0.000 A 
ATOM     29  C   UNL     1       5.037   4.834  17.473  0.00  0.00    +0.000 A 
ATOM     30  C   UNL     1       3.944   3.882  17.229  0.00  0.00    +0.000 A 
ATOM     31  O   UNL     1       3.301   3.941  16.185  0.00  0.00    +0.000 OA
ENDBRANCH  19  20
ENDBRANCH  18  19
ENDBRANCH  17  18
ENDBRANCH   1  17
TORSDOF 12
ENDMDL
MODEL 9
REMARK VINA RESULT:      -6.5      2.939      7.931
REMARK  Name = 
REMARK  13 active torsions:
REMARK  status: ('A' for Active; 'I' for Inactive)
REMARK    1  A    between atoms: C_1  and  C_2
REMARK    2  A    between atoms: C_5  and  N_6
REMARK    3  A    between atoms: N_9  and  C_10
REMARK    4  A    between atoms: C_10  and  C_11
REMARK    5  A    between atoms: C_11  and  C_12
REMARK    6  A    between atoms: C_12  and  C_13
REMARK    7  A    between atoms: C_13  and  C_14
REMARK    8  A    between atoms: C_14  and  C_15
REMARK    9  A    between atoms: C_15  and  C_16
REMARK   10  A    between atoms: C_16  and  C_17
REMARK   11  A    between atoms: C_17  and  C_18
REMARK   12  A    between atoms: C_18  and  C_19
REMARK   13  A    between atoms: C_19  and  N_20
REMARK                            x       y       z     vdW  Elec       q    Type
REMARK                         _______ _______ _______ _____ _____    ______ ____
ROOT
ATOM      1  C   UNL     1       5.177   7.136  16.359  0.00  0.00    +0.000 C 
ENDROOT
BRANCH   1   2
ATOM      2  C   UNL     1       5.766   5.789  15.977  0.00  0.00    +0.000 C 
BRANCH   2   3
ATOM      3  C   UNL     1       7.091   5.557  16.693  0.00  0.00    +0.000 C 
BRANCH   3   4
ATOM      4  C   UNL     1       6.886   4.590  17.829  0.00  0.00    +0.000 C 
BRANCH   4   5
ATOM      5  C   UNL     1       6.532   5.322  19.114  0.00  0.00    +0.000 C 
BRANCH   5   6
ATOM      6  C   UNL     1       5.054   5.127  19.434  0.00  0.00    +0.000 C 
BRANCH   6   7
ATOM      7  C   UNL     1       4.664   3.649  19.455  0.00  0.00    +0.000 C 
BRANCH   7  13
ATOM      8  C   UNL     1       3.480   3.288  16.569  0.00  0.00    +0.000 C 
ATOM      9  C   UNL     1       2.734   3.230  17.857  0.00  0.00    +0.000 A 
ATOM     10  N   UNL     1       1.443   2.961  17.945  0.00  0.00    +0.000 NA
ATOM     11  C   UNL     1       1.136   2.966  19.280  0.00  0.00    +0.000 A 
ATOM     12  C   UNL     1       2.246   3.264  20.009  0.00  0.00    +0.000 A 
ATOM     13  N   UNL     1       3.271   3.434  19.116  0.00  0.00    +0.000 N 
BRANCH  12  14
ATOM     14  N   UNL     1       2.388   3.348  21.413  0.00  0.00    +0.000 N 
ATOM     15  O   UNL     1       2.219   4.461  21.916  0.00  0.00    +0.000 OA
ATOM     16  O   UNL     1       2.659   2.303  22.012  0.00  0.00    +0.000 OA
ENDBRANCH  12  14
ENDBRANCH   7  13
ENDBRANCH   6   7
ENDBRANCH   5   6
ENDBRANCH   4   5
ENDBRANCH   3   4
ENDBRANCH   2   3
ENDBRANCH   1   2
BRANCH   1  17
ATOM     17  C   UNL     1       3.725   7.007  16.810  0.00  0.00    +0.000 C 
BRANCH  17  18
ATOM     18  C   UNL     1       3.402   8.064  17.849  0.00  0.00    +0.000 C 
BRANCH  18  19
ATOM     19  C   UNL     1       2.349   7.542  18.823  0.00  0.00    +0.000 C 
BRANCH  19  20
ATOM     20  N   UNL     1       1.458   8.605  19.246  0.00  0.00    +0.000 N 
ATOM     21  C   UNL     1       1.020   9.546  18.345  0.00  0.00    +0.000 A 
ATOM     22  N   UNL     1       0.239  10.534  18.629  0.00  0.00    +0.000 NA
ATOM     23  C   UNL     1      -0.160  10.683  19.966  0.00  0.00    +0.000 A 
ATOM     24  C   UNL     1      -0.955  11.774  20.318  0.00  0.00    +0.000 A 
ATOM     25  C   UNL     1      -1.298  11.988  21.654  0.00  0.00    +0.000 A 
ATOM     26 CL   UNL     1      -2.234  13.366  22.086  0.00  0.00    +0.000 Cl
ATOM     27  C   UNL     1      -0.873  11.108  22.650  0.00  0.00    +0.000 A 
ATOM     28  C   UNL     1      -0.106   9.998  22.306  0.00  0.00    +0.000 A 
ATOM     29  C   UNL     1       0.247   9.798  20.967  0.00  0.00    +0.000 A 
ATOM     30  C   UNL     1       1.092   8.658  20.582  0.00  0.00    +0.000 A 
ATOM     31  O   UNL     1       1.432   7.835  21.426  0.00  0.00    +0.000 OA
ENDBRANCH  19  20
ENDBRANCH  18  19
ENDBRANCH  17  18
ENDBRANCH   1  17
TORSDOF 12
ENDMDL
