MODEL 1
REMARK VINA RESULT:      -7.7      0.000      0.000
REMARK  Name = 
REMARK  11 active torsions:
REMARK  status: ('A' for Active; 'I' for Inactive)
REMARK    1  A    between atoms: C_1  and  C_2
REMARK    2  A    between atoms: C_2  and  C_3
REMARK    3  A    between atoms: C_3  and  C_4
REMARK    4  A    between atoms: C_4  and  C_5
REMARK    5  A    between atoms: C_5  and  O_6
REMARK    6  A    between atoms: O_6  and  C_7
REMARK    7  A    between atoms: N_9  and  C_10
REMARK    8  A    between atoms: C_13  and  S_14
REMARK    9  A    between atoms: S_14  and  N_17
REMARK   10  A    between atoms: N_17  and  C_18
REMARK   11  A    between atoms: C_22  and  N_23
REMARK                            x       y       z     vdW  Elec       q    Type
REMARK                         _______ _______ _______ _____ _____    ______ ____
ROOT
ATOM      1  C   UNL     1       4.715   3.727  17.060  0.00  0.00    +0.000 A 
ATOM      2  C   UNL     1       3.346   3.435  17.053  0.00  0.00    +0.000 A 
ATOM      3  C   UNL     1       2.527   3.800  18.123  0.00  0.00    +0.000 A 
ATOM      4  C   UNL     1       3.081   4.465  19.214  0.00  0.00    +0.000 A 
ATOM      5  C   UNL     1       4.445   4.778  19.237  0.00  0.00    +0.000 A 
ATOM      6  C   UNL     1       5.261   4.387  18.168  0.00  0.00    +0.000 A 
ENDROOT
BRANCH   1   9
ATOM      7  C   UNL     1       5.861   4.070  14.880  0.00  0.00    +0.000 C 
ATOM      8  O   UNL     1       5.571   5.231  14.640  0.00  0.00    +0.000 OA
ATOM      9  N   UNL     1       5.581   3.352  16.014  0.00  0.00    +0.000 N 
ATOM     10  H   UNL     1       5.978   2.423  16.027  0.00  0.00    +0.000 HD
BRANCH   7  11
ATOM     11  O   UNL     1       6.456   3.246  13.975  0.00  0.00    +0.000 OA
BRANCH  11  12
ATOM     12  C   UNL     1       6.423   3.766  12.639  0.00  0.00    +0.000 C 
BRANCH  12  13
ATOM     13  C   UNL     1       5.554   2.956  11.679  0.00  0.00    +0.000 C 
BRANCH  13  14
ATOM     14  C   UNL     1       4.117   3.485  11.746  0.00  0.00    +0.000 C 
BRANCH  14  16
ATOM     15  C   UNL     1       2.995   4.160   9.602  0.00  0.00    +0.000 C 
ATOM     16  C   UNL     1       3.245   3.022  10.583  0.00  0.00    +0.000 C 
ENDBRANCH  14  16
ENDBRANCH  13  14
ENDBRANCH  12  13
ENDBRANCH  11  12
ENDBRANCH   7  11
ENDBRANCH   1   9
BRANCH   4  17
ATOM     17  S   UNL     1       2.039   4.910  20.583  0.00  0.00    +0.000 S 
ATOM     18  O   UNL     1       0.665   4.917  20.123  0.00  0.00    +0.000 OA
ATOM     19  O   UNL     1       2.440   4.123  21.727  0.00  0.00    +0.000 OA
BRANCH  17  20
ATOM     20  N   UNL     1       2.525   6.487  20.898  0.00  0.00    +0.000 N 
ATOM     21  H   UNL     1       2.903   6.656  21.827  0.00  0.00    +0.000 HD
BRANCH  20  22
ATOM     22  C   UNL     1       2.004   7.547  20.120  0.00  0.00    +0.000 A 
ATOM     23  C   UNL     1       2.334   7.671  18.769  0.00  0.00    +0.000 A 
ATOM     24  C   UNL     1       1.858   8.760  18.034  0.00  0.00    +0.000 A 
ATOM     25  C   UNL     1       1.058   9.725  18.649  0.00  0.00    +0.000 A 
ATOM     26  C   UNL     1       0.726   9.582  20.004  0.00  0.00    +0.000 A 
ATOM     27  C   UNL     1       1.184   8.485  20.739  0.00  0.00    +0.000 A 
BRANCH  26  28
ATOM     28  N   UNL     1      -0.084  10.606  20.672  0.00  0.00    +0.000 N 
ATOM     29  O   UNL     1      -0.377  10.422  21.862  0.00  0.00    +0.000 OA
ATOM     30  O   UNL     1      -0.437  11.589  20.006  0.00  0.00    +0.000 OA
ENDBRANCH  26  28
ENDBRANCH  20  22
ENDBRANCH  17  20
ENDBRANCH   4  17
TORSDOF 10
ENDMDL
MODEL 2
REMARK VINA RESULT:      -7.6      2.951      8.266
REMARK  Name = 
REMARK  11 active torsions:
REMARK  status: ('A' for Active; 'I' for Inactive)
REMARK    1  A    between atoms: C_1  and  C_2
REMARK    2  A    between atoms: C_2  and  C_3
REMARK    3  A    between atoms: C_3  and  C_4
REMARK    4  A    between atoms: C_4  and  C_5
REMARK    5  A    between atoms: C_5  and  O_6
REMARK    6  A    between atoms: O_6  and  C_7
REMARK    7  A    between atoms: N_9  and  C_10
REMARK    8  A    between atoms: C_13  and  S_14
REMARK    9  A    between atoms: S_14  and  N_17
REMARK   10  A    between atoms: N_17  and  C_18
REMARK   11  A    between atoms: C_22  and  N_23
REMARK                            x       y       z     vdW  Elec       q    Type
REMARK                         _______ _______ _______ _____ _____    ______ ____
ROOT
ATOM      1  C   UNL     1       1.995   6.977  20.407  0.00  0.00    +0.000 A 
ATOM      2  C   UNL     1       1.790   5.713  20.971  0.00  0.00    +0.000 A 
ATOM      3  C   UNL     1       1.909   4.554  20.201  0.00  0.00    +0.000 A 
ATOM      4  C   UNL     1       2.235   4.658  18.852  0.00  0.00    +0.000 A 
ATOM      5  C   UNL     1       2.456   5.911  18.270  0.00  0.00    +0.000 A 
ATOM      6  C   UNL     1       2.313   7.068  19.045  0.00  0.00    +0.000 A 
ENDROOT
BRANCH   1   9
ATOM      7  C   UNL     1       0.689   8.776  21.519  0.00  0.00    +0.000 C 
ATOM      8  O   UNL     1      -0.441   8.318  21.463  0.00  0.00    +0.000 OA
ATOM      9  N   UNL     1       1.859   8.172  21.140  0.00  0.00    +0.000 N 
ATOM     10  H   UNL     1       2.691   8.712  21.340  0.00  0.00    +0.000 HD
BRANCH   7  11
ATOM     11  O   UNL     1       0.957  10.054  21.901  0.00  0.00    +0.000 OA
BRANCH  11  12
ATOM     12  C   UNL     1       0.306  11.034  21.080  0.00  0.00    +0.000 C 
BRANCH  12  13
ATOM     13  C   UNL     1       0.795  11.054  19.634  0.00  0.00    +0.000 C 
BRANCH  13  14
ATOM     14  C   UNL     1      -0.393  11.359  18.713  0.00  0.00    +0.000 C 
BRANCH  14  16
ATOM     15  C   UNL     1      -1.842  10.014  17.163  0.00  0.00    +0.000 C 
ATOM     16  C   UNL     1      -1.387  10.206  18.604  0.00  0.00    +0.000 C 
ENDBRANCH  14  16
ENDBRANCH  13  14
ENDBRANCH  12  13
ENDBRANCH  11  12
ENDBRANCH   7  11
ENDBRANCH   1   9
BRANCH   4  17
ATOM     17  S   UNL     1       2.364   3.181  17.872  0.00  0.00    +0.000 S 
ATOM     18  O   UNL     1       1.477   2.184  18.435  0.00  0.00    +0.000 OA
ATOM     19  O   UNL     1       2.278   3.558  16.479  0.00  0.00    +0.000 OA
BRANCH  17  20
ATOM     20  N   UNL     1       3.957   2.719  18.140  0.00  0.00    +0.000 N 
ATOM     21  H   UNL     1       4.093   1.977  18.824  0.00  0.00    +0.000 HD
BRANCH  20  22
ATOM     22  C   UNL     1       5.007   3.606  17.810  0.00  0.00    +0.000 A 
ATOM     23  C   UNL     1       5.571   4.438  18.779  0.00  0.00    +0.000 A 
ATOM     24  C   UNL     1       6.566   5.351  18.418  0.00  0.00    +0.000 A 
ATOM     25  C   UNL     1       6.992   5.435  17.091  0.00  0.00    +0.000 A 
ATOM     26  C   UNL     1       6.425   4.587  16.130  0.00  0.00    +0.000 A 
ATOM     27  C   UNL     1       5.442   3.659  16.489  0.00  0.00    +0.000 A 
BRANCH  26  28
ATOM     28  N   UNL     1       6.836   4.689  14.726  0.00  0.00    +0.000 N 
ATOM     29  O   UNL     1       6.288   3.935  13.910  0.00  0.00    +0.000 OA
ATOM     30  O   UNL     1       7.715   5.514  14.442  0.00  0.00    +0.000 OA
ENDBRANCH  26  28
ENDBRANCH  20  22
ENDBRANCH  17  20
ENDBRANCH   4  17
TORSDOF 10
ENDMDL
MODEL 3
REMARK VINA RESULT:      -7.6      3.122      7.911
REMARK  Name = 
REMARK  11 active torsions:
REMARK  status: ('A' for Active; 'I' for Inactive)
REMARK    1  A    between atoms: C_1  and  C_2
REMARK    2  A    between atoms: C_2  and  C_3
REMARK    3  A    between atoms: C_3  and  C_4
REMARK    4  A    between atoms: C_4  and  C_5
REMARK    5  A    between atoms: C_5  and  O_6
REMARK    6  A    between atoms: O_6  and  C_7
REMARK    7  A    between atoms: N_9  and  C_10
REMARK    8  A    between atoms: C_13  and  S_14
REMARK    9  A    between atoms: S_14  and  N_17
REMARK   10  A    between atoms: N_17  and  C_18
REMARK   11  A    between atoms: C_22  and  N_23
REMARK                            x       y       z     vdW  Elec       q    Type
REMARK                         _______ _______ _______ _____ _____    ______ ____
ROOT
ATOM      1  C   UNL     1       2.031   7.447  19.463  0.00  0.00    +0.000 A 
ATOM      2  C   UNL     1       1.980   6.505  20.497  0.00  0.00    +0.000 A 
ATOM      3  C   UNL     1       2.464   5.208  20.313  0.00  0.00    +0.000 A 
ATOM      4  C   UNL     1       3.006   4.847  19.082  0.00  0.00    +0.000 A 
ATOM      5  C   UNL     1       3.077   5.777  18.038  0.00  0.00    +0.000 A 
ATOM      6  C   UNL     1       2.568   7.068  18.226  0.00  0.00    +0.000 A 
ENDROOT
BRANCH   1   9
ATOM      7  C   UNL     1       1.474   9.721  18.626  0.00  0.00    +0.000 C 
ATOM      8  O   UNL     1       1.670   9.587  17.428  0.00  0.00    +0.000 OA
ATOM      9  N   UNL     1       1.529   8.757  19.598  0.00  0.00    +0.000 N 
ATOM     10  H   UNL     1       1.262   9.078  20.519  0.00  0.00    +0.000 HD
BRANCH   7  11
ATOM     11  O   UNL     1       1.250  10.927  19.215  0.00  0.00    +0.000 OA
BRANCH  11  12
ATOM     12  C   UNL     1       0.028  11.542  18.784  0.00  0.00    +0.000 C 
BRANCH  12  13
ATOM     13  C   UNL     1      -1.231  10.842  19.290  0.00  0.00    +0.000 C 
BRANCH  13  14
ATOM     14  C   UNL     1      -2.290  10.865  18.181  0.00  0.00    +0.000 C 
BRANCH  14  16
ATOM     15  C   UNL     1      -2.659  10.396  15.741  0.00  0.00    +0.000 C 
ATOM     16  C   UNL     1      -1.970   9.931  17.017  0.00  0.00    +0.000 C 
ENDBRANCH  14  16
ENDBRANCH  13  14
ENDBRANCH  12  13
ENDBRANCH  11  12
ENDBRANCH   7  11
ENDBRANCH   1   9
BRANCH   4  17
ATOM     17  S   UNL     1       3.602   3.190  18.846  0.00  0.00    +0.000 S 
ATOM     18  O   UNL     1       3.018   2.348  19.870  0.00  0.00    +0.000 OA
ATOM     19  O   UNL     1       3.472   2.861  17.445  0.00  0.00    +0.000 OA
BRANCH  17  20
ATOM     20  N   UNL     1       5.246   3.362  19.143  0.00  0.00    +0.000 N 
ATOM     21  H   UNL     1       5.569   3.033  20.050  0.00  0.00    +0.000 HD
BRANCH  20  22
ATOM     22  C   UNL     1       5.995   4.307  18.403  0.00  0.00    +0.000 A 
ATOM     23  C   UNL     1       6.527   5.438  19.022  0.00  0.00    +0.000 A 
ATOM     24  C   UNL     1       7.211   6.390  18.261  0.00  0.00    +0.000 A 
ATOM     25  C   UNL     1       7.358   6.213  16.884  0.00  0.00    +0.000 A 
ATOM     26  C   UNL     1       6.827   5.066  16.277  0.00  0.00    +0.000 A 
ATOM     27  C   UNL     1       6.158   4.102  17.036  0.00  0.00    +0.000 A 
BRANCH  26  28
ATOM     28  N   UNL     1       6.941   4.884  14.826  0.00  0.00    +0.000 N 
ATOM     29  O   UNL     1       7.772   5.578  14.222  0.00  0.00    +0.000 OA
ATOM     30  O   UNL     1       6.194   4.055  14.288  0.00  0.00    +0.000 OA
ENDBRANCH  26  28
ENDBRANCH  20  22
ENDBRANCH  17  20
ENDBRANCH   4  17
TORSDOF 10
ENDMDL
MODEL 4
REMARK VINA RESULT:      -7.5      0.539      1.077
REMARK  Name = 
REMARK  11 active torsions:
REMARK  status: ('A' for Active; 'I' for Inactive)
REMARK    1  A    between atoms: C_1  and  C_2
REMARK    2  A    between atoms: C_2  and  C_3
REMARK    3  A    between atoms: C_3  and  C_4
REMARK    4  A    between atoms: C_4  and  C_5
REMARK    5  A    between atoms: C_5  and  O_6
REMARK    6  A    between atoms: O_6  and  C_7
REMARK    7  A    between atoms: N_9  and  C_10
REMARK    8  A    between atoms: C_13  and  S_14
REMARK    9  A    between atoms: S_14  and  N_17
REMARK   10  A    between atoms: N_17  and  C_18
REMARK   11  A    between atoms: C_22  and  N_23
REMARK                            x       y       z     vdW  Elec       q    Type
REMARK                         _______ _______ _______ _____ _____    ______ ____
ROOT
ATOM      1  C   UNL     1       5.082   3.944  17.151  0.00  0.00    +0.000 A 
ATOM      2  C   UNL     1       5.475   4.374  18.424  0.00  0.00    +0.000 A 
ATOM      3  C   UNL     1       4.539   4.545  19.446  0.00  0.00    +0.000 A 
ATOM      4  C   UNL     1       3.195   4.284  19.195  0.00  0.00    +0.000 A 
ATOM      5  C   UNL     1       2.781   3.842  17.933  0.00  0.00    +0.000 A 
ATOM      6  C   UNL     1       3.725   3.696  16.909  0.00  0.00    +0.000 A 
ENDROOT
BRANCH   1   9
ATOM      7  C   UNL     1       6.053   4.536  14.940  0.00  0.00    +0.000 C 
ATOM      8  O   UNL     1       5.476   5.585  14.702  0.00  0.00    +0.000 OA
ATOM      9  N   UNL     1       5.989   3.785  16.085  0.00  0.00    +0.000 N 
ATOM     10  H   UNL     1       6.606   2.985  16.093  0.00  0.00    +0.000 HD
BRANCH   7  11
ATOM     11  O   UNL     1       6.813   3.877  14.024  0.00  0.00    +0.000 OA
BRANCH  11  12
ATOM     12  C   UNL     1       6.220   3.852  12.718  0.00  0.00    +0.000 C 
BRANCH  12  13
ATOM     13  C   UNL     1       5.804   2.458  12.254  0.00  0.00    +0.000 C 
BRANCH  13  14
ATOM     14  C   UNL     1       4.881   2.597  11.037  0.00  0.00    +0.000 C 
BRANCH  14  16
ATOM     15  C   UNL     1       3.136   4.030   9.935  0.00  0.00    +0.000 C 
ATOM     16  C   UNL     1       3.722   3.564  11.262  0.00  0.00    +0.000 C 
ENDBRANCH  14  16
ENDBRANCH  13  14
ENDBRANCH  12  13
ENDBRANCH  11  12
ENDBRANCH   7  11
ENDBRANCH   1   9
BRANCH   4  17
ATOM     17  S   UNL     1       2.005   4.523  20.493  0.00  0.00    +0.000 S 
ATOM     18  O   UNL     1       0.683   4.514  19.903  0.00  0.00    +0.000 OA
ATOM     19  O   UNL     1       2.344   3.634  21.582  0.00  0.00    +0.000 OA
BRANCH  17  20
ATOM     20  N   UNL     1       2.365   6.077  21.020  0.00  0.00    +0.000 N 
ATOM     21  H   UNL     1       2.532   6.179  22.018  0.00  0.00    +0.000 HD
BRANCH  20  22
ATOM     22  C   UNL     1       1.989   7.187  20.228  0.00  0.00    +0.000 A 
ATOM     23  C   UNL     1       2.422   7.301  18.906  0.00  0.00    +0.000 A 
ATOM     24  C   UNL     1       2.089   8.436  18.161  0.00  0.00    +0.000 A 
ATOM     25  C   UNL     1       1.330   9.456  18.739  0.00  0.00    +0.000 A 
ATOM     26  C   UNL     1       0.894   9.324  20.064  0.00  0.00    +0.000 A 
ATOM     27  C   UNL     1       1.208   8.182  20.808  0.00  0.00    +0.000 A 
BRANCH  26  28
ATOM     28  N   UNL     1       0.127  10.403  20.696  0.00  0.00    +0.000 N 
ATOM     29  O   UNL     1       0.569  10.883  21.749  0.00  0.00    +0.000 OA
ATOM     30  O   UNL     1      -0.922  10.763  20.145  0.00  0.00    +0.000 OA
ENDBRANCH  26  28
ENDBRANCH  20  22
ENDBRANCH  17  20
ENDBRANCH   4  17
TORSDOF 10
ENDMDL
MODEL 5
REMARK VINA RESULT:      -7.5      3.081      8.068
REMARK  Name = 
REMARK  11 active torsions:
REMARK  status: ('A' for Active; 'I' for Inactive)
REMARK    1  A    between atoms: C_1  and  C_2
REMARK    2  A    between atoms: C_2  and  C_3
REMARK    3  A    between atoms: C_3  and  C_4
REMARK    4  A    between atoms: C_4  and  C_5
REMARK    5  A    between atoms: C_5  and  O_6
REMARK    6  A    between atoms: O_6  and  C_7
REMARK    7  A    between atoms: N_9  and  C_10
REMARK    8  A    between atoms: C_13  and  S_14
REMARK    9  A    between atoms: S_14  and  N_17
REMARK   10  A    between atoms: N_17  and  C_18
REMARK   11  A    between atoms: C_22  and  N_23
REMARK                            x       y       z     vdW  Elec       q    Type
REMARK                         _______ _______ _______ _____ _____    ______ ____
ROOT
ATOM      1  C   UNL     1       2.016   7.570  19.425  0.00  0.00    +0.000 A 
ATOM      2  C   UNL     1       1.975   6.625  20.458  0.00  0.00    +0.000 A 
ATOM      3  C   UNL     1       2.438   5.323  20.260  0.00  0.00    +0.000 A 
ATOM      4  C   UNL     1       2.946   4.958  19.017  0.00  0.00    +0.000 A 
ATOM      5  C   UNL     1       3.007   5.889  17.973  0.00  0.00    +0.000 A 
ATOM      6  C   UNL     1       2.520   7.186  18.175  0.00  0.00    +0.000 A 
ENDROOT
BRANCH   1   9
ATOM      7  C   UNL     1       0.948   9.426  20.688  0.00  0.00    +0.000 C 
ATOM      8  O   UNL     1       0.893   8.948  21.810  0.00  0.00    +0.000 OA
ATOM      9  N   UNL     1       1.535   8.885  19.574  0.00  0.00    +0.000 N 
ATOM     10  H   UNL     1       1.522   9.488  18.762  0.00  0.00    +0.000 HD
BRANCH   7  11
ATOM     11  O   UNL     1       0.323  10.583  20.338  0.00  0.00    +0.000 OA
BRANCH  11  12
ATOM     12  C   UNL     1      -0.205  10.554  19.005  0.00  0.00    +0.000 C 
BRANCH  12  13
ATOM     13  C   UNL     1      -1.660  11.007  18.905  0.00  0.00    +0.000 C 
BRANCH  13  14
ATOM     14  C   UNL     1      -2.015  11.211  17.427  0.00  0.00    +0.000 C 
BRANCH  14  16
ATOM     15  C   UNL     1      -3.150  10.067  15.499  0.00  0.00    +0.000 C 
ATOM     16  C   UNL     1      -2.170   9.904  16.654  0.00  0.00    +0.000 C 
ENDBRANCH  14  16
ENDBRANCH  13  14
ENDBRANCH  12  13
ENDBRANCH  11  12
ENDBRANCH   7  11
ENDBRANCH   1   9
BRANCH   4  17
ATOM     17  S   UNL     1       3.515   3.294  18.764  0.00  0.00    +0.000 S 
ATOM     18  O   UNL     1       2.894   2.446  19.761  0.00  0.00    +0.000 OA
ATOM     19  O   UNL     1       3.406   2.991  17.354  0.00  0.00    +0.000 OA
BRANCH  17  20
ATOM     20  N   UNL     1       5.156   3.428  19.095  0.00  0.00    +0.000 N 
ATOM     21  H   UNL     1       5.454   3.078  20.004  0.00  0.00    +0.000 HD
BRANCH  20  22
ATOM     22  C   UNL     1       5.938   4.368  18.385  0.00  0.00    +0.000 A 
ATOM     23  C   UNL     1       6.440   5.505  19.021  0.00  0.00    +0.000 A 
ATOM     24  C   UNL     1       7.158   6.452  18.286  0.00  0.00    +0.000 A 
ATOM     25  C   UNL     1       7.370   6.266  16.919  0.00  0.00    +0.000 A 
ATOM     26  C   UNL     1       6.869   5.115  16.296  0.00  0.00    +0.000 A 
ATOM     27  C   UNL     1       6.165   4.154  17.029  0.00  0.00    +0.000 A 
BRANCH  26  28
ATOM     28  N   UNL     1       7.052   4.923  14.853  0.00  0.00    +0.000 N 
ATOM     29  O   UNL     1       7.908   5.615  14.284  0.00  0.00    +0.000 OA
ATOM     30  O   UNL     1       6.332   4.089  14.286  0.00  0.00    +0.000 OA
ENDBRANCH  26  28
ENDBRANCH  20  22
ENDBRANCH  17  20
ENDBRANCH   4  17
TORSDOF 10
ENDMDL
MODEL 6
REMARK VINA RESULT:      -7.4      2.869      7.849
REMARK  Name = 
REMARK  11 active torsions:
REMARK  status: ('A' for Active; 'I' for Inactive)
REMARK    1  A    between atoms: C_1  and  C_2
REMARK    2  A    between atoms: C_2  and  C_3
REMARK    3  A    between atoms: C_3  and  C_4
REMARK    4  A    between atoms: C_4  and  C_5
REMARK    5  A    between atoms: C_5  and  O_6
REMARK    6  A    between atoms: O_6  and  C_7
REMARK    7  A    between atoms: N_9  and  C_10
REMARK    8  A    between atoms: C_13  and  S_14
REMARK    9  A    between atoms: S_14  and  N_17
REMARK   10  A    between atoms: N_17  and  C_18
REMARK   11  A    between atoms: C_22  and  N_23
REMARK                            x       y       z     vdW  Elec       q    Type
REMARK                         _______ _______ _______ _____ _____    ______ ____
ROOT
ATOM      1  C   UNL     1       1.899   7.321  19.776  0.00  0.00    +0.000 A 
ATOM      2  C   UNL     1       2.172   7.041  18.432  0.00  0.00    +0.000 A 
ATOM      3  C   UNL     1       2.450   5.740  18.011  0.00  0.00    +0.000 A 
ATOM      4  C   UNL     1       2.457   4.705  18.941  0.00  0.00    +0.000 A 
ATOM      5  C   UNL     1       2.175   4.959  20.288  0.00  0.00    +0.000 A 
ATOM      6  C   UNL     1       1.919   6.272  20.705  0.00  0.00    +0.000 A 
ENDROOT
BRANCH   1   9
ATOM      7  C   UNL     1       0.539   9.041  20.948  0.00  0.00    +0.000 C 
ATOM      8  O   UNL     1      -0.331   8.350  21.455  0.00  0.00    +0.000 OA
ATOM      9  N   UNL     1       1.640   8.623  20.248  0.00  0.00    +0.000 N 
ATOM     10  H   UNL     1       2.268   9.367  19.977  0.00  0.00    +0.000 HD
BRANCH   7  11
ATOM     11  O   UNL     1       0.492  10.401  20.924  0.00  0.00    +0.000 OA
BRANCH  11  12
ATOM     12  C   UNL     1      -0.663  10.910  20.244  0.00  0.00    +0.000 C 
BRANCH  12  13
ATOM     13  C   UNL     1      -0.422  11.235  18.771  0.00  0.00    +0.000 C 
BRANCH  13  14
ATOM     14  C   UNL     1      -0.849  10.032  17.922  0.00  0.00    +0.000 C 
BRANCH  14  16
ATOM     15  C   UNL     1      -3.323   9.746  17.590  0.00  0.00    +0.000 C 
ATOM     16  C   UNL     1      -2.038  10.324  17.011  0.00  0.00    +0.000 C 
ENDBRANCH  14  16
ENDBRANCH  13  14
ENDBRANCH  12  13
ENDBRANCH  11  12
ENDBRANCH   7  11
ENDBRANCH   1   9
BRANCH   4  17
ATOM     17  S   UNL     1       2.832   3.053  18.404  0.00  0.00    +0.000 S 
ATOM     18  O   UNL     1       2.393   2.131  19.431  0.00  0.00    +0.000 OA
ATOM     19  O   UNL     1       2.387   2.914  17.035  0.00  0.00    +0.000 OA
BRANCH  17  20
ATOM     20  N   UNL     1       4.511   3.071  18.357  0.00  0.00    +0.000 N 
ATOM     21  H   UNL     1       4.980   2.692  19.178  0.00  0.00    +0.000 HD
BRANCH  20  22
ATOM     22  C   UNL     1       5.177   3.962  17.485  0.00  0.00    +0.000 A 
ATOM     23  C   UNL     1       5.084   3.809  16.101  0.00  0.00    +0.000 A 
ATOM     24  C   UNL     1       5.800   4.664  15.257  0.00  0.00    +0.000 A 
ATOM     25  C   UNL     1       6.608   5.666  15.797  0.00  0.00    +0.000 A 
ATOM     26  C   UNL     1       6.684   5.815  17.189  0.00  0.00    +0.000 A 
ATOM     27  C   UNL     1       5.956   4.974  18.037  0.00  0.00    +0.000 A 
BRANCH  26  28
ATOM     28  N   UNL     1       7.557   6.839  17.771  0.00  0.00    +0.000 N 
ATOM     29  O   UNL     1       7.706   7.895  17.140  0.00  0.00    +0.000 OA
ATOM     30  O   UNL     1       8.103   6.584  18.853  0.00  0.00    +0.000 OA
ENDBRANCH  26  28
ENDBRANCH  20  22
ENDBRANCH  17  20
ENDBRANCH   4  17
TORSDOF 10
ENDMDL
MODEL 7
REMARK VINA RESULT:      -7.4      1.046      1.659
REMARK  Name = 
REMARK  11 active torsions:
REMARK  status: ('A' for Active; 'I' for Inactive)
REMARK    1  A    between atoms: C_1  and  C_2
REMARK    2  A    between atoms: C_2  and  C_3
REMARK    3  A    between atoms: C_3  and  C_4
REMARK    4  A    between atoms: C_4  and  C_5
REMARK    5  A    between atoms: C_5  and  O_6
REMARK    6  A    between atoms: O_6  and  C_7
REMARK    7  A    between atoms: N_9  and  C_10
REMARK    8  A    between atoms: C_13  and  S_14
REMARK    9  A    between atoms: S_14  and  N_17
REMARK   10  A    between atoms: N_17  and  C_18
REMARK   11  A    between atoms: C_22  and  N_23
REMARK                            x       y       z     vdW  Elec       q    Type
REMARK                         _______ _______ _______ _____ _____    ______ ____
ROOT
ATOM      1  C   UNL     1       4.990   4.659  17.003  0.00  0.00    +0.000 A 
ATOM      2  C   UNL     1       5.359   5.202  18.239  0.00  0.00    +0.000 A 
ATOM      3  C   UNL     1       4.469   5.211  19.315  0.00  0.00    +0.000 A 
ATOM      4  C   UNL     1       3.195   4.672  19.155  0.00  0.00    +0.000 A 
ATOM      5  C   UNL     1       2.809   4.114  17.931  0.00  0.00    +0.000 A 
ATOM      6  C   UNL     1       3.702   4.129  16.852  0.00  0.00    +0.000 A 
ENDROOT
BRANCH   1   9
ATOM      7  C   UNL     1       7.217   4.655  15.898  0.00  0.00    +0.000 C 
ATOM      8  O   UNL     1       7.955   4.476  16.853  0.00  0.00    +0.000 OA
ATOM      9  N   UNL     1       5.847   4.654  15.884  0.00  0.00    +0.000 N 
ATOM     10  H   UNL     1       5.439   4.756  14.965  0.00  0.00    +0.000 HD
BRANCH   7  11
ATOM     11  O   UNL     1       7.668   4.990  14.658  0.00  0.00    +0.000 OA
BRANCH  11  12
ATOM     12  C   UNL     1       6.704   4.746  13.626  0.00  0.00    +0.000 C 
BRANCH  12  13
ATOM     13  C   UNL     1       7.257   3.970  12.432  0.00  0.00    +0.000 C 
BRANCH  13  14
ATOM     14  C   UNL     1       6.158   3.049  11.888  0.00  0.00    +0.000 C 
BRANCH  14  16
ATOM     15  C   UNL     1       3.799   3.257  11.048  0.00  0.00    +0.000 C 
ATOM     16  C   UNL     1       4.747   3.533  12.208  0.00  0.00    +0.000 C 
ENDBRANCH  14  16
ENDBRANCH  13  14
ENDBRANCH  12  13
ENDBRANCH  11  12
ENDBRANCH   7  11
ENDBRANCH   1   9
BRANCH   4  17
ATOM     17  S   UNL     1       2.059   4.705  20.521  0.00  0.00    +0.000 S 
ATOM     18  O   UNL     1       0.714   4.606  19.993  0.00  0.00    +0.000 OA
ATOM     19  O   UNL     1       2.538   3.783  21.526  0.00  0.00    +0.000 OA
BRANCH  17  20
ATOM     20  N   UNL     1       2.297   6.248  21.140  0.00  0.00    +0.000 N 
ATOM     21  H   UNL     1       2.444   6.304  22.146  0.00  0.00    +0.000 HD
BRANCH  20  22
ATOM     22  C   UNL     1       1.850   7.372  20.407  0.00  0.00    +0.000 A 
ATOM     23  C   UNL     1       2.250   7.567  19.084  0.00  0.00    +0.000 A 
ATOM     24  C   UNL     1       1.846   8.716  18.398  0.00  0.00    +0.000 A 
ATOM     25  C   UNL     1       1.049   9.669  19.035  0.00  0.00    +0.000 A 
ATOM     26  C   UNL     1       0.647   9.456  20.360  0.00  0.00    +0.000 A 
ATOM     27  C   UNL     1       1.032   8.300  21.046  0.00  0.00    +0.000 A 
BRANCH  26  28
ATOM     28  N   UNL     1      -0.160  10.465  21.054  0.00  0.00    +0.000 N 
ATOM     29  O   UNL     1      -1.066  11.017  20.414  0.00  0.00    +0.000 OA
ATOM     30  O   UNL     1       0.119  10.715  22.235  0.00  0.00    +0.000 OA
ENDBRANCH  26  28
ENDBRANCH  20  22
ENDBRANCH  17  20
ENDBRANCH   4  17
TORSDOF 10
ENDMDL
MODEL 8
REMARK VINA RESULT:      -7.3      3.059      8.258
REMARK  Name = 
REMARK  11 active torsions:
REMARK  status: ('A' for Active; 'I' for Inactive)
REMARK    1  A    between atoms: C_1  and  C_2
REMARK    2  A    between atoms: C_2  and  C_3
REMARK    3  A    between atoms: C_3  and  C_4
REMARK    4  A    between atoms: C_4  and  C_5
REMARK    5  A    between atoms: C_5  and  O_6
REMARK    6  A    between atoms: O_6  and  C_7
REMARK    7  A    between atoms: N_9  and  C_10
REMARK    8  A    between atoms: C_13  and  S_14
REMARK    9  A    between atoms: S_14  and  N_17
REMARK   10  A    between atoms: N_17  and  C_18
REMARK   11  A    between atoms: C_22  and  N_23
REMARK                            x       y       z     vdW  Elec       q    Type
REMARK                         _______ _______ _______ _____ _____    ______ ____
ROOT
ATOM      1  C   UNL     1       1.967   7.525  19.653  0.00  0.00    +0.000 A 
ATOM      2  C   UNL     1       2.416   7.176  18.374  0.00  0.00    +0.000 A 
ATOM      3  C   UNL     1       2.848   5.878  18.093  0.00  0.00    +0.000 A 
ATOM      4  C   UNL     1       2.832   4.917  19.099  0.00  0.00    +0.000 A 
ATOM      5  C   UNL     1       2.376   5.241  20.382  0.00  0.00    +0.000 A 
ATOM      6  C   UNL     1       1.966   6.550  20.660  0.00  0.00    +0.000 A 
ENDROOT
BRANCH   1   9
ATOM      7  C   UNL     1       0.411   9.179  20.665  0.00  0.00    +0.000 C 
ATOM      8  O   UNL     1      -0.357   8.444  21.267  0.00  0.00    +0.000 OA
ATOM      9  N   UNL     1       1.548   8.828  19.987  0.00  0.00    +0.000 N 
ATOM     10  H   UNL     1       2.072   9.611  19.619  0.00  0.00    +0.000 HD
BRANCH   7  11
ATOM     11  O   UNL     1       0.190  10.510  20.494  0.00  0.00    +0.000 OA
BRANCH  11  12
ATOM     12  C   UNL     1      -0.950  10.788  19.669  0.00  0.00    +0.000 C 
BRANCH  12  13
ATOM     13  C   UNL     1      -0.805  10.302  18.228  0.00  0.00    +0.000 C 
BRANCH  13  14
ATOM     14  C   UNL     1      -2.201  10.187  17.602  0.00  0.00    +0.000 C 
BRANCH  14  16
ATOM     15  C   UNL     1      -4.335  11.434  17.155  0.00  0.00    +0.000 C 
ATOM     16  C   UNL     1      -3.193  11.215  18.138  0.00  0.00    +0.000 C 
ENDBRANCH  14  16
ENDBRANCH  13  14
ENDBRANCH  12  13
ENDBRANCH  11  12
ENDBRANCH   7  11
ENDBRANCH   1   9
BRANCH   4  17
ATOM     17  S   UNL     1       3.402   3.273  18.742  0.00  0.00    +0.000 S 
ATOM     18  O   UNL     1       2.780   2.363  19.682  0.00  0.00    +0.000 OA
ATOM     19  O   UNL     1       3.297   3.061  17.316  0.00  0.00    +0.000 OA
BRANCH  17  20
ATOM     20  N   UNL     1       5.043   3.386  19.085  0.00  0.00    +0.000 N 
ATOM     21  H   UNL     1       5.330   3.030  19.995  0.00  0.00    +0.000 HD
BRANCH  20  22
ATOM     22  C   UNL     1       5.840   4.320  18.385  0.00  0.00    +0.000 A 
ATOM     23  C   UNL     1       6.369   5.437  19.033  0.00  0.00    +0.000 A 
ATOM     24  C   UNL     1       7.104   6.380  18.309  0.00  0.00    +0.000 A 
ATOM     25  C   UNL     1       7.304   6.208  16.938  0.00  0.00    +0.000 A 
ATOM     26  C   UNL     1       6.776   5.077  16.301  0.00  0.00    +0.000 A 
ATOM     27  C   UNL     1       6.056   4.121  17.024  0.00  0.00    +0.000 A 
BRANCH  26  28
ATOM     28  N   UNL     1       6.947   4.902  14.854  0.00  0.00    +0.000 N 
ATOM     29  O   UNL     1       6.188   4.111  14.276  0.00  0.00    +0.000 OA
ATOM     30  O   UNL     1       7.847   5.546  14.298  0.00  0.00    +0.000 OA
ENDBRANCH  26  28
ENDBRANCH  20  22
ENDBRANCH  17  20
ENDBRANCH   4  17
TORSDOF 10
ENDMDL
MODEL 9
REMARK VINA RESULT:      -7.3      2.925      8.440
REMARK  Name = 
REMARK  11 active torsions:
REMARK  status: ('A' for Active; 'I' for Inactive)
REMARK    1  A    between atoms: C_1  and  C_2
REMARK    2  A    between atoms: C_2  and  C_3
REMARK    3  A    between atoms: C_3  and  C_4
REMARK    4  A    between atoms: C_4  and  C_5
REMARK    5  A    between atoms: C_5  and  O_6
REMARK    6  A    between atoms: O_6  and  C_7
REMARK    7  A    between atoms: N_9  and  C_10
REMARK    8  A    between atoms: C_13  and  S_14
REMARK    9  A    between atoms: S_14  and  N_17
REMARK   10  A    between atoms: N_17  and  C_18
REMARK   11  A    between atoms: C_22  and  N_23
REMARK                            x       y       z     vdW  Elec       q    Type
REMARK                         _______ _______ _______ _____ _____    ______ ____
ROOT
ATOM      1  C   UNL     1       1.905   6.919  20.401  0.00  0.00    +0.000 A 
ATOM      2  C   UNL     1       1.729   5.642  20.948  0.00  0.00    +0.000 A 
ATOM      3  C   UNL     1       1.919   4.496  20.173  0.00  0.00    +0.000 A 
ATOM      4  C   UNL     1       2.288   4.625  18.837  0.00  0.00    +0.000 A 
ATOM      5  C   UNL     1       2.480   5.891  18.273  0.00  0.00    +0.000 A 
ATOM      6  C   UNL     1       2.265   7.035  19.053  0.00  0.00    +0.000 A 
ENDROOT
BRANCH   1   9
ATOM      7  C   UNL     1       0.500   8.582  21.602  0.00  0.00    +0.000 C 
ATOM      8  O   UNL     1      -0.576   8.006  21.630  0.00  0.00    +0.000 OA
ATOM      9  N   UNL     1       1.697   8.100  21.140  0.00  0.00    +0.000 N 
ATOM     10  H   UNL     1       2.479   8.727  21.276  0.00  0.00    +0.000 HD
BRANCH   7  11
ATOM     11  O   UNL     1       0.659   9.885  21.959  0.00  0.00    +0.000 OA
BRANCH  11  12
ATOM     12  C   UNL     1      -0.235  10.769  21.269  0.00  0.00    +0.000 C 
BRANCH  12  13
ATOM     13  C   UNL     1       0.347  12.156  21.003  0.00  0.00    +0.000 C 
BRANCH  13  14
ATOM     14  C   UNL     1       0.939  12.182  19.589  0.00  0.00    +0.000 C 
BRANCH  14  16
ATOM     15  C   UNL     1       1.672  10.305  18.088  0.00  0.00    +0.000 C 
ATOM     16  C   UNL     1       0.480  11.016  18.718  0.00  0.00    +0.000 C 
ENDBRANCH  14  16
ENDBRANCH  13  14
ENDBRANCH  12  13
ENDBRANCH  11  12
ENDBRANCH   7  11
ENDBRANCH   1   9
BRANCH   4  17
ATOM     17  S   UNL     1       2.508   3.164  17.850  0.00  0.00    +0.000 S 
ATOM     18  O   UNL     1       1.676   2.114  18.402  0.00  0.00    +0.000 OA
ATOM     19  O   UNL     1       2.409   3.543  16.459  0.00  0.00    +0.000 OA
BRANCH  17  20
ATOM     20  N   UNL     1       4.123   2.792  18.127  0.00  0.00    +0.000 N 
ATOM     21  H   UNL     1       4.300   2.100  18.853  0.00  0.00    +0.000 HD
BRANCH  20  22
ATOM     22  C   UNL     1       5.128   3.705  17.732  0.00  0.00    +0.000 A 
ATOM     23  C   UNL     1       5.682   4.599  18.650  0.00  0.00    +0.000 A 
ATOM     24  C   UNL     1       6.630   5.535  18.225  0.00  0.00    +0.000 A 
ATOM     25  C   UNL     1       7.018   5.579  16.885  0.00  0.00    +0.000 A 
ATOM     26  C   UNL     1       6.462   4.669  15.976  0.00  0.00    +0.000 A 
ATOM     27  C   UNL     1       5.527   3.719  16.399  0.00  0.00    +0.000 A 
BRANCH  26  28
ATOM     28  N   UNL     1       6.833   4.727  14.558  0.00  0.00    +0.000 N 
ATOM     29  O   UNL     1       7.735   5.512  14.231  0.00  0.00    +0.000 OA
ATOM     30  O   UNL     1       6.217   3.997  13.770  0.00  0.00    +0.000 OA
ENDBRANCH  26  28
ENDBRANCH  20  22
ENDBRANCH  17  20
ENDBRANCH   4  17
TORSDOF 10
ENDMDL
