MODEL 1
REMARK VINA RESULT:      -6.7      0.000      0.000
REMARK  Name = 
REMARK  3 active torsions:
REMARK  status: ('A' for Active; 'I' for Inactive)
REMARK    1  A    between atoms: C_2  and  C_10
REMARK    2  A    between atoms: N_3  and  N_4
REMARK    3  A    between atoms: C_16  and  N_17
REMARK                            x       y       z     vdW  Elec       q    Type
REMARK                         _______ _______ _______ _____ _____    ______ ____
ROOT
ATOM      1  O   UNL     1       2.655   6.883  17.981  0.00  0.00    +0.000 OA
ATOM      2  C   UNL     1       3.218   5.795  18.083  0.00  0.00    +0.000 C 
ATOM      3  N   UNL     1       4.303   5.407  17.310  0.00  0.00    +0.000 N 
ATOM      4  H   UNL     1       4.743   4.493  17.419  0.00  0.00    +0.000 HD
ENDROOT
BRANCH   2   5
ATOM      5  C   UNL     1       2.640   4.812  19.050  0.00  0.00    +0.000 A 
ATOM      6  C   UNL     1       2.319   5.329  20.320  0.00  0.00    +0.000 A 
ATOM      7  C   UNL     1       1.839   4.507  21.347  0.00  0.00    +0.000 A 
ATOM      8  C   UNL     1       1.680   3.143  21.125  0.00  0.00    +0.000 A 
ATOM      9 CL   UNL     1       1.120   2.128  22.394  0.00  0.00    +0.000 Cl
ATOM     10  C   UNL     1       1.983   2.595  19.884  0.00  0.00    +0.000 A 
ATOM     11  C   UNL     1       2.459   3.436  18.859  0.00  0.00    +0.000 A 
BRANCH  11  12
ATOM     12  N   UNL     1       2.766   2.794  17.608  0.00  0.00    +0.000 N 
ATOM     13  O   UNL     1       3.641   1.913  17.630  0.00  0.00    +0.000 OA
ATOM     14  O   UNL     1       2.167   3.188  16.599  0.00  0.00    +0.000 OA
ENDBRANCH  11  12
ENDBRANCH   2   5
BRANCH   3  15
ATOM     15  N   UNL     1       4.851   6.305  16.364  0.00  0.00    +0.000 NA
ATOM     16  C   UNL     1       5.387   5.595  15.181  0.00  0.00    +0.000 C 
ATOM     17  C   UNL     1       6.698   4.855  15.476  0.00  0.00    +0.000 C 
ATOM     18  O   UNL     1       7.696   5.753  15.977  0.00  0.00    +0.000 OA
ATOM     19  C   UNL     1       7.241   6.403  17.170  0.00  0.00    +0.000 C 
ATOM     20  C   UNL     1       5.916   7.150  16.945  0.00  0.00    +0.000 C 
ENDBRANCH   3  15
TORSDOF 3
ENDMDL
MODEL 2
REMARK VINA RESULT:      -6.6      1.621      2.072
REMARK  Name = 
REMARK  3 active torsions:
REMARK  status: ('A' for Active; 'I' for Inactive)
REMARK    1  A    between atoms: C_2  and  C_10
REMARK    2  A    between atoms: N_3  and  N_4
REMARK    3  A    between atoms: C_16  and  N_17
REMARK                            x       y       z     vdW  Elec       q    Type
REMARK                         _______ _______ _______ _____ _____    ______ ____
ROOT
ATOM      1  O   UNL     1       2.559   3.358  16.525  0.00  0.00    +0.000 OA
ATOM      2  C   UNL     1       3.101   3.831  17.521  0.00  0.00    +0.000 C 
ATOM      3  N   UNL     1       4.178   4.705  17.477  0.00  0.00    +0.000 N 
ATOM      4  H   UNL     1       4.607   5.076  18.326  0.00  0.00    +0.000 HD
ENDROOT
BRANCH   2   5
ATOM      5  C   UNL     1       2.608   3.370  18.855  0.00  0.00    +0.000 A 
ATOM      6  C   UNL     1       1.236   3.575  19.098  0.00  0.00    +0.000 A 
ATOM      7  C   UNL     1       0.654   3.259  20.331  0.00  0.00    +0.000 A 
ATOM      8  C   UNL     1       1.439   2.738  21.355  0.00  0.00    +0.000 A 
ATOM      9 CL   UNL     1       0.731   2.378  22.878  0.00  0.00    +0.000 Cl
ATOM     10  C   UNL     1       2.797   2.518  21.153  0.00  0.00    +0.000 A 
ATOM     11  C   UNL     1       3.366   2.836  19.905  0.00  0.00    +0.000 A 
BRANCH  11  12
ATOM     12  N   UNL     1       4.780   2.595  19.778  0.00  0.00    +0.000 N 
ATOM     13  O   UNL     1       5.155   1.413  19.845  0.00  0.00    +0.000 OA
ATOM     14  O   UNL     1       5.520   3.579  19.648  0.00  0.00    +0.000 OA
ENDBRANCH  11  12
ENDBRANCH   2   5
BRANCH   3  15
ATOM     15  N   UNL     1       4.687   5.134  16.229  0.00  0.00    +0.000 NA
ATOM     16  C   UNL     1       5.859   4.334  15.810  0.00  0.00    +0.000 C 
ATOM     17  C   UNL     1       7.121   4.663  16.617  0.00  0.00    +0.000 C 
ATOM     18  O   UNL     1       7.446   6.056  16.524  0.00  0.00    +0.000 OA
ATOM     19  C   UNL     1       6.359   6.862  16.995  0.00  0.00    +0.000 C 
ATOM     20  C   UNL     1       5.056   6.566  16.236  0.00  0.00    +0.000 C 
ENDBRANCH   3  15
TORSDOF 3
ENDMDL
MODEL 3
REMARK VINA RESULT:      -6.6      3.209      6.137
REMARK  Name = 
REMARK  3 active torsions:
REMARK  status: ('A' for Active; 'I' for Inactive)
REMARK    1  A    between atoms: C_2  and  C_10
REMARK    2  A    between atoms: N_3  and  N_4
REMARK    3  A    between atoms: C_16  and  N_17
REMARK                            x       y       z     vdW  Elec       q    Type
REMARK                         _______ _______ _______ _____ _____    ______ ____
ROOT
ATOM      1  O   UNL     1       5.550   3.643  16.653  0.00  0.00    +0.000 OA
ATOM      2  C   UNL     1       5.476   4.295  17.692  0.00  0.00    +0.000 C 
ATOM      3  N   UNL     1       4.631   3.981  18.747  0.00  0.00    +0.000 N 
ATOM      4  H   UNL     1       4.593   4.549  19.594  0.00  0.00    +0.000 HD
ENDROOT
BRANCH   2   5
ATOM      5  C   UNL     1       6.299   5.540  17.780  0.00  0.00    +0.000 A 
ATOM      6  C   UNL     1       7.407   5.474  18.648  0.00  0.00    +0.000 A 
ATOM      7  C   UNL     1       8.221   6.588  18.883  0.00  0.00    +0.000 A 
ATOM      8  C   UNL     1       7.936   7.799  18.260  0.00  0.00    +0.000 A 
ATOM      9 CL   UNL     1       8.918   9.174  18.572  0.00  0.00    +0.000 Cl
ATOM     10  C   UNL     1       6.854   7.903  17.394  0.00  0.00    +0.000 A 
ATOM     11  C   UNL     1       6.047   6.772  17.163  0.00  0.00    +0.000 A 
BRANCH  11  12
ATOM     12  N   UNL     1       4.936   6.962  16.267  0.00  0.00    +0.000 N 
ATOM     13  O   UNL     1       3.837   7.218  16.785  0.00  0.00    +0.000 OA
ATOM     14  O   UNL     1       5.146   6.822  15.056  0.00  0.00    +0.000 OA
ENDBRANCH  11  12
ENDBRANCH   2   5
BRANCH   3  15
ATOM     15  N   UNL     1       3.817   2.826  18.679  0.00  0.00    +0.000 NA
ATOM     16  C   UNL     1       2.501   3.118  18.069  0.00  0.00    +0.000 C 
ATOM     17  C   UNL     1       1.576   3.908  19.003  0.00  0.00    +0.000 C 
ATOM     18  O   UNL     1       1.377   3.214  20.241  0.00  0.00    +0.000 OA
ATOM     19  C   UNL     1       2.628   2.983  20.899  0.00  0.00    +0.000 C 
ATOM     20  C   UNL     1       3.610   2.208  20.005  0.00  0.00    +0.000 C 
ENDBRANCH   3  15
TORSDOF 3
ENDMDL
MODEL 4
REMARK VINA RESULT:      -6.5      3.545      6.464
REMARK  Name = 
REMARK  3 active torsions:
REMARK  status: ('A' for Active; 'I' for Inactive)
REMARK    1  A    between atoms: C_2  and  C_10
REMARK    2  A    between atoms: N_3  and  N_4
REMARK    3  A    between atoms: C_16  and  N_17
REMARK                            x       y       z     vdW  Elec       q    Type
REMARK                         _______ _______ _______ _____ _____    ______ ____
ROOT
ATOM      1  O   UNL     1       5.634   4.232  19.344  0.00  0.00    +0.000 OA
ATOM      2  C   UNL     1       5.038   3.896  18.324  0.00  0.00    +0.000 C 
ATOM      3  N   UNL     1       3.873   3.141  18.318  0.00  0.00    +0.000 N 
ATOM      4  H   UNL     1       3.407   2.876  17.450  0.00  0.00    +0.000 HD
ENDROOT
BRANCH   2   5
ATOM      5  C   UNL     1       5.658   4.264  17.014  0.00  0.00    +0.000 A 
ATOM      6  C   UNL     1       4.843   4.068  15.882  0.00  0.00    +0.000 A 
ATOM      7  C   UNL     1       5.319   4.302  14.586  0.00  0.00    +0.000 A 
ATOM      8  C   UNL     1       6.629   4.730  14.396  0.00  0.00    +0.000 A 
ATOM      9 CL   UNL     1       7.223   4.988  12.804  0.00  0.00    +0.000 Cl
ATOM     10  C   UNL     1       7.463   4.938  15.489  0.00  0.00    +0.000 A 
ATOM     11  C   UNL     1       6.968   4.704  16.786  0.00  0.00    +0.000 A 
BRANCH  11  12
ATOM     12  N   UNL     1       7.896   4.927  17.865  0.00  0.00    +0.000 N 
ATOM     13  O   UNL     1       7.838   6.029  18.434  0.00  0.00    +0.000 OA
ATOM     14  O   UNL     1       8.703   4.025  18.121  0.00  0.00    +0.000 OA
ENDBRANCH  11  12
ENDBRANCH   2   5
BRANCH   3  15
ATOM     15  N   UNL     1       3.281   2.751  19.542  0.00  0.00    +0.000 NA
ATOM     16  C   UNL     1       2.138   1.834  19.330  0.00  0.00    +0.000 C 
ATOM     17  C   UNL     1       0.899   2.548  18.775  0.00  0.00    +0.000 C 
ATOM     18  O   UNL     1       0.490   3.617  19.637  0.00  0.00    +0.000 OA
ATOM     19  C   UNL     1       1.549   4.568  19.802  0.00  0.00    +0.000 C 
ATOM     20  C   UNL     1       2.829   3.909  20.341  0.00  0.00    +0.000 C 
ENDBRANCH   3  15
TORSDOF 3
ENDMDL
MODEL 5
REMARK VINA RESULT:      -6.5      3.458      6.539
REMARK  Name = 
REMARK  3 active torsions:
REMARK  status: ('A' for Active; 'I' for Inactive)
REMARK    1  A    between atoms: C_2  and  C_10
REMARK    2  A    between atoms: N_3  and  N_4
REMARK    3  A    between atoms: C_16  and  N_17
REMARK                            x       y       z     vdW  Elec       q    Type
REMARK                         _______ _______ _______ _____ _____    ______ ____
ROOT
ATOM      1  O   UNL     1       6.236   4.303  19.328  0.00  0.00    +0.000 OA
ATOM      2  C   UNL     1       5.382   4.456  18.459  0.00  0.00    +0.000 C 
ATOM      3  N   UNL     1       4.016   4.385  18.691  0.00  0.00    +0.000 N 
ATOM      4  H   UNL     1       3.334   4.512  17.943  0.00  0.00    +0.000 HD
ENDROOT
BRANCH   2   5
ATOM      5  C   UNL     1       5.858   4.656  17.055  0.00  0.00    +0.000 A 
ATOM      6  C   UNL     1       5.473   3.659  16.137  0.00  0.00    +0.000 A 
ATOM      7  C   UNL     1       5.909   3.681  14.807  0.00  0.00    +0.000 A 
ATOM      8  C   UNL     1       6.750   4.698  14.369  0.00  0.00    +0.000 A 
ATOM      9 CL   UNL     1       7.309   4.708  12.744  0.00  0.00    +0.000 Cl
ATOM     10  C   UNL     1       7.149   5.702  15.244  0.00  0.00    +0.000 A 
ATOM     11  C   UNL     1       6.698   5.670  16.578  0.00  0.00    +0.000 A 
BRANCH  11  12
ATOM     12  N   UNL     1       7.167   6.734  17.428  0.00  0.00    +0.000 N 
ATOM     13  O   UNL     1       6.691   7.863  17.226  0.00  0.00    +0.000 OA
ATOM     14  O   UNL     1       8.032   6.457  18.268  0.00  0.00    +0.000 OA
ENDBRANCH  11  12
ENDBRANCH   2   5
BRANCH   3  15
ATOM     15  N   UNL     1       3.535   4.165  20.004  0.00  0.00    +0.000 NA
ATOM     16  C   UNL     1       3.333   2.725  20.280  0.00  0.00    +0.000 C 
ATOM     17  C   UNL     1       2.104   2.150  19.563  0.00  0.00    +0.000 C 
ATOM     18  O   UNL     1       0.916   2.868  19.919  0.00  0.00    +0.000 OA
ATOM     19  C   UNL     1       1.047   4.257  19.593  0.00  0.00    +0.000 C 
ATOM     20  C   UNL     1       2.275   4.890  20.268  0.00  0.00    +0.000 C 
ENDBRANCH   3  15
TORSDOF 3
ENDMDL
MODEL 6
REMARK VINA RESULT:      -6.4      2.402      3.116
REMARK  Name = 
REMARK  3 active torsions:
REMARK  status: ('A' for Active; 'I' for Inactive)
REMARK    1  A    between atoms: C_2  and  C_10
REMARK    2  A    between atoms: N_3  and  N_4
REMARK    3  A    between atoms: C_16  and  N_17
REMARK                            x       y       z     vdW  Elec       q    Type
REMARK                         _______ _______ _______ _____ _____    ______ ____
ROOT
ATOM      1  O   UNL     1       5.152   3.513  19.613  0.00  0.00    +0.000 OA
ATOM      2  C   UNL     1       4.543   4.292  18.884  0.00  0.00    +0.000 C 
ATOM      3  N   UNL     1       4.900   4.566  17.572  0.00  0.00    +0.000 N 
ATOM      4  H   UNL     1       4.373   5.224  16.996  0.00  0.00    +0.000 HD
ENDROOT
BRANCH   2   5
ATOM      5  C   UNL     1       3.395   5.038  19.484  0.00  0.00    +0.000 A 
ATOM      6  C   UNL     1       3.344   6.414  19.185  0.00  0.00    +0.000 A 
ATOM      7  C   UNL     1       2.366   7.249  19.738  0.00  0.00    +0.000 A 
ATOM      8  C   UNL     1       1.420   6.723  20.612  0.00  0.00    +0.000 A 
ATOM      9 CL   UNL     1       0.237   7.754  21.314  0.00  0.00    +0.000 Cl
ATOM     10  C   UNL     1       1.434   5.370  20.928  0.00  0.00    +0.000 A 
ATOM     11  C   UNL     1       2.421   4.541  20.360  0.00  0.00    +0.000 A 
BRANCH  11  12
ATOM     12  N   UNL     1       2.381   3.155  20.748  0.00  0.00    +0.000 N 
ATOM     13  O   UNL     1       2.759   2.885  21.900  0.00  0.00    +0.000 OA
ATOM     14  O   UNL     1       2.011   2.334  19.899  0.00  0.00    +0.000 OA
ENDBRANCH  11  12
ENDBRANCH   2   5
BRANCH   3  15
ATOM     15  N   UNL     1       6.002   3.899  16.987  0.00  0.00    +0.000 NA
ATOM     16  C   UNL     1       7.279   4.586  17.281  0.00  0.00    +0.000 C 
ATOM     17  C   UNL     1       7.447   5.891  16.492  0.00  0.00    +0.000 C 
ATOM     18  O   UNL     1       7.354   5.656  15.081  0.00  0.00    +0.000 OA
ATOM     19  C   UNL     1       6.095   5.061  14.748  0.00  0.00    +0.000 C 
ATOM     20  C   UNL     1       5.857   3.754  15.523  0.00  0.00    +0.000 C 
ENDBRANCH   3  15
TORSDOF 3
ENDMDL
MODEL 7
REMARK VINA RESULT:      -6.4      3.277      6.083
REMARK  Name = 
REMARK  3 active torsions:
REMARK  status: ('A' for Active; 'I' for Inactive)
REMARK    1  A    between atoms: C_2  and  C_10
REMARK    2  A    between atoms: N_3  and  N_4
REMARK    3  A    between atoms: C_16  and  N_17
REMARK                            x       y       z     vdW  Elec       q    Type
REMARK                         _______ _______ _______ _____ _____    ______ ____
ROOT
ATOM      1  O   UNL     1       3.163   6.948  18.770  0.00  0.00    +0.000 OA
ATOM      2  C   UNL     1       3.464   5.808  18.425  0.00  0.00    +0.000 C 
ATOM      3  N   UNL     1       2.819   4.664  18.874  0.00  0.00    +0.000 N 
ATOM      4  H   UNL     1       3.099   3.732  18.568  0.00  0.00    +0.000 HD
ENDROOT
BRANCH   2   5
ATOM      5  C   UNL     1       4.647   5.654  17.523  0.00  0.00    +0.000 A 
ATOM      6  C   UNL     1       4.449   6.062  16.190  0.00  0.00    +0.000 A 
ATOM      7  C   UNL     1       5.447   5.907  15.219  0.00  0.00    +0.000 A 
ATOM      8  C   UNL     1       6.664   5.328  15.564  0.00  0.00    +0.000 A 
ATOM      9 CL   UNL     1       7.878   5.111  14.367  0.00  0.00    +0.000 Cl
ATOM     10  C   UNL     1       6.899   4.916  16.870  0.00  0.00    +0.000 A 
ATOM     11  C   UNL     1       5.887   5.084  17.836  0.00  0.00    +0.000 A 
BRANCH  11  12
ATOM     12  N   UNL     1       6.199   4.618  19.163  0.00  0.00    +0.000 N 
ATOM     13  O   UNL     1       5.589   3.611  19.559  0.00  0.00    +0.000 OA
ATOM     14  O   UNL     1       7.017   5.271  19.822  0.00  0.00    +0.000 OA
ENDBRANCH  11  12
ENDBRANCH   2   5
BRANCH   3  15
ATOM     15  N   UNL     1       1.716   4.777  19.753  0.00  0.00    +0.000 NA
ATOM     16  C   UNL     1       2.137   4.722  21.171  0.00  0.00    +0.000 C 
ATOM     17  C   UNL     1       2.549   3.313  21.613  0.00  0.00    +0.000 C 
ATOM     18  O   UNL     1       1.487   2.374  21.402  0.00  0.00    +0.000 OA
ATOM     19  C   UNL     1       1.105   2.343  20.022  0.00  0.00    +0.000 C 
ATOM     20  C   UNL     1       0.697   3.734  19.510  0.00  0.00    +0.000 C 
ENDBRANCH   3  15
TORSDOF 3
ENDMDL
MODEL 8
REMARK VINA RESULT:      -6.4      0.991      1.235
REMARK  Name = 
REMARK  3 active torsions:
REMARK  status: ('A' for Active; 'I' for Inactive)
REMARK    1  A    between atoms: C_2  and  C_10
REMARK    2  A    between atoms: N_3  and  N_4
REMARK    3  A    between atoms: C_16  and  N_17
REMARK                            x       y       z     vdW  Elec       q    Type
REMARK                         _______ _______ _______ _____ _____    ______ ____
ROOT
ATOM      1  O   UNL     1       2.447   6.805  17.854  0.00  0.00    +0.000 OA
ATOM      2  C   UNL     1       3.218   5.905  18.177  0.00  0.00    +0.000 C 
ATOM      3  N   UNL     1       4.494   5.750  17.653  0.00  0.00    +0.000 N 
ATOM      4  H   UNL     1       5.106   4.987  17.941  0.00  0.00    +0.000 HD
ENDROOT
BRANCH   2   5
ATOM      5  C   UNL     1       2.711   4.879  19.139  0.00  0.00    +0.000 A 
ATOM      6  C   UNL     1       1.572   5.252  19.878  0.00  0.00    +0.000 A 
ATOM      7  C   UNL     1       1.033   4.419  20.866  0.00  0.00    +0.000 A 
ATOM      8  C   UNL     1       1.632   3.195  21.142  0.00  0.00    +0.000 A 
ATOM      9 CL   UNL     1       0.989   2.186  22.376  0.00  0.00    +0.000 Cl
ATOM     10  C   UNL     1       2.756   2.789  20.432  0.00  0.00    +0.000 A 
ATOM     11  C   UNL     1       3.283   3.636  19.437  0.00  0.00    +0.000 A 
BRANCH  11  12
ATOM     12  N   UNL     1       4.457   3.154  18.757  0.00  0.00    +0.000 N 
ATOM     13  O   UNL     1       4.276   2.553  17.686  0.00  0.00    +0.000 OA
ATOM     14  O   UNL     1       5.552   3.340  19.302  0.00  0.00    +0.000 OA
ENDBRANCH  11  12
ENDBRANCH   2   5
BRANCH   3  15
ATOM     15  N   UNL     1       4.989   6.688  16.716  0.00  0.00    +0.000 NA
ATOM     16  C   UNL     1       5.270   6.058  15.406  0.00  0.00    +0.000 C 
ATOM     17  C   UNL     1       6.526   5.177  15.428  0.00  0.00    +0.000 C 
ATOM     18  O   UNL     1       7.674   5.925  15.846  0.00  0.00    +0.000 OA
ATOM     19  C   UNL     1       7.468   6.486  17.148  0.00  0.00    +0.000 C 
ATOM     20  C   UNL     1       6.210   7.369  17.197  0.00  0.00    +0.000 C 
ENDBRANCH   3  15
TORSDOF 3
ENDMDL
MODEL 9
REMARK VINA RESULT:      -6.3      3.391      6.485
REMARK  Name = 
REMARK  3 active torsions:
REMARK  status: ('A' for Active; 'I' for Inactive)
REMARK    1  A    between atoms: C_2  and  C_10
REMARK    2  A    between atoms: N_3  and  N_4
REMARK    3  A    between atoms: C_16  and  N_17
REMARK                            x       y       z     vdW  Elec       q    Type
REMARK                         _______ _______ _______ _____ _____    ______ ____
ROOT
ATOM      1  O   UNL     1       4.530   6.394  17.576  0.00  0.00    +0.000 OA
ATOM      2  C   UNL     1       4.423   5.282  17.065  0.00  0.00    +0.000 C 
ATOM      3  N   UNL     1       3.640   4.261  17.584  0.00  0.00    +0.000 N 
ATOM      4  H   UNL     1       3.578   3.346  17.134  0.00  0.00    +0.000 HD
ENDROOT
BRANCH   2   5
ATOM      5  C   UNL     1       5.251   5.002  15.851  0.00  0.00    +0.000 A 
ATOM      6  C   UNL     1       4.563   4.415  14.771  0.00  0.00    +0.000 A 
ATOM      7  C   UNL     1       5.227   4.032  13.600  0.00  0.00    +0.000 A 
ATOM      8  C   UNL     1       6.601   4.221  13.489  0.00  0.00    +0.000 A 
ATOM      9 CL   UNL     1       7.421   3.724  12.063  0.00  0.00    +0.000 Cl
ATOM     10  C   UNL     1       7.314   4.800  14.532  0.00  0.00    +0.000 A 
ATOM     11  C   UNL     1       6.631   5.185  15.702  0.00  0.00    +0.000 A 
BRANCH  11  12
ATOM     12  N   UNL     1       7.440   5.763  16.743  0.00  0.00    +0.000 N 
ATOM     13  O   UNL     1       7.699   6.974  16.644  0.00  0.00    +0.000 OA
ATOM     14  O   UNL     1       7.848   5.010  17.636  0.00  0.00    +0.000 OA
ENDBRANCH  11  12
ENDBRANCH   2   5
BRANCH   3  15
ATOM     15  N   UNL     1       2.870   4.486  18.749  0.00  0.00    +0.000 NA
ATOM     16  C   UNL     1       3.430   3.777  19.922  0.00  0.00    +0.000 C 
ATOM     17  C   UNL     1       3.196   2.263  19.868  0.00  0.00    +0.000 C 
ATOM     18  O   UNL     1       1.799   1.960  19.759  0.00  0.00    +0.000 OA
ATOM     19  C   UNL     1       1.239   2.567  18.588  0.00  0.00    +0.000 C 
ATOM     20  C   UNL     1       1.457   4.089  18.573  0.00  0.00    +0.000 C 
ENDBRANCH   3  15
TORSDOF 3
ENDMDL
