MODEL 1
REMARK VINA RESULT:      -6.3      0.000      0.000
REMARK  Name = 
REMARK  3 active torsions:
REMARK  status: ('A' for Active; 'I' for Inactive)
REMARK    1  A    between atoms: C_2  and  C_3
REMARK    2  A    between atoms: C_2  and  C_9
REMARK    3  A    between atoms: C_3  and  N_4
REMARK                            x       y       z     vdW  Elec       q    Type
REMARK                         _______ _______ _______ _____ _____    ______ ____
ROOT
ATOM      1  O   UNL     1       3.010   7.241  18.209  0.00  0.00    +0.000 OA
ATOM      2  C   UNL     1       3.276   6.058  18.060  0.00  0.00    +0.000 C 
ENDROOT
BRANCH   2   3
ATOM      3  C   UNL     1       2.398   5.024  18.690  0.00  0.00    +0.000 A 
ATOM      4  C   UNL     1       1.916   3.944  17.922  0.00  0.00    +0.000 A 
ATOM      5  C   UNL     1       1.109   2.959  18.502  0.00  0.00    +0.000 A 
ATOM      6  C   UNL     1       0.775   3.037  19.856  0.00  0.00    +0.000 A 
ATOM      7  C   UNL     1       1.236   4.103  20.627  0.00  0.00    +0.000 A 
ATOM      8  C   UNL     1       2.035   5.091  20.050  0.00  0.00    +0.000 A 
ENDBRANCH   2   3
BRANCH   2   9
ATOM      9  C   UNL     1       4.489   5.703  17.229  0.00  0.00    +0.000 C 
BRANCH   9  10
ATOM     10  N   UNL     1       5.704   5.739  18.040  0.00  0.00    +0.000 N 
ATOM     11  C   UNL     1       5.885   5.196  19.256  0.00  0.00    +0.000 A 
ATOM     12  N   UNL     1       7.128   5.449  19.706  0.00  0.00    +0.000 NA
ATOM     13  C   UNL     1       7.683   6.164  18.705  0.00  0.00    +0.000 A 
ATOM     14  N   UNL     1       6.827   6.339  17.682  0.00  0.00    +0.000 NA
ENDBRANCH   9  10
ENDBRANCH   2   9
TORSDOF 3
ENDMDL
MODEL 2
REMARK VINA RESULT:      -6.2      1.362      1.874
REMARK  Name = 
REMARK  3 active torsions:
REMARK  status: ('A' for Active; 'I' for Inactive)
REMARK    1  A    between atoms: C_2  and  C_3
REMARK    2  A    between atoms: C_2  and  C_9
REMARK    3  A    between atoms: C_3  and  N_4
REMARK                            x       y       z     vdW  Elec       q    Type
REMARK                         _______ _______ _______ _____ _____    ______ ____
ROOT
ATOM      1  O   UNL     1       3.551   6.683  17.628  0.00  0.00    +0.000 OA
ATOM      2  C   UNL     1       3.852   5.735  18.337  0.00  0.00    +0.000 C 
ENDROOT
BRANCH   2   3
ATOM      3  C   UNL     1       2.774   4.847  18.871  0.00  0.00    +0.000 A 
ATOM      4  C   UNL     1       2.162   3.895  18.029  0.00  0.00    +0.000 A 
ATOM      5  C   UNL     1       1.166   3.044  18.519  0.00  0.00    +0.000 A 
ATOM      6  C   UNL     1       0.767   3.130  19.855  0.00  0.00    +0.000 A 
ATOM      7  C   UNL     1       1.355   4.072  20.698  0.00  0.00    +0.000 A 
ATOM      8  C   UNL     1       2.345   4.927  20.211  0.00  0.00    +0.000 A 
ENDBRANCH   2   3
BRANCH   2   9
ATOM      9  C   UNL     1       5.318   5.506  18.631  0.00  0.00    +0.000 C 
BRANCH   9  10
ATOM     10  N   UNL     1       6.070   5.302  17.395  0.00  0.00    +0.000 N 
ATOM     11  C   UNL     1       7.005   6.113  16.870  0.00  0.00    +0.000 A 
ATOM     12  N   UNL     1       7.468   5.610  15.710  0.00  0.00    +0.000 NA
ATOM     13  C   UNL     1       6.772   4.463  15.566  0.00  0.00    +0.000 A 
ATOM     14  N   UNL     1       5.925   4.261  16.592  0.00  0.00    +0.000 NA
ENDBRANCH   9  10
ENDBRANCH   2   9
TORSDOF 3
ENDMDL
MODEL 3
REMARK VINA RESULT:      -6.2      3.252      5.082
REMARK  Name = 
REMARK  3 active torsions:
REMARK  status: ('A' for Active; 'I' for Inactive)
REMARK    1  A    between atoms: C_2  and  C_3
REMARK    2  A    between atoms: C_2  and  C_9
REMARK    3  A    between atoms: C_3  and  N_4
REMARK                            x       y       z     vdW  Elec       q    Type
REMARK                         _______ _______ _______ _____ _____    ______ ____
ROOT
ATOM      1  O   UNL     1       1.106   4.014  17.242  0.00  0.00    +0.000 OA
ATOM      2  C   UNL     1       2.228   3.664  17.578  0.00  0.00    +0.000 C 
ENDROOT
BRANCH   2   3
ATOM      3  C   UNL     1       3.393   4.554  17.283  0.00  0.00    +0.000 A 
ATOM      4  C   UNL     1       3.390   5.892  17.729  0.00  0.00    +0.000 A 
ATOM      5  C   UNL     1       4.481   6.731  17.477  0.00  0.00    +0.000 A 
ATOM      6  C   UNL     1       5.590   6.247  16.779  0.00  0.00    +0.000 A 
ATOM      7  C   UNL     1       5.604   4.930  16.324  0.00  0.00    +0.000 A 
ATOM      8  C   UNL     1       4.516   4.091  16.567  0.00  0.00    +0.000 A 
ENDBRANCH   2   3
BRANCH   2   9
ATOM      9  C   UNL     1       2.374   2.337  18.289  0.00  0.00    +0.000 C 
BRANCH   9  10
ATOM     10  N   UNL     1       2.248   2.505  19.735  0.00  0.00    +0.000 N 
ATOM     11  C   UNL     1       3.240   2.514  20.641  0.00  0.00    +0.000 A 
ATOM     12  N   UNL     1       2.745   2.673  21.882  0.00  0.00    +0.000 NA
ATOM     13  C   UNL     1       1.414   2.761  21.679  0.00  0.00    +0.000 A 
ATOM     14  N   UNL     1       1.101   2.669  20.373  0.00  0.00    +0.000 NA
ENDBRANCH   9  10
ENDBRANCH   2   9
TORSDOF 3
ENDMDL
MODEL 4
REMARK VINA RESULT:      -6.1      2.149      2.838
REMARK  Name = 
REMARK  3 active torsions:
REMARK  status: ('A' for Active; 'I' for Inactive)
REMARK    1  A    between atoms: C_2  and  C_3
REMARK    2  A    between atoms: C_2  and  C_9
REMARK    3  A    between atoms: C_3  and  N_4
REMARK                            x       y       z     vdW  Elec       q    Type
REMARK                         _______ _______ _______ _____ _____    ______ ____
ROOT
ATOM      1  O   UNL     1       5.279   2.637  19.937  0.00  0.00    +0.000 OA
ATOM      2  C   UNL     1       4.572   3.560  19.560  0.00  0.00    +0.000 C 
ENDROOT
BRANCH   2   3
ATOM      3  C   UNL     1       3.087   3.391  19.556  0.00  0.00    +0.000 A 
ATOM      4  C   UNL     1       2.289   4.128  20.455  0.00  0.00    +0.000 A 
ATOM      5  C   UNL     1       0.897   3.994  20.449  0.00  0.00    +0.000 A 
ATOM      6  C   UNL     1       0.280   3.125  19.545  0.00  0.00    +0.000 A 
ATOM      7  C   UNL     1       1.055   2.383  18.656  0.00  0.00    +0.000 A 
ATOM      8  C   UNL     1       2.445   2.508  18.663  0.00  0.00    +0.000 A 
ENDBRANCH   2   3
BRANCH   2   9
ATOM      9  C   UNL     1       5.250   4.840  19.123  0.00  0.00    +0.000 C 
BRANCH   9  10
ATOM     10  N   UNL     1       6.053   4.619  17.922  0.00  0.00    +0.000 N 
ATOM     11  C   UNL     1       7.386   4.748  17.802  0.00  0.00    +0.000 A 
ATOM     12  N   UNL     1       7.774   4.483  16.541  0.00  0.00    +0.000 NA
ATOM     13  C   UNL     1       6.616   4.188  15.913  0.00  0.00    +0.000 A 
ATOM     14  N   UNL     1       5.563   4.259  16.749  0.00  0.00    +0.000 NA
ENDBRANCH   9  10
ENDBRANCH   2   9
TORSDOF 3
ENDMDL
MODEL 5
REMARK VINA RESULT:      -6.1      2.074      2.525
REMARK  Name = 
REMARK  3 active torsions:
REMARK  status: ('A' for Active; 'I' for Inactive)
REMARK    1  A    between atoms: C_2  and  C_3
REMARK    2  A    between atoms: C_2  and  C_9
REMARK    3  A    between atoms: C_3  and  N_4
REMARK                            x       y       z     vdW  Elec       q    Type
REMARK                         _______ _______ _______ _____ _____    ______ ____
ROOT
ATOM      1  O   UNL     1       5.691   3.755  19.480  0.00  0.00    +0.000 OA
ATOM      2  C   UNL     1       4.750   4.365  18.994  0.00  0.00    +0.000 C 
ENDROOT
BRANCH   2   3
ATOM      3  C   UNL     1       3.358   3.871  19.227  0.00  0.00    +0.000 A 
ATOM      4  C   UNL     1       2.451   3.781  18.150  0.00  0.00    +0.000 A 
ATOM      5  C   UNL     1       1.152   3.301  18.349  0.00  0.00    +0.000 A 
ATOM      6  C   UNL     1       0.740   2.904  19.623  0.00  0.00    +0.000 A 
ATOM      7  C   UNL     1       1.621   2.995  20.700  0.00  0.00    +0.000 A 
ATOM      8  C   UNL     1       2.915   3.479  20.507  0.00  0.00    +0.000 A 
ENDBRANCH   2   3
BRANCH   2   9
ATOM      9  C   UNL     1       5.051   5.606  18.184  0.00  0.00    +0.000 C 
BRANCH   9  10
ATOM     10  N   UNL     1       5.850   5.277  17.006  0.00  0.00    +0.000 N 
ATOM     11  C   UNL     1       6.993   5.863  16.610  0.00  0.00    +0.000 A 
ATOM     12  N   UNL     1       7.435   5.310  15.466  0.00  0.00    +0.000 NA
ATOM     13  C   UNL     1       6.509   4.366  15.197  0.00  0.00    +0.000 A 
ATOM     14  N   UNL     1       5.544   4.332  16.134  0.00  0.00    +0.000 NA
ENDBRANCH   9  10
ENDBRANCH   2   9
TORSDOF 3
ENDMDL
MODEL 6
REMARK VINA RESULT:      -6.1      1.748      2.530
REMARK  Name = 
REMARK  3 active torsions:
REMARK  status: ('A' for Active; 'I' for Inactive)
REMARK    1  A    between atoms: C_2  and  C_3
REMARK    2  A    between atoms: C_2  and  C_9
REMARK    3  A    between atoms: C_3  and  N_4
REMARK                            x       y       z     vdW  Elec       q    Type
REMARK                         _______ _______ _______ _____ _____    ______ ____
ROOT
ATOM      1  O   UNL     1       5.240   5.413  19.641  0.00  0.00    +0.000 OA
ATOM      2  C   UNL     1       4.313   5.410  18.844  0.00  0.00    +0.000 C 
ENDROOT
BRANCH   2   3
ATOM      3  C   UNL     1       3.088   4.607  19.148  0.00  0.00    +0.000 A 
ATOM      4  C   UNL     1       2.540   4.621  20.448  0.00  0.00    +0.000 A 
ATOM      5  C   UNL     1       1.383   3.891  20.742  0.00  0.00    +0.000 A 
ATOM      6  C   UNL     1       0.757   3.139  19.745  0.00  0.00    +0.000 A 
ATOM      7  C   UNL     1       1.292   3.108  18.458  0.00  0.00    +0.000 A 
ATOM      8  C   UNL     1       2.449   3.830  18.162  0.00  0.00    +0.000 A 
ENDBRANCH   2   3
BRANCH   2   9
ATOM      9  C   UNL     1       4.457   6.235  17.585  0.00  0.00    +0.000 C 
BRANCH   9  10
ATOM     10  N   UNL     1       5.483   5.672  16.709  0.00  0.00    +0.000 N 
ATOM     11  C   UNL     1       6.758   6.080  16.587  0.00  0.00    +0.000 A 
ATOM     12  N   UNL     1       7.405   5.339  15.669  0.00  0.00    +0.000 NA
ATOM     13  C   UNL     1       6.462   4.469  15.249  0.00  0.00    +0.000 A 
ATOM     14  N   UNL     1       5.290   4.658  15.884  0.00  0.00    +0.000 NA
ENDBRANCH   9  10
ENDBRANCH   2   9
TORSDOF 3
ENDMDL
MODEL 7
REMARK VINA RESULT:      -6.0      1.298      1.827
REMARK  Name = 
REMARK  3 active torsions:
REMARK  status: ('A' for Active; 'I' for Inactive)
REMARK    1  A    between atoms: C_2  and  C_3
REMARK    2  A    between atoms: C_2  and  C_9
REMARK    3  A    between atoms: C_3  and  N_4
REMARK                            x       y       z     vdW  Elec       q    Type
REMARK                         _______ _______ _______ _____ _____    ______ ____
ROOT
ATOM      1  O   UNL     1       4.511   3.597  16.767  0.00  0.00    +0.000 OA
ATOM      2  C   UNL     1       3.984   4.403  17.520  0.00  0.00    +0.000 C 
ENDROOT
BRANCH   2   3
ATOM      3  C   UNL     1       2.831   3.970  18.367  0.00  0.00    +0.000 A 
ATOM      4  C   UNL     1       2.460   4.728  19.497  0.00  0.00    +0.000 A 
ATOM      5  C   UNL     1       1.371   4.345  20.287  0.00  0.00    +0.000 A 
ATOM      6  C   UNL     1       0.636   3.203  19.962  0.00  0.00    +0.000 A 
ATOM      7  C   UNL     1       0.996   2.437  18.854  0.00  0.00    +0.000 A 
ATOM      8  C   UNL     1       2.086   2.811  18.067  0.00  0.00    +0.000 A 
ENDBRANCH   2   3
BRANCH   2   9
ATOM      9  C   UNL     1       4.543   5.808  17.557  0.00  0.00    +0.000 C 
BRANCH   9  10
ATOM     10  N   UNL     1       5.828   5.838  18.253  0.00  0.00    +0.000 N 
ATOM     11  C   UNL     1       6.136   5.239  19.416  0.00  0.00    +0.000 A 
ATOM     12  N   UNL     1       7.409   5.504  19.761  0.00  0.00    +0.000 NA
ATOM     13  C   UNL     1       7.850   6.285  18.753  0.00  0.00    +0.000 A 
ATOM     14  N   UNL     1       6.897   6.487  17.824  0.00  0.00    +0.000 NA
ENDBRANCH   9  10
ENDBRANCH   2   9
TORSDOF 3
ENDMDL
MODEL 8
REMARK VINA RESULT:      -6.0      2.007      2.502
REMARK  Name = 
REMARK  3 active torsions:
REMARK  status: ('A' for Active; 'I' for Inactive)
REMARK    1  A    between atoms: C_2  and  C_3
REMARK    2  A    between atoms: C_2  and  C_9
REMARK    3  A    between atoms: C_3  and  N_4
REMARK                            x       y       z     vdW  Elec       q    Type
REMARK                         _______ _______ _______ _____ _____    ______ ____
ROOT
ATOM      1  O   UNL     1       5.518   3.662  19.305  0.00  0.00    +0.000 OA
ATOM      2  C   UNL     1       4.563   3.767  18.549  0.00  0.00    +0.000 C 
ENDROOT
BRANCH   2   3
ATOM      3  C   UNL     1       3.181   3.571  19.083  0.00  0.00    +0.000 A 
ATOM      4  C   UNL     1       2.756   4.283  20.223  0.00  0.00    +0.000 A 
ATOM      5  C   UNL     1       1.459   4.123  20.722  0.00  0.00    +0.000 A 
ATOM      6  C   UNL     1       0.567   3.254  20.090  0.00  0.00    +0.000 A 
ATOM      7  C   UNL     1       0.975   2.535  18.967  0.00  0.00    +0.000 A 
ATOM      8  C   UNL     1       2.270   2.686  18.470  0.00  0.00    +0.000 A 
ENDBRANCH   2   3
BRANCH   2   9
ATOM      9  C   UNL     1       4.840   4.104  17.100  0.00  0.00    +0.000 C 
BRANCH   9  10
ATOM     10  N   UNL     1       5.751   5.242  16.996  0.00  0.00    +0.000 N 
ATOM     11  C   UNL     1       6.945   5.272  16.379  0.00  0.00    +0.000 A 
ATOM     12  N   UNL     1       7.512   6.486  16.505  0.00  0.00    +0.000 NA
ATOM     13  C   UNL     1       6.604   7.181  17.222  0.00  0.00    +0.000 A 
ATOM     14  N   UNL     1       5.524   6.435  17.518  0.00  0.00    +0.000 NA
ENDBRANCH   9  10
ENDBRANCH   2   9
TORSDOF 3
ENDMDL
MODEL 9
REMARK VINA RESULT:      -6.0      2.002      2.137
REMARK  Name = 
REMARK  3 active torsions:
REMARK  status: ('A' for Active; 'I' for Inactive)
REMARK    1  A    between atoms: C_2  and  C_3
REMARK    2  A    between atoms: C_2  and  C_9
REMARK    3  A    between atoms: C_3  and  N_4
REMARK                            x       y       z     vdW  Elec       q    Type
REMARK                         _______ _______ _______ _____ _____    ______ ____
ROOT
ATOM      1  O   UNL     1       5.447   3.611  19.149  0.00  0.00    +0.000 OA
ATOM      2  C   UNL     1       4.487   3.768  18.409  0.00  0.00    +0.000 C 
ENDROOT
BRANCH   2   3
ATOM      3  C   UNL     1       3.107   3.552  18.943  0.00  0.00    +0.000 A 
ATOM      4  C   UNL     1       2.249   2.618  18.326  0.00  0.00    +0.000 A 
ATOM      5  C   UNL     1       0.962   2.392  18.826  0.00  0.00    +0.000 A 
ATOM      6  C   UNL     1       0.514   3.091  19.949  0.00  0.00    +0.000 A 
ATOM      7  C   UNL     1       1.347   4.024  20.565  0.00  0.00    +0.000 A 
ATOM      8  C   UNL     1       2.629   4.258  20.065  0.00  0.00    +0.000 A 
ENDBRANCH   2   3
BRANCH   2   9
ATOM      9  C   UNL     1       4.754   4.185  16.980  0.00  0.00    +0.000 C 
BRANCH   9  10
ATOM     10  N   UNL     1       5.711   5.288  16.930  0.00  0.00    +0.000 N 
ATOM     11  C   UNL     1       6.936   5.275  16.376  0.00  0.00    +0.000 A 
ATOM     12  N   UNL     1       7.540   6.466  16.540  0.00  0.00    +0.000 NA
ATOM     13  C   UNL     1       6.623   7.192  17.213  0.00  0.00    +0.000 A 
ATOM     14  N   UNL     1       5.502   6.486  17.448  0.00  0.00    +0.000 NA
ENDBRANCH   9  10
ENDBRANCH   2   9
TORSDOF 3
ENDMDL
