MODEL 1
REMARK VINA RESULT:      -7.1      0.000      0.000
REMARK  Name = 
REMARK  4 active torsions:
REMARK  status: ('A' for Active; 'I' for Inactive)
REMARK    1  A    between atoms: C_1  and  C_2
REMARK    2  A    between atoms: C_7  and  O_8
REMARK    3  A    between atoms: C_13  and  C_14
REMARK    4  A    between atoms: C_17  and  O_18
REMARK                            x       y       z     vdW  Elec       q    Type
REMARK                         _______ _______ _______ _____ _____    ______ ____
ROOT
ATOM      1  C   UNL     1       6.075   5.555  19.325  0.00  0.00    +0.000 C 
ATOM      2  C   UNL     1       5.620   5.306  17.889  0.00  0.00    +0.000 C 
ATOM      3  C   UNL     1       6.786   5.445  16.929  0.00  0.00    +0.000 C 
ATOM      4  O   UNL     1       7.833   6.027  17.199  0.00  0.00    +0.000 OA
ATOM      5  C   UNL     1       6.572   4.900  15.575  0.00  0.00    +0.000 A 
ATOM      6  C   UNL     1       7.449   5.221  14.534  0.00  0.00    +0.000 A 
ATOM      7  C   UNL     1       7.168   4.756  13.254  0.00  0.00    +0.000 A 
ATOM      8  C   UNL     1       6.041   3.978  13.006  0.00  0.00    +0.000 A 
ATOM      9  C   UNL     1       5.180   3.649  14.056  0.00  0.00    +0.000 A 
ATOM     10  C   UNL     1       5.453   4.102  15.347  0.00  0.00    +0.000 A 
ATOM     11  O   UNL     1       4.560   3.749  16.316  0.00  0.00    +0.000 OA
ATOM     12  C   UNL     1       5.046   3.901  17.667  0.00  0.00    +0.000 C 
ENDROOT
BRANCH  12  13
ATOM     13  C   UNL     1       3.863   3.570  18.561  0.00  0.00    +0.000 A 
ATOM     14  C   UNL     1       2.601   4.132  18.306  0.00  0.00    +0.000 A 
ATOM     15  C   UNL     1       1.529   3.898  19.171  0.00  0.00    +0.000 A 
ATOM     16  C   UNL     1       1.714   3.096  20.291  0.00  0.00    +0.000 A 
ATOM     17  C   UNL     1       2.941   2.497  20.542  0.00  0.00    +0.000 A 
ATOM     18  C   UNL     1       4.014   2.734  19.681  0.00  0.00    +0.000 A 
BRANCH  16  19
ATOM     19  O   UNL     1       0.709   2.885  21.188  0.00  0.00    +0.000 OA
ATOM     20  H   UNL     1      -0.140   2.958  20.721  0.00  0.00    +0.000 HD
ENDBRANCH  16  19
ENDBRANCH  12  13
BRANCH   7  21
ATOM     21  O   UNL     1       7.974   5.057  12.197  0.00  0.00    +0.000 OA
ATOM     22  H   UNL     1       7.775   5.959  11.896  0.00  0.00    +0.000 HD
ENDBRANCH   7  21
TORSDOF 3
ENDMDL
MODEL 2
REMARK VINA RESULT:      -7.0      0.400      1.152
REMARK  Name = 
REMARK  4 active torsions:
REMARK  status: ('A' for Active; 'I' for Inactive)
REMARK    1  A    between atoms: C_1  and  C_2
REMARK    2  A    between atoms: C_7  and  O_8
REMARK    3  A    between atoms: C_13  and  C_14
REMARK    4  A    between atoms: C_17  and  O_18
REMARK                            x       y       z     vdW  Elec       q    Type
REMARK                         _______ _______ _______ _____ _____    ______ ____
ROOT
ATOM      1  C   UNL     1       6.103   6.010  18.875  0.00  0.00    +0.000 C 
ATOM      2  C   UNL     1       5.599   5.580  17.499  0.00  0.00    +0.000 C 
ATOM      3  C   UNL     1       6.719   5.645  16.478  0.00  0.00    +0.000 C 
ATOM      4  O   UNL     1       7.753   6.289  16.632  0.00  0.00    +0.000 OA
ATOM      5  C   UNL     1       6.471   4.939  15.207  0.00  0.00    +0.000 A 
ATOM      6  C   UNL     1       7.291   5.166  14.097  0.00  0.00    +0.000 A 
ATOM      7  C   UNL     1       6.975   4.546  12.894  0.00  0.00    +0.000 A 
ATOM      8  C   UNL     1       5.869   3.707  12.788  0.00  0.00    +0.000 A 
ATOM      9  C   UNL     1       5.066   3.474  13.906  0.00  0.00    +0.000 A 
ATOM     10  C   UNL     1       5.374   4.083  15.123  0.00  0.00    +0.000 A 
ATOM     11  O   UNL     1       4.536   3.817  16.166  0.00  0.00    +0.000 OA
ATOM     12  C   UNL     1       5.071   4.140  17.466  0.00  0.00    +0.000 C 
ENDROOT
BRANCH  12  13
ATOM     13  C   UNL     1       3.939   3.877  18.446  0.00  0.00    +0.000 A 
ATOM     14  C   UNL     1       4.141   3.039  19.555  0.00  0.00    +0.000 A 
ATOM     15  C   UNL     1       3.084   2.727  20.414  0.00  0.00    +0.000 A 
ATOM     16  C   UNL     1       1.823   3.256  20.169  0.00  0.00    +0.000 A 
ATOM     17  C   UNL     1       1.608   4.119  19.103  0.00  0.00    +0.000 A 
ATOM     18  C   UNL     1       2.662   4.428  18.241  0.00  0.00    +0.000 A 
BRANCH  16  19
ATOM     19  O   UNL     1       0.753   2.935  20.952  0.00  0.00    +0.000 OA
ATOM     20  H   UNL     1       0.399   2.081  20.654  0.00  0.00    +0.000 HD
ENDBRANCH  16  19
ENDBRANCH  12  13
BRANCH   7  21
ATOM     21  O   UNL     1       7.725   4.747  11.773  0.00  0.00    +0.000 OA
ATOM     22  H   UNL     1       8.619   4.395  11.924  0.00  0.00    +0.000 HD
ENDBRANCH   7  21
TORSDOF 3
ENDMDL
MODEL 3
REMARK VINA RESULT:      -6.9      1.702      6.846
REMARK  Name = 
REMARK  4 active torsions:
REMARK  status: ('A' for Active; 'I' for Inactive)
REMARK    1  A    between atoms: C_1  and  C_2
REMARK    2  A    between atoms: C_7  and  O_8
REMARK    3  A    between atoms: C_13  and  C_14
REMARK    4  A    between atoms: C_17  and  O_18
REMARK                            x       y       z     vdW  Elec       q    Type
REMARK                         _______ _______ _______ _____ _____    ______ ____
ROOT
ATOM      1  C   UNL     1       3.625   7.349  17.526  0.00  0.00    +0.000 C 
ATOM      2  C   UNL     1       3.873   6.090  18.355  0.00  0.00    +0.000 C 
ATOM      3  C   UNL     1       2.710   5.834  19.294  0.00  0.00    +0.000 C 
ATOM      4  O   UNL     1       1.885   6.686  19.614  0.00  0.00    +0.000 OA
ATOM      5  C   UNL     1       2.653   4.488  19.894  0.00  0.00    +0.000 A 
ATOM      6  C   UNL     1       1.810   4.230  20.979  0.00  0.00    +0.000 A 
ATOM      7  C   UNL     1       1.846   2.972  21.571  0.00  0.00    +0.000 A 
ATOM      8  C   UNL     1       2.697   1.979  21.093  0.00  0.00    +0.000 A 
ATOM      9  C   UNL     1       3.523   2.242  19.998  0.00  0.00    +0.000 A 
ATOM     10  C   UNL     1       3.493   3.497  19.389  0.00  0.00    +0.000 A 
ATOM     11  O   UNL     1       4.337   3.681  18.333  0.00  0.00    +0.000 OA
ATOM     12  C   UNL     1       4.026   4.822  17.506  0.00  0.00    +0.000 C 
ENDROOT
BRANCH  12  13
ATOM     13  C   UNL     1       5.148   4.897  16.483  0.00  0.00    +0.000 A 
ATOM     14  C   UNL     1       6.405   5.411  16.845  0.00  0.00    +0.000 A 
ATOM     15  C   UNL     1       7.415   5.559  15.891  0.00  0.00    +0.000 A 
ATOM     16  C   UNL     1       7.173   5.188  14.573  0.00  0.00    +0.000 A 
ATOM     17  C   UNL     1       5.954   4.640  14.201  0.00  0.00    +0.000 A 
ATOM     18  C   UNL     1       4.942   4.496  15.152  0.00  0.00    +0.000 A 
BRANCH  16  19
ATOM     19  O   UNL     1       8.114   5.365  13.602  0.00  0.00    +0.000 OA
ATOM     20  H   UNL     1       7.661   5.586  12.772  0.00  0.00    +0.000 HD
ENDBRANCH  16  19
ENDBRANCH  12  13
BRANCH   7  21
ATOM     21  O   UNL     1       1.064   2.671  22.645  0.00  0.00    +0.000 OA
ATOM     22  H   UNL     1       0.685   1.784  22.521  0.00  0.00    +0.000 HD
ENDBRANCH   7  21
TORSDOF 3
ENDMDL
MODEL 4
REMARK VINA RESULT:      -6.9      3.929      5.250
REMARK  Name = 
REMARK  4 active torsions:
REMARK  status: ('A' for Active; 'I' for Inactive)
REMARK    1  A    between atoms: C_1  and  C_2
REMARK    2  A    between atoms: C_7  and  O_8
REMARK    3  A    between atoms: C_13  and  C_14
REMARK    4  A    between atoms: C_17  and  O_18
REMARK                            x       y       z     vdW  Elec       q    Type
REMARK                         _______ _______ _______ _____ _____    ______ ____
ROOT
ATOM      1  C   UNL     1       1.709   5.416  20.397  0.00  0.00    +0.000 C 
ATOM      2  C   UNL     1       2.996   5.982  19.801  0.00  0.00    +0.000 C 
ATOM      3  C   UNL     1       3.897   4.861  19.318  0.00  0.00    +0.000 C 
ATOM      4  O   UNL     1       3.793   3.692  19.680  0.00  0.00    +0.000 OA
ATOM      5  C   UNL     1       4.996   5.262  18.421  0.00  0.00    +0.000 A 
ATOM      6  C   UNL     1       6.047   4.381  18.148  0.00  0.00    +0.000 A 
ATOM      7  C   UNL     1       7.107   4.824  17.364  0.00  0.00    +0.000 A 
ATOM      8  C   UNL     1       7.127   6.118  16.851  0.00  0.00    +0.000 A 
ATOM      9  C   UNL     1       6.065   6.986  17.117  0.00  0.00    +0.000 A 
ATOM     10  C   UNL     1       4.991   6.553  17.894  0.00  0.00    +0.000 A 
ATOM     11  O   UNL     1       3.998   7.461  18.119  0.00  0.00    +0.000 OA
ATOM     12  C   UNL     1       2.757   6.893  18.590  0.00  0.00    +0.000 C 
ENDROOT
BRANCH  12  13
ATOM     13  C   UNL     1       1.854   8.080  18.881  0.00  0.00    +0.000 A 
ATOM     14  C   UNL     1       1.475   8.377  20.200  0.00  0.00    +0.000 A 
ATOM     15  C   UNL     1       0.579   9.416  20.468  0.00  0.00    +0.000 A 
ATOM     16  C   UNL     1       0.065  10.165  19.416  0.00  0.00    +0.000 A 
ATOM     17  C   UNL     1       0.457   9.917  18.108  0.00  0.00    +0.000 A 
ATOM     18  C   UNL     1       1.348   8.877  17.839  0.00  0.00    +0.000 A 
BRANCH  16  19
ATOM     19  O   UNL     1      -0.850  11.154  19.629  0.00  0.00    +0.000 OA
ATOM     20  H   UNL     1      -0.519  11.972  19.224  0.00  0.00    +0.000 HD
ENDBRANCH  16  19
ENDBRANCH  12  13
BRANCH   7  21
ATOM     21  O   UNL     1       8.169   4.017  17.084  0.00  0.00    +0.000 OA
ATOM     22  H   UNL     1       8.150   3.787  16.140  0.00  0.00    +0.000 HD
ENDBRANCH   7  21
TORSDOF 3
ENDMDL
MODEL 5
REMARK VINA RESULT:      -6.9      3.854      4.982
REMARK  Name = 
REMARK  4 active torsions:
REMARK  status: ('A' for Active; 'I' for Inactive)
REMARK    1  A    between atoms: C_1  and  C_2
REMARK    2  A    between atoms: C_7  and  O_8
REMARK    3  A    between atoms: C_13  and  C_14
REMARK    4  A    between atoms: C_17  and  O_18
REMARK                            x       y       z     vdW  Elec       q    Type
REMARK                         _______ _______ _______ _____ _____    ______ ____
ROOT
ATOM      1  C   UNL     1       1.453   4.946  20.584  0.00  0.00    +0.000 C 
ATOM      2  C   UNL     1       2.624   5.418  19.725  0.00  0.00    +0.000 C 
ATOM      3  C   UNL     1       3.097   4.304  18.811  0.00  0.00    +0.000 C 
ATOM      4  O   UNL     1       2.843   3.116  18.988  0.00  0.00    +0.000 OA
ATOM      5  C   UNL     1       3.976   4.714  17.700  0.00  0.00    +0.000 A 
ATOM      6  C   UNL     1       4.698   3.759  16.977  0.00  0.00    +0.000 A 
ATOM      7  C   UNL     1       5.579   4.191  15.992  0.00  0.00    +0.000 A 
ATOM      8  C   UNL     1       5.741   5.546  15.719  0.00  0.00    +0.000 A 
ATOM      9  C   UNL     1       5.004   6.491  16.437  0.00  0.00    +0.000 A 
ATOM     10  C   UNL     1       4.110   6.073  17.422  0.00  0.00    +0.000 A 
ATOM     11  O   UNL     1       3.435   7.055  18.087  0.00  0.00    +0.000 OA
ATOM     12  C   UNL     1       2.274   6.601  18.814  0.00  0.00    +0.000 C 
ENDROOT
BRANCH  12  13
ATOM     13  C   UNL     1       1.762   7.822  19.560  0.00  0.00    +0.000 A 
ATOM     14  C   UNL     1       1.451   9.001  18.862  0.00  0.00    +0.000 A 
ATOM     15  C   UNL     1       1.058  10.153  19.549  0.00  0.00    +0.000 A 
ATOM     16  C   UNL     1       0.970  10.128  20.936  0.00  0.00    +0.000 A 
ATOM     17  C   UNL     1       1.233   8.964  21.644  0.00  0.00    +0.000 A 
ATOM     18  C   UNL     1       1.630   7.813  20.959  0.00  0.00    +0.000 A 
BRANCH  16  19
ATOM     19  O   UNL     1       0.641  11.244  21.647  0.00  0.00    +0.000 OA
ATOM     20  H   UNL     1       1.068  11.190  22.518  0.00  0.00    +0.000 HD
ENDBRANCH  16  19
ENDBRANCH  12  13
BRANCH   7  21
ATOM     21  O   UNL     1       6.325   3.307  15.270  0.00  0.00    +0.000 OA
ATOM     22  H   UNL     1       5.895   2.436  15.296  0.00  0.00    +0.000 HD
ENDBRANCH   7  21
TORSDOF 3
ENDMDL
MODEL 6
REMARK VINA RESULT:      -6.9      3.951      5.182
REMARK  Name = 
REMARK  4 active torsions:
REMARK  status: ('A' for Active; 'I' for Inactive)
REMARK    1  A    between atoms: C_1  and  C_2
REMARK    2  A    between atoms: C_7  and  O_8
REMARK    3  A    between atoms: C_13  and  C_14
REMARK    4  A    between atoms: C_17  and  O_18
REMARK                            x       y       z     vdW  Elec       q    Type
REMARK                         _______ _______ _______ _____ _____    ______ ____
ROOT
ATOM      1  C   UNL     1       1.743   5.364  20.436  0.00  0.00    +0.000 C 
ATOM      2  C   UNL     1       3.020   5.942  19.830  0.00  0.00    +0.000 C 
ATOM      3  C   UNL     1       3.926   4.830  19.336  0.00  0.00    +0.000 C 
ATOM      4  O   UNL     1       3.835   3.660  19.696  0.00  0.00    +0.000 OA
ATOM      5  C   UNL     1       5.014   5.242  18.431  0.00  0.00    +0.000 A 
ATOM      6  C   UNL     1       6.070   4.370  18.146  0.00  0.00    +0.000 A 
ATOM      7  C   UNL     1       7.119   4.824  17.355  0.00  0.00    +0.000 A 
ATOM      8  C   UNL     1       7.124   6.119  16.845  0.00  0.00    +0.000 A 
ATOM      9  C   UNL     1       6.057   6.978  17.122  0.00  0.00    +0.000 A 
ATOM     10  C   UNL     1       4.994   6.534  17.908  0.00  0.00    +0.000 A 
ATOM     11  O   UNL     1       3.995   7.434  18.143  0.00  0.00    +0.000 OA
ATOM     12  C   UNL     1       2.764   6.854  18.624  0.00  0.00    +0.000 C 
ENDROOT
BRANCH  12  13
ATOM     13  C   UNL     1       1.854   8.033  18.926  0.00  0.00    +0.000 A 
ATOM     14  C   UNL     1       1.371   8.842  17.883  0.00  0.00    +0.000 A 
ATOM     15  C   UNL     1       0.601   9.975  18.159  0.00  0.00    +0.000 A 
ATOM     16  C   UNL     1       0.307  10.300  19.478  0.00  0.00    +0.000 A 
ATOM     17  C   UNL     1       0.739   9.494  20.522  0.00  0.00    +0.000 A 
ATOM     18  C   UNL     1       1.512   8.364  20.249  0.00  0.00    +0.000 A 
BRANCH  16  19
ATOM     19  O   UNL     1      -0.396  11.425  19.793  0.00  0.00    +0.000 OA
ATOM     20  H   UNL     1       0.146  11.972  20.385  0.00  0.00    +0.000 HD
ENDBRANCH  16  19
ENDBRANCH  12  13
BRANCH   7  21
ATOM     21  O   UNL     1       8.185   4.026  17.063  0.00  0.00    +0.000 OA
ATOM     22  H   UNL     1       9.002   4.480  17.331  0.00  0.00    +0.000 HD
ENDBRANCH   7  21
TORSDOF 3
ENDMDL
MODEL 7
REMARK VINA RESULT:      -6.8      3.849      5.050
REMARK  Name = 
REMARK  4 active torsions:
REMARK  status: ('A' for Active; 'I' for Inactive)
REMARK    1  A    between atoms: C_1  and  C_2
REMARK    2  A    between atoms: C_7  and  O_8
REMARK    3  A    between atoms: C_13  and  C_14
REMARK    4  A    between atoms: C_17  and  O_18
REMARK                            x       y       z     vdW  Elec       q    Type
REMARK                         _______ _______ _______ _____ _____    ______ ____
ROOT
ATOM      1  C   UNL     1       1.499   5.030  20.535  0.00  0.00    +0.000 C 
ATOM      2  C   UNL     1       2.672   5.474  19.663  0.00  0.00    +0.000 C 
ATOM      3  C   UNL     1       3.128   4.340  18.765  0.00  0.00    +0.000 C 
ATOM      4  O   UNL     1       2.862   3.158  18.963  0.00  0.00    +0.000 OA
ATOM      5  C   UNL     1       4.007   4.722  17.645  0.00  0.00    +0.000 A 
ATOM      6  C   UNL     1       4.715   3.747  16.933  0.00  0.00    +0.000 A 
ATOM      7  C   UNL     1       5.597   4.153  15.938  0.00  0.00    +0.000 A 
ATOM      8  C   UNL     1       5.773   5.502  15.643  0.00  0.00    +0.000 A 
ATOM      9  C   UNL     1       5.050   6.466  16.348  0.00  0.00    +0.000 A 
ATOM     10  C   UNL     1       4.155   6.074  17.344  0.00  0.00    +0.000 A 
ATOM     11  O   UNL     1       3.495   7.075  17.996  0.00  0.00    +0.000 OA
ATOM     12  C   UNL     1       2.331   6.646  18.735  0.00  0.00    +0.000 C 
ENDROOT
BRANCH  12  13
ATOM     13  C   UNL     1       1.836   7.885  19.462  0.00  0.00    +0.000 A 
ATOM     14  C   UNL     1       1.677   7.872  20.858  0.00  0.00    +0.000 A 
ATOM     15  C   UNL     1       1.145   8.979  21.525  0.00  0.00    +0.000 A 
ATOM     16  C   UNL     1       0.776  10.105  20.798  0.00  0.00    +0.000 A 
ATOM     17  C   UNL     1       0.962  10.156  19.424  0.00  0.00    +0.000 A 
ATOM     18  C   UNL     1       1.488   9.049  18.756  0.00  0.00    +0.000 A 
BRANCH  16  19
ATOM     19  O   UNL     1       0.205  11.185  21.404  0.00  0.00    +0.000 OA
ATOM     20  H   UNL     1       0.543  11.243  22.312  0.00  0.00    +0.000 HD
ENDBRANCH  16  19
ENDBRANCH  12  13
BRANCH   7  21
ATOM     21  O   UNL     1       6.330   3.249  15.228  0.00  0.00    +0.000 OA
ATOM     22  H   UNL     1       6.684   3.685  14.434  0.00  0.00    +0.000 HD
ENDBRANCH   7  21
TORSDOF 3
ENDMDL
MODEL 8
REMARK VINA RESULT:      -6.8      1.779      6.818
REMARK  Name = 
REMARK  4 active torsions:
REMARK  status: ('A' for Active; 'I' for Inactive)
REMARK    1  A    between atoms: C_1  and  C_2
REMARK    2  A    between atoms: C_7  and  O_8
REMARK    3  A    between atoms: C_13  and  C_14
REMARK    4  A    between atoms: C_17  and  O_18
REMARK                            x       y       z     vdW  Elec       q    Type
REMARK                         _______ _______ _______ _____ _____    ______ ____
ROOT
ATOM      1  C   UNL     1       3.487   7.560  17.731  0.00  0.00    +0.000 C 
ATOM      2  C   UNL     1       3.759   6.265  18.494  0.00  0.00    +0.000 C 
ATOM      3  C   UNL     1       2.612   5.950  19.435  0.00  0.00    +0.000 C 
ATOM      4  O   UNL     1       1.783   6.776  19.808  0.00  0.00    +0.000 OA
ATOM      5  C   UNL     1       2.577   4.576  19.968  0.00  0.00    +0.000 A 
ATOM      6  C   UNL     1       1.752   4.255  21.050  0.00  0.00    +0.000 A 
ATOM      7  C   UNL     1       1.809   2.970  21.578  0.00  0.00    +0.000 A 
ATOM      8  C   UNL     1       2.663   2.011  21.040  0.00  0.00    +0.000 A 
ATOM      9  C   UNL     1       3.472   2.337  19.949  0.00  0.00    +0.000 A 
ATOM     10  C   UNL     1       3.420   3.620  19.404  0.00  0.00    +0.000 A 
ATOM     11  O   UNL     1       4.248   3.865  18.347  0.00  0.00    +0.000 OA
ATOM     12  C   UNL     1       3.914   5.042  17.581  0.00  0.00    +0.000 C 
ENDROOT
BRANCH  12  13
ATOM     13  C   UNL     1       5.021   5.180  16.549  0.00  0.00    +0.000 A 
ATOM     14  C   UNL     1       4.901   4.561  15.294  0.00  0.00    +0.000 A 
ATOM     15  C   UNL     1       5.949   4.614  14.370  0.00  0.00    +0.000 A 
ATOM     16  C   UNL     1       7.118   5.291  14.698  0.00  0.00    +0.000 A 
ATOM     17  C   UNL     1       7.243   5.945  15.916  0.00  0.00    +0.000 A 
ATOM     18  C   UNL     1       6.199   5.889  16.841  0.00  0.00    +0.000 A 
BRANCH  16  19
ATOM     19  O   UNL     1       8.183   5.323  13.847  0.00  0.00    +0.000 OA
ATOM     20  H   UNL     1       8.634   6.176  13.951  0.00  0.00    +0.000 HD
ENDBRANCH  16  19
ENDBRANCH  12  13
BRANCH   7  21
ATOM     21  O   UNL     1       1.045   2.607  22.647  0.00  0.00    +0.000 OA
ATOM     22  H   UNL     1       1.629   2.344  23.378  0.00  0.00    +0.000 HD
ENDBRANCH   7  21
TORSDOF 3
ENDMDL
MODEL 9
REMARK VINA RESULT:      -6.8      1.285      6.502
REMARK  Name = 
REMARK  4 active torsions:
REMARK  status: ('A' for Active; 'I' for Inactive)
REMARK    1  A    between atoms: C_1  and  C_2
REMARK    2  A    between atoms: C_7  and  O_8
REMARK    3  A    between atoms: C_13  and  C_14
REMARK    4  A    between atoms: C_17  and  O_18
REMARK                            x       y       z     vdW  Elec       q    Type
REMARK                         _______ _______ _______ _____ _____    ______ ____
ROOT
ATOM      1  C   UNL     1       7.516   4.850  17.738  0.00  0.00    +0.000 C 
ATOM      2  C   UNL     1       6.137   4.197  17.656  0.00  0.00    +0.000 C 
ATOM      3  C   UNL     1       5.341   4.474  18.917  0.00  0.00    +0.000 C 
ATOM      4  O   UNL     1       5.840   4.834  19.979  0.00  0.00    +0.000 OA
ATOM      5  C   UNL     1       3.893   4.206  18.834  0.00  0.00    +0.000 A 
ATOM      6  C   UNL     1       3.115   4.146  19.994  0.00  0.00    +0.000 A 
ATOM      7  C   UNL     1       1.771   3.809  19.883  0.00  0.00    +0.000 A 
ATOM      8  C   UNL     1       1.200   3.541  18.642  0.00  0.00    +0.000 A 
ATOM      9  C   UNL     1       1.982   3.618  17.487  0.00  0.00    +0.000 A 
ATOM     10  C   UNL     1       3.330   3.963  17.583  0.00  0.00    +0.000 A 
ATOM     11  O   UNL     1       4.031   4.007  16.412  0.00  0.00    +0.000 OA
ATOM     12  C   UNL     1       5.287   4.714  16.489  0.00  0.00    +0.000 C 
ENDROOT
BRANCH  12  13
ATOM     13  C   UNL     1       5.935   4.533  15.127  0.00  0.00    +0.000 A 
ATOM     14  C   UNL     1       7.079   5.272  14.781  0.00  0.00    +0.000 A 
ATOM     15  C   UNL     1       7.633   5.172  13.502  0.00  0.00    +0.000 A 
ATOM     16  C   UNL     1       7.047   4.328  12.566  0.00  0.00    +0.000 A 
ATOM     17  C   UNL     1       5.941   3.557  12.897  0.00  0.00    +0.000 A 
ATOM     18  C   UNL     1       5.384   3.660  14.173  0.00  0.00    +0.000 A 
BRANCH  16  19
ATOM     19  O   UNL     1       7.525   4.241  11.291  0.00  0.00    +0.000 OA
ATOM     20  H   UNL     1       7.897   3.353  11.163  0.00  0.00    +0.000 HD
ENDBRANCH  16  19
ENDBRANCH  12  13
BRANCH   7  21
ATOM     21  O   UNL     1       0.970   3.713  20.981  0.00  0.00    +0.000 OA
ATOM     22  H   UNL     1       0.445   2.897  20.919  0.00  0.00    +0.000 HD
ENDBRANCH   7  21
TORSDOF 3
ENDMDL
