MODEL 1
REMARK VINA RESULT:      -8.9      0.000      0.000
REMARK  Name = 
REMARK  5 active torsions:
REMARK  status: ('A' for Active; 'I' for Inactive)
REMARK    1  A    between atoms: C_1  and  C_2
REMARK    2  A    between atoms: C_2  and  C_3
REMARK    3  A    between atoms: N_5  and  C_6
REMARK    4  A    between atoms: C_19  and  C_21
REMARK    5  A    between atoms: C_21  and  C_22
REMARK                            x       y       z     vdW  Elec       q    Type
REMARK                         _______ _______ _______ _____ _____    ______ ____
ROOT
ATOM      1  C   UNL     1       2.242   3.989  17.455  0.00  0.00    +0.000 C 
ATOM      2  C   UNL     1       2.941   4.119  18.804  0.00  0.00    +0.000 C 
ATOM      3  C   UNL     1       2.933   2.725  19.500  0.00  0.00    +0.000 C 
ATOM      4  C   UNL     1       4.426   2.889  19.750  0.00  0.00    +0.000 C 
ATOM      5  N   UNL     1       4.397   3.969  18.774  0.00  0.00    +0.000 N 
ATOM      6  C   UNL     1       5.497   4.646  18.319  0.00  0.00    +0.000 C 
ATOM      7  O   UNL     1       6.602   4.454  18.830  0.00  0.00    +0.000 OA
ENDROOT
BRANCH   2   8
ATOM      8  C   UNL     1       2.309   5.266  19.678  0.00  0.00    +0.000 C 
ATOM      9  O   UNL     1       1.879   5.006  20.809  0.00  0.00    +0.000 OA
ATOM     10  N   UNL     1       2.257   6.535  19.109  0.00  0.00    +0.000 N 
ATOM     11  H   UNL     1       2.539   6.625  18.133  0.00  0.00    +0.000 HD
BRANCH  10  12
ATOM     12  C   UNL     1       1.816   7.718  19.763  0.00  0.00    +0.000 A 
ATOM     13  C   UNL     1       1.642   7.786  21.153  0.00  0.00    +0.000 A 
ATOM     14  C   UNL     1       1.200   8.958  21.767  0.00  0.00    +0.000 A 
ATOM     15  C   UNL     1       0.930  10.082  21.004  0.00  0.00    +0.000 A 
ATOM     16  C   UNL     1       1.133  10.046  19.621  0.00  0.00    +0.000 A 
ATOM     17  C   UNL     1       1.572   8.865  19.001  0.00  0.00    +0.000 A 
ATOM     18  O   UNL     1       0.906  11.136  18.815  0.00  0.00    +0.000 OA
ATOM     19  C   UNL     1       0.821  12.345  19.584  0.00  0.00    +0.000 C 
ATOM     20  C   UNL     1      -0.065  12.160  20.805  0.00  0.00    +0.000 C 
ATOM     21  O   UNL     1       0.489  11.184  21.687  0.00  0.00    +0.000 OA
ENDBRANCH  10  12
ENDBRANCH   2   8
BRANCH   6  22
ATOM     22  C   UNL     1       5.409   5.569  17.129  0.00  0.00    +0.000 C 
ATOM     23  C   UNL     1       4.488   6.776  17.066  0.00  0.00    +0.000 C 
ATOM     24  C   UNL     1       5.917   6.990  17.432  0.00  0.00    +0.000 C 
BRANCH  22  25
ATOM     25  C   UNL     1       5.864   4.914  15.819  0.00  0.00    +0.000 A 
ATOM     26  C   UNL     1       7.148   5.131  15.296  0.00  0.00    +0.000 A 
ATOM     27  C   UNL     1       7.478   4.772  13.986  0.00  0.00    +0.000 A 
ATOM     28  C   UNL     1       6.542   4.124  13.190  0.00  0.00    +0.000 A 
ATOM     29  C   UNL     1       5.296   3.800  13.717  0.00  0.00    +0.000 A 
ATOM     30  C   UNL     1       4.963   4.191  15.017  0.00  0.00    +0.000 A 
ENDBRANCH  22  25
ENDBRANCH   6  22
TORSDOF 4
ENDMDL
MODEL 2
REMARK VINA RESULT:      -8.1      4.345      6.886
REMARK  Name = 
REMARK  5 active torsions:
REMARK  status: ('A' for Active; 'I' for Inactive)
REMARK    1  A    between atoms: C_1  and  C_2
REMARK    2  A    between atoms: C_2  and  C_3
REMARK    3  A    between atoms: N_5  and  C_6
REMARK    4  A    between atoms: C_19  and  C_21
REMARK    5  A    between atoms: C_21  and  C_22
REMARK                            x       y       z     vdW  Elec       q    Type
REMARK                         _______ _______ _______ _____ _____    ______ ____
ROOT
ATOM      1  C   UNL     1       6.877   5.469  19.661  0.00  0.00    +0.000 C 
ATOM      2  C   UNL     1       6.991   5.689  18.156  0.00  0.00    +0.000 C 
ATOM      3  C   UNL     1       8.007   4.656  17.581  0.00  0.00    +0.000 C 
ATOM      4  C   UNL     1       6.977   4.299  16.519  0.00  0.00    +0.000 C 
ATOM      5  N   UNL     1       5.995   4.992  17.341  0.00  0.00    +0.000 N 
ATOM      6  C   UNL     1       4.651   5.042  17.084  0.00  0.00    +0.000 C 
ATOM      7  O   UNL     1       4.201   4.592  16.029  0.00  0.00    +0.000 OA
ENDROOT
BRANCH   2   8
ATOM      8  C   UNL     1       7.348   7.184  17.813  0.00  0.00    +0.000 C 
ATOM      9  O   UNL     1       6.863   7.713  16.805  0.00  0.00    +0.000 OA
ATOM     10  N   UNL     1       8.220   7.838  18.680  0.00  0.00    +0.000 N 
ATOM     11  H   UNL     1       8.648   7.285  19.423  0.00  0.00    +0.000 HD
BRANCH  10  12
ATOM     12  C   UNL     1       8.590   9.208  18.603  0.00  0.00    +0.000 A 
ATOM     13  C   UNL     1       8.165  10.043  17.559  0.00  0.00    +0.000 A 
ATOM     14  C   UNL     1       8.551  11.382  17.506  0.00  0.00    +0.000 A 
ATOM     15  C   UNL     1       9.363  11.911  18.496  0.00  0.00    +0.000 A 
ATOM     16  C   UNL     1       9.766  11.106  19.565  0.00  0.00    +0.000 A 
ATOM     17  C   UNL     1       9.384   9.755  19.617  0.00  0.00    +0.000 A 
ATOM     18  O   UNL     1      10.550  11.579  20.589  0.00  0.00    +0.000 OA
ATOM     19  C   UNL     1      10.566  13.015  20.613  0.00  0.00    +0.000 C 
ATOM     20  C   UNL     1      10.781  13.587  19.222  0.00  0.00    +0.000 C 
ATOM     21  O   UNL     1       9.702  13.230  18.357  0.00  0.00    +0.000 OA
ENDBRANCH  10  12
ENDBRANCH   2   8
BRANCH   6  22
ATOM     22  C   UNL     1       3.678   5.560  18.114  0.00  0.00    +0.000 C 
ATOM     23  C   UNL     1       3.817   6.908  18.800  0.00  0.00    +0.000 C 
ATOM     24  C   UNL     1       2.895   6.795  17.634  0.00  0.00    +0.000 C 
BRANCH  22  25
ATOM     25  C   UNL     1       2.891   4.447  18.818  0.00  0.00    +0.000 A 
ATOM     26  C   UNL     1       1.968   3.648  18.124  0.00  0.00    +0.000 A 
ATOM     27  C   UNL     1       1.055   2.829  18.793  0.00  0.00    +0.000 A 
ATOM     28  C   UNL     1       1.091   2.743  20.180  0.00  0.00    +0.000 A 
ATOM     29  C   UNL     1       2.064   3.441  20.888  0.00  0.00    +0.000 A 
ATOM     30  C   UNL     1       2.953   4.283  20.213  0.00  0.00    +0.000 A 
ENDBRANCH  22  25
ENDBRANCH   6  22
TORSDOF 4
ENDMDL
MODEL 3
REMARK VINA RESULT:      -8.1      0.833      1.529
REMARK  Name = 
REMARK  5 active torsions:
REMARK  status: ('A' for Active; 'I' for Inactive)
REMARK    1  A    between atoms: C_1  and  C_2
REMARK    2  A    between atoms: C_2  and  C_3
REMARK    3  A    between atoms: N_5  and  C_6
REMARK    4  A    between atoms: C_19  and  C_21
REMARK    5  A    between atoms: C_21  and  C_22
REMARK                            x       y       z     vdW  Elec       q    Type
REMARK                         _______ _______ _______ _____ _____    ______ ____
ROOT
ATOM      1  C   UNL     1       2.627   4.062  17.233  0.00  0.00    +0.000 C 
ATOM      2  C   UNL     1       3.261   4.275  18.603  0.00  0.00    +0.000 C 
ATOM      3  C   UNL     1       3.265   2.915  19.363  0.00  0.00    +0.000 C 
ATOM      4  C   UNL     1       4.739   3.138  19.669  0.00  0.00    +0.000 C 
ATOM      5  N   UNL     1       4.721   4.172  18.643  0.00  0.00    +0.000 N 
ATOM      6  C   UNL     1       5.819   4.862  18.205  0.00  0.00    +0.000 C 
ATOM      7  O   UNL     1       6.905   4.730  18.771  0.00  0.00    +0.000 OA
ENDROOT
BRANCH   2   8
ATOM      8  C   UNL     1       2.556   5.439  19.395  0.00  0.00    +0.000 C 
ATOM      9  O   UNL     1       2.267   5.280  20.588  0.00  0.00    +0.000 OA
ATOM     10  N   UNL     1       2.281   6.606  18.687  0.00  0.00    +0.000 N 
ATOM     11  H   UNL     1       2.463   6.601  17.683  0.00  0.00    +0.000 HD
BRANCH  10  12
ATOM     12  C   UNL     1       1.741   7.800  19.237  0.00  0.00    +0.000 A 
ATOM     13  C   UNL     1       1.636   8.986  18.496  0.00  0.00    +0.000 A 
ATOM     14  C   UNL     1       1.109  10.146  19.064  0.00  0.00    +0.000 A 
ATOM     15  C   UNL     1       0.675  10.139  20.380  0.00  0.00    +0.000 A 
ATOM     16  C   UNL     1       0.736   8.957  21.123  0.00  0.00    +0.000 A 
ATOM     17  C   UNL     1       1.272   7.790  20.555  0.00  0.00    +0.000 A 
ATOM     18  O   UNL     1       0.298   8.882  22.424  0.00  0.00    +0.000 OA
ATOM     19  C   UNL     1      -0.539   9.999  22.758  0.00  0.00    +0.000 C 
ATOM     20  C   UNL     1       0.072  11.307  22.283  0.00  0.00    +0.000 C 
ATOM     21  O   UNL     1       0.184  11.324  20.859  0.00  0.00    +0.000 OA
ENDBRANCH  10  12
ENDBRANCH   2   8
BRANCH   6  22
ATOM     22  C   UNL     1       5.756   5.727  16.970  0.00  0.00    +0.000 C 
ATOM     23  C   UNL     1       4.921   6.992  16.871  0.00  0.00    +0.000 C 
ATOM     24  C   UNL     1       6.373   7.121  17.180  0.00  0.00    +0.000 C 
BRANCH  22  25
ATOM     25  C   UNL     1       6.118   4.974  15.684  0.00  0.00    +0.000 A 
ATOM     26  C   UNL     1       7.344   5.181  15.031  0.00  0.00    +0.000 A 
ATOM     27  C   UNL     1       7.572   4.720  13.732  0.00  0.00    +0.000 A 
ATOM     28  C   UNL     1       6.594   3.979  13.080  0.00  0.00    +0.000 A 
ATOM     29  C   UNL     1       5.411   3.668  13.742  0.00  0.00    +0.000 A 
ATOM     30  C   UNL     1       5.178   4.160  15.029  0.00  0.00    +0.000 A 
ENDBRANCH  22  25
ENDBRANCH   6  22
TORSDOF 4
ENDMDL
MODEL 4
REMARK VINA RESULT:      -7.9      1.178      1.842
REMARK  Name = 
REMARK  5 active torsions:
REMARK  status: ('A' for Active; 'I' for Inactive)
REMARK    1  A    between atoms: C_1  and  C_2
REMARK    2  A    between atoms: C_2  and  C_3
REMARK    3  A    between atoms: N_5  and  C_6
REMARK    4  A    between atoms: C_19  and  C_21
REMARK    5  A    between atoms: C_21  and  C_22
REMARK                            x       y       z     vdW  Elec       q    Type
REMARK                         _______ _______ _______ _____ _____    ______ ____
ROOT
ATOM      1  C   UNL     1       3.403   4.281  17.010  0.00  0.00    +0.000 C 
ATOM      2  C   UNL     1       3.600   4.455  18.513  0.00  0.00    +0.000 C 
ATOM      3  C   UNL     1       3.511   3.053  19.187  0.00  0.00    +0.000 C 
ATOM      4  C   UNL     1       4.811   3.368  19.914  0.00  0.00    +0.000 C 
ATOM      5  N   UNL     1       4.992   4.459  18.967  0.00  0.00    +0.000 N 
ATOM      6  C   UNL     1       6.102   5.257  18.892  0.00  0.00    +0.000 C 
ATOM      7  O   UNL     1       6.990   5.172  19.742  0.00  0.00    +0.000 OA
ENDROOT
BRANCH   2   8
ATOM      8  C   UNL     1       2.597   5.510  19.112  0.00  0.00    +0.000 C 
ATOM      9  O   UNL     1       1.737   5.144  19.923  0.00  0.00    +0.000 OA
ATOM     10  N   UNL     1       2.731   6.825  18.675  0.00  0.00    +0.000 N 
ATOM     11  H   UNL     1       3.400   7.006  17.927  0.00  0.00    +0.000 HD
BRANCH  10  12
ATOM     12  C   UNL     1       1.993   7.938  19.162  0.00  0.00    +0.000 A 
ATOM     13  C   UNL     1       1.572   8.982  18.326  0.00  0.00    +0.000 A 
ATOM     14  C   UNL     1       0.856  10.066  18.833  0.00  0.00    +0.000 A 
ATOM     15  C   UNL     1       0.545  10.124  20.182  0.00  0.00    +0.000 A 
ATOM     16  C   UNL     1       0.924   9.075  21.025  0.00  0.00    +0.000 A 
ATOM     17  C   UNL     1       1.650   7.986  20.518  0.00  0.00    +0.000 A 
ATOM     18  O   UNL     1       0.624   9.064  22.366  0.00  0.00    +0.000 OA
ATOM     19  C   UNL     1      -0.403  10.016  22.679  0.00  0.00    +0.000 C 
ATOM     20  C   UNL     1      -0.133  11.357  22.017  0.00  0.00    +0.000 C 
ATOM     21  O   UNL     1      -0.148  11.230  20.595  0.00  0.00    +0.000 OA
ENDBRANCH  10  12
ENDBRANCH   2   8
BRANCH   6  22
ATOM     22  C   UNL     1       6.314   6.191  17.726  0.00  0.00    +0.000 C 
ATOM     23  C   UNL     1       6.036   7.684  17.782  0.00  0.00    +0.000 C 
ATOM     24  C   UNL     1       7.438   7.214  17.972  0.00  0.00    +0.000 C 
BRANCH  22  25
ATOM     25  C   UNL     1       6.281   5.481  16.367  0.00  0.00    +0.000 A 
ATOM     26  C   UNL     1       5.611   6.034  15.264  0.00  0.00    +0.000 A 
ATOM     27  C   UNL     1       5.339   5.283  14.118  0.00  0.00    +0.000 A 
ATOM     28  C   UNL     1       5.795   3.974  14.024  0.00  0.00    +0.000 A 
ATOM     29  C   UNL     1       6.554   3.434  15.057  0.00  0.00    +0.000 A 
ATOM     30  C   UNL     1       6.794   4.180  16.215  0.00  0.00    +0.000 A 
ENDBRANCH  22  25
ENDBRANCH   6  22
TORSDOF 4
ENDMDL
MODEL 5
REMARK VINA RESULT:      -7.8      0.917      1.097
REMARK  Name = 
REMARK  5 active torsions:
REMARK  status: ('A' for Active; 'I' for Inactive)
REMARK    1  A    between atoms: C_1  and  C_2
REMARK    2  A    between atoms: C_2  and  C_3
REMARK    3  A    between atoms: N_5  and  C_6
REMARK    4  A    between atoms: C_19  and  C_21
REMARK    5  A    between atoms: C_21  and  C_22
REMARK                            x       y       z     vdW  Elec       q    Type
REMARK                         _______ _______ _______ _____ _____    ______ ____
ROOT
ATOM      1  C   UNL     1       3.237   4.152  17.054  0.00  0.00    +0.000 C 
ATOM      2  C   UNL     1       3.469   4.299  18.554  0.00  0.00    +0.000 C 
ATOM      3  C   UNL     1       3.435   2.882  19.200  0.00  0.00    +0.000 C 
ATOM      4  C   UNL     1       4.744   3.217  19.900  0.00  0.00    +0.000 C 
ATOM      5  N   UNL     1       4.871   4.332  18.973  0.00  0.00    +0.000 N 
ATOM      6  C   UNL     1       5.957   5.162  18.887  0.00  0.00    +0.000 C 
ATOM      7  O   UNL     1       6.869   5.083  19.711  0.00  0.00    +0.000 OA
ENDROOT
BRANCH   2   8
ATOM      8  C   UNL     1       2.453   5.314  19.201  0.00  0.00    +0.000 C 
ATOM      9  O   UNL     1       1.475   4.885  19.827  0.00  0.00    +0.000 OA
ATOM     10  N   UNL     1       2.714   6.669  19.018  0.00  0.00    +0.000 N 
ATOM     11  H   UNL     1       3.485   6.920  18.399  0.00  0.00    +0.000 HD
BRANCH  10  12
ATOM     12  C   UNL     1       1.980   7.739  19.597  0.00  0.00    +0.000 A 
ATOM     13  C   UNL     1       1.699   7.799  20.970  0.00  0.00    +0.000 A 
ATOM     14  C   UNL     1       0.969   8.857  21.511  0.00  0.00    +0.000 A 
ATOM     15  C   UNL     1       0.511   9.875  20.690  0.00  0.00    +0.000 A 
ATOM     16  C   UNL     1       0.812   9.853  19.325  0.00  0.00    +0.000 A 
ATOM     17  C   UNL     1       1.542   8.785  18.778  0.00  0.00    +0.000 A 
ATOM     18  O   UNL     1       0.407  10.846  18.465  0.00  0.00    +0.000 OA
ATOM     19  C   UNL     1       0.005  12.023  19.181  0.00  0.00    +0.000 C 
ATOM     20  C   UNL     1      -0.901  11.675  20.351  0.00  0.00    +0.000 C 
ATOM     21  O   UNL     1      -0.207  10.867  21.302  0.00  0.00    +0.000 OA
ENDBRANCH  10  12
ENDBRANCH   2   8
BRANCH   6  22
ATOM     22  C   UNL     1       6.113   6.126  17.736  0.00  0.00    +0.000 C 
ATOM     23  C   UNL     1       5.741   7.596  17.814  0.00  0.00    +0.000 C 
ATOM     24  C   UNL     1       7.169   7.214  18.002  0.00  0.00    +0.000 C 
BRANCH  22  25
ATOM     25  C   UNL     1       6.131   5.435  16.366  0.00  0.00    +0.000 A 
ATOM     26  C   UNL     1       5.448   5.973  15.264  0.00  0.00    +0.000 A 
ATOM     27  C   UNL     1       5.226   5.228  14.102  0.00  0.00    +0.000 A 
ATOM     28  C   UNL     1       5.746   3.943  13.995  0.00  0.00    +0.000 A 
ATOM     29  C   UNL     1       6.518   3.425  15.030  0.00  0.00    +0.000 A 
ATOM     30  C   UNL     1       6.707   4.164  16.201  0.00  0.00    +0.000 A 
ENDBRANCH  22  25
ENDBRANCH   6  22
TORSDOF 4
ENDMDL
MODEL 6
REMARK VINA RESULT:      -7.7      2.517      9.306
REMARK  Name = 
REMARK  5 active torsions:
REMARK  status: ('A' for Active; 'I' for Inactive)
REMARK    1  A    between atoms: C_1  and  C_2
REMARK    2  A    between atoms: C_2  and  C_3
REMARK    3  A    between atoms: N_5  and  C_6
REMARK    4  A    between atoms: C_19  and  C_21
REMARK    5  A    between atoms: C_21  and  C_22
REMARK                            x       y       z     vdW  Elec       q    Type
REMARK                         _______ _______ _______ _____ _____    ______ ____
ROOT
ATOM      1  C   UNL     1      -0.480   9.889  18.179  0.00  0.00    +0.000 C 
ATOM      2  C   UNL     1       0.930  10.127  18.709  0.00  0.00    +0.000 C 
ATOM      3  C   UNL     1       1.684  11.055  17.710  0.00  0.00    +0.000 C 
ATOM      4  C   UNL     1       2.087  11.927  18.891  0.00  0.00    +0.000 C 
ATOM      5  N   UNL     1       1.066  11.230  19.661  0.00  0.00    +0.000 N 
ATOM      6  C   UNL     1       0.704  11.540  20.945  0.00  0.00    +0.000 C 
ATOM      7  O   UNL     1       1.340  12.377  21.587  0.00  0.00    +0.000 OA
ENDROOT
BRANCH   2   8
ATOM      8  C   UNL     1       1.678   8.771  19.000  0.00  0.00    +0.000 C 
ATOM      9  O   UNL     1       1.884   8.426  20.170  0.00  0.00    +0.000 OA
ATOM     10  N   UNL     1       2.084   8.027  17.895  0.00  0.00    +0.000 N 
ATOM     11  H   UNL     1       1.961   8.447  16.974  0.00  0.00    +0.000 HD
BRANCH  10  12
ATOM     12  C   UNL     1       2.683   6.739  17.940  0.00  0.00    +0.000 A 
ATOM     13  C   UNL     1       4.059   6.545  17.748  0.00  0.00    +0.000 A 
ATOM     14  C   UNL     1       4.619   5.268  17.789  0.00  0.00    +0.000 A 
ATOM     15  C   UNL     1       3.815   4.165  18.028  0.00  0.00    +0.000 A 
ATOM     16  C   UNL     1       2.448   4.341  18.260  0.00  0.00    +0.000 A 
ATOM     17  C   UNL     1       1.882   5.625  18.212  0.00  0.00    +0.000 A 
ATOM     18  O   UNL     1       1.604   3.289  18.527  0.00  0.00    +0.000 OA
ATOM     19  C   UNL     1       2.339   2.114  18.902  0.00  0.00    +0.000 C 
ATOM     20  C   UNL     1       3.511   1.873  17.965  0.00  0.00    +0.000 C 
ATOM     21  O   UNL     1       4.446   2.950  18.040  0.00  0.00    +0.000 OA
ENDBRANCH  10  12
ENDBRANCH   2   8
BRANCH   6  22
ATOM     22  C   UNL     1      -0.530  10.940  21.574  0.00  0.00    +0.000 C 
ATOM     23  C   UNL     1      -0.764   9.445  21.707  0.00  0.00    +0.000 C 
ATOM     24  C   UNL     1      -0.231  10.189  22.884  0.00  0.00    +0.000 C 
BRANCH  22  25
ATOM     25  C   UNL     1      -1.740  11.882  21.553  0.00  0.00    +0.000 A 
ATOM     26  C   UNL     1      -2.416  12.237  22.731  0.00  0.00    +0.000 A 
ATOM     27  C   UNL     1      -3.667  12.859  22.701  0.00  0.00    +0.000 A 
ATOM     28  C   UNL     1      -4.240  13.202  21.482  0.00  0.00    +0.000 A 
ATOM     29  C   UNL     1      -3.544  12.959  20.302  0.00  0.00    +0.000 A 
ATOM     30  C   UNL     1      -2.309  12.307  20.339  0.00  0.00    +0.000 A 
ENDBRANCH  22  25
ENDBRANCH   6  22
TORSDOF 4
ENDMDL
MODEL 7
REMARK VINA RESULT:      -7.5      3.154      9.975
REMARK  Name = 
REMARK  5 active torsions:
REMARK  status: ('A' for Active; 'I' for Inactive)
REMARK    1  A    between atoms: C_1  and  C_2
REMARK    2  A    between atoms: C_2  and  C_3
REMARK    3  A    between atoms: N_5  and  C_6
REMARK    4  A    between atoms: C_19  and  C_21
REMARK    5  A    between atoms: C_21  and  C_22
REMARK                            x       y       z     vdW  Elec       q    Type
REMARK                         _______ _______ _______ _____ _____    ______ ____
ROOT
ATOM      1  C   UNL     1      -2.387  11.692  19.109  0.00  0.00    +0.000 C 
ATOM      2  C   UNL     1      -0.872  11.806  18.975  0.00  0.00    +0.000 C 
ATOM      3  C   UNL     1      -0.548  13.016  18.048  0.00  0.00    +0.000 C 
ATOM      4  C   UNL     1       0.435  13.505  19.103  0.00  0.00    +0.000 C 
ATOM      5  N   UNL     1      -0.204  12.576  20.025  0.00  0.00    +0.000 N 
ATOM      6  C   UNL     1       0.084  12.473  21.360  0.00  0.00    +0.000 C 
ATOM      7  O   UNL     1       1.029  13.098  21.844  0.00  0.00    +0.000 OA
ENDROOT
BRANCH   2   8
ATOM      8  C   UNL     1      -0.228  10.452  18.494  0.00  0.00    +0.000 C 
ATOM      9  O   UNL     1      -0.727   9.843  17.539  0.00  0.00    +0.000 OA
ATOM     10  N   UNL     1       0.885   9.999  19.196  0.00  0.00    +0.000 N 
ATOM     11  H   UNL     1       1.156  10.516  20.032  0.00  0.00    +0.000 HD
BRANCH  10  12
ATOM     12  C   UNL     1       1.665   8.858  18.864  0.00  0.00    +0.000 A 
ATOM     13  C   UNL     1       2.464   8.805  17.713  0.00  0.00    +0.000 A 
ATOM     14  C   UNL     1       3.213   7.668  17.408  0.00  0.00    +0.000 A 
ATOM     15  C   UNL     1       3.181   6.569  18.251  0.00  0.00    +0.000 A 
ATOM     16  C   UNL     1       2.421   6.617  19.422  0.00  0.00    +0.000 A 
ATOM     17  C   UNL     1       1.661   7.757  19.728  0.00  0.00    +0.000 A 
ATOM     18  O   UNL     1       2.368   5.568  20.309  0.00  0.00    +0.000 OA
ATOM     19  C   UNL     1       3.439   4.639  20.083  0.00  0.00    +0.000 C 
ATOM     20  C   UNL     1       3.589   4.320  18.604  0.00  0.00    +0.000 C 
ATOM     21  O   UNL     1       3.937   5.493  17.868  0.00  0.00    +0.000 OA
ENDBRANCH  10  12
ENDBRANCH   2   8
BRANCH   6  22
ATOM     22  C   UNL     1      -0.795  11.671  22.287  0.00  0.00    +0.000 C 
ATOM     23  C   UNL     1      -1.159  10.215  22.053  0.00  0.00    +0.000 C 
ATOM     24  C   UNL     1      -0.042  10.527  22.989  0.00  0.00    +0.000 C 
BRANCH  22  25
ATOM     25  C   UNL     1      -1.726  12.541  23.142  0.00  0.00    +0.000 A 
ATOM     26  C   UNL     1      -3.042  12.145  23.430  0.00  0.00    +0.000 A 
ATOM     27  C   UNL     1      -3.977  13.036  23.963  0.00  0.00    +0.000 A 
ATOM     28  C   UNL     1      -3.593  14.333  24.282  0.00  0.00    +0.000 A 
ATOM     29  C   UNL     1      -2.268  14.721  24.107  0.00  0.00    +0.000 A 
ATOM     30  C   UNL     1      -1.347  13.834  23.543  0.00  0.00    +0.000 A 
ENDBRANCH  22  25
ENDBRANCH   6  22
TORSDOF 4
ENDMDL
MODEL 8
REMARK VINA RESULT:      -7.4      1.781      2.629
REMARK  Name = 
REMARK  5 active torsions:
REMARK  status: ('A' for Active; 'I' for Inactive)
REMARK    1  A    between atoms: C_1  and  C_2
REMARK    2  A    between atoms: C_2  and  C_3
REMARK    3  A    between atoms: N_5  and  C_6
REMARK    4  A    between atoms: C_19  and  C_21
REMARK    5  A    between atoms: C_21  and  C_22
REMARK                            x       y       z     vdW  Elec       q    Type
REMARK                         _______ _______ _______ _____ _____    ______ ____
ROOT
ATOM      1  C   UNL     1       1.551   4.627  17.847  0.00  0.00    +0.000 C 
ATOM      2  C   UNL     1       2.092   4.751  19.268  0.00  0.00    +0.000 C 
ATOM      3  C   UNL     1       1.236   3.845  20.203  0.00  0.00    +0.000 C 
ATOM      4  C   UNL     1       2.531   3.259  20.748  0.00  0.00    +0.000 C 
ATOM      5  N   UNL     1       3.199   3.853  19.599  0.00  0.00    +0.000 N 
ATOM      6  C   UNL     1       4.520   3.679  19.283  0.00  0.00    +0.000 C 
ATOM      7  O   UNL     1       5.274   3.090  20.059  0.00  0.00    +0.000 OA
ENDROOT
BRANCH   2   8
ATOM      8  C   UNL     1       2.161   6.254  19.733  0.00  0.00    +0.000 C 
ATOM      9  O   UNL     1       3.176   6.921  19.498  0.00  0.00    +0.000 OA
ATOM     10  N   UNL     1       1.052   6.755  20.410  0.00  0.00    +0.000 N 
ATOM     11  H   UNL     1       0.309   6.097  20.648  0.00  0.00    +0.000 HD
BRANCH  10  12
ATOM     12  C   UNL     1       0.876   8.102  20.827  0.00  0.00    +0.000 A 
ATOM     13  C   UNL     1       0.504   8.440  22.136  0.00  0.00    +0.000 A 
ATOM     14  C   UNL     1       0.330   9.771  22.515  0.00  0.00    +0.000 A 
ATOM     15  C   UNL     1       0.530  10.787  21.594  0.00  0.00    +0.000 A 
ATOM     16  C   UNL     1       0.938  10.473  20.294  0.00  0.00    +0.000 A 
ATOM     17  C   UNL     1       1.107   9.133  19.910  0.00  0.00    +0.000 A 
ATOM     18  O   UNL     1       1.176  11.437  19.344  0.00  0.00    +0.000 OA
ATOM     19  C   UNL     1       1.323  12.734  19.942  0.00  0.00    +0.000 C 
ATOM     20  C   UNL     1       0.235  12.994  20.970  0.00  0.00    +0.000 C 
ATOM     21  O   UNL     1       0.326  12.062  22.048  0.00  0.00    +0.000 OA
ENDBRANCH  10  12
ENDBRANCH   2   8
BRANCH   6  22
ATOM     22  C   UNL     1       5.067   4.118  17.947  0.00  0.00    +0.000 C 
ATOM     23  C   UNL     1       5.272   3.177  16.772  0.00  0.00    +0.000 C 
ATOM     24  C   UNL     1       4.035   4.008  16.810  0.00  0.00    +0.000 C 
BRANCH  22  25
ATOM     25  C   UNL     1       5.906   5.400  18.027  0.00  0.00    +0.000 A 
ATOM     26  C   UNL     1       5.638   6.506  17.205  0.00  0.00    +0.000 A 
ATOM     27  C   UNL     1       6.547   7.558  17.070  0.00  0.00    +0.000 A 
ATOM     28  C   UNL     1       7.722   7.556  17.812  0.00  0.00    +0.000 A 
ATOM     29  C   UNL     1       7.965   6.526  18.715  0.00  0.00    +0.000 A 
ATOM     30  C   UNL     1       7.066   5.460  18.819  0.00  0.00    +0.000 A 
ENDBRANCH  22  25
ENDBRANCH   6  22
TORSDOF 4
ENDMDL
MODEL 9
REMARK VINA RESULT:      -7.3      6.668      9.860
REMARK  Name = 
REMARK  5 active torsions:
REMARK  status: ('A' for Active; 'I' for Inactive)
REMARK    1  A    between atoms: C_1  and  C_2
REMARK    2  A    between atoms: C_2  and  C_3
REMARK    3  A    between atoms: N_5  and  C_6
REMARK    4  A    between atoms: C_19  and  C_21
REMARK    5  A    between atoms: C_21  and  C_22
REMARK                            x       y       z     vdW  Elec       q    Type
REMARK                         _______ _______ _______ _____ _____    ______ ____
ROOT
ATOM      1  C   UNL     1      10.737  11.669  17.781  0.00  0.00    +0.000 C 
ATOM      2  C   UNL     1       9.788  11.307  18.919  0.00  0.00    +0.000 C 
ATOM      3  C   UNL     1      10.638  10.929  20.169  0.00  0.00    +0.000 C 
ATOM      4  C   UNL     1       9.777  11.882  20.988  0.00  0.00    +0.000 C 
ATOM      5  N   UNL     1       9.312  12.433  19.723  0.00  0.00    +0.000 N 
ATOM      6  C   UNL     1       8.488  13.520  19.596  0.00  0.00    +0.000 C 
ATOM      7  O   UNL     1       7.972  14.030  20.592  0.00  0.00    +0.000 OA
ENDROOT
BRANCH   2   8
ATOM      8  C   UNL     1       8.766  10.189  18.488  0.00  0.00    +0.000 C 
ATOM      9  O   UNL     1       7.780  10.493  17.806  0.00  0.00    +0.000 OA
ATOM     10  N   UNL     1       9.031   8.893  18.922  0.00  0.00    +0.000 N 
ATOM     11  H   UNL     1       9.810   8.762  19.567  0.00  0.00    +0.000 HD
BRANCH  10  12
ATOM     12  C   UNL     1       8.291   7.733  18.564  0.00  0.00    +0.000 A 
ATOM     13  C   UNL     1       8.260   6.586  19.370  0.00  0.00    +0.000 A 
ATOM     14  C   UNL     1       7.531   5.458  18.990  0.00  0.00    +0.000 A 
ATOM     15  C   UNL     1       6.818   5.461  17.802  0.00  0.00    +0.000 A 
ATOM     16  C   UNL     1       6.806   6.607  17.004  0.00  0.00    +0.000 A 
ATOM     17  C   UNL     1       7.544   7.741  17.381  0.00  0.00    +0.000 A 
ATOM     18  O   UNL     1       6.099   6.679  15.827  0.00  0.00    +0.000 OA
ATOM     19  C   UNL     1       5.124   5.628  15.741  0.00  0.00    +0.000 C 
ATOM     20  C   UNL     1       5.720   4.288  16.138  0.00  0.00    +0.000 C 
ATOM     21  O   UNL     1       6.142   4.308  17.502  0.00  0.00    +0.000 OA
ENDBRANCH  10  12
ENDBRANCH   2   8
BRANCH   6  22
ATOM     22  C   UNL     1       8.262  14.175  18.256  0.00  0.00    +0.000 C 
ATOM     23  C   UNL     1       7.551  13.498  17.097  0.00  0.00    +0.000 C 
ATOM     24  C   UNL     1       6.775  14.436  17.957  0.00  0.00    +0.000 C 
BRANCH  22  25
ATOM     25  C   UNL     1       9.257  15.305  17.960  0.00  0.00    +0.000 A 
ATOM     26  C   UNL     1      10.464  15.063  17.284  0.00  0.00    +0.000 A 
ATOM     27  C   UNL     1      11.491  16.010  17.252  0.00  0.00    +0.000 A 
ATOM     28  C   UNL     1      11.303  17.254  17.842  0.00  0.00    +0.000 A 
ATOM     29  C   UNL     1      10.078  17.560  18.426  0.00  0.00    +0.000 A 
ATOM     30  C   UNL     1       9.068  16.596  18.483  0.00  0.00    +0.000 A 
ENDBRANCH  22  25
ENDBRANCH   6  22
TORSDOF 4
ENDMDL
