MODEL 1
REMARK VINA RESULT:      -7.8      0.000      0.000
REMARK  Name = 
REMARK  5 active torsions:
REMARK  status: ('A' for Active; 'I' for Inactive)
REMARK    1  A    between atoms: C_1  and  C_2
REMARK    2  A    between atoms: C_2  and  C_3
REMARK    3  A    between atoms: C_8  and  C_9
REMARK    4  A    between atoms: C_8  and  C_10
REMARK    5  A    between atoms: N_12  and  C_13
REMARK                            x       y       z     vdW  Elec       q    Type
REMARK                         _______ _______ _______ _____ _____    ______ ____
ROOT
ATOM      1  C   UNL     1       3.988   6.281  17.782  0.00  0.00    +0.000 C 
ATOM      2  O   UNL     1       4.243   7.213  17.014  0.00  0.00    +0.000 OA
ATOM      3  N   UNL     1       3.071   6.374  18.828  0.00  0.00    +0.000 N 
ATOM      4  H   UNL     1       3.028   5.594  19.476  0.00  0.00    +0.000 HD
ENDROOT
BRANCH   3   5
ATOM      5  C   UNL     1       2.278   7.502  19.148  0.00  0.00    +0.000 A 
ATOM      6  C   UNL     1       1.923   8.474  18.207  0.00  0.00    +0.000 A 
ATOM      7  C   UNL     1       1.168   9.599  18.561  0.00  0.00    +0.000 A 
ATOM      8  C   UNL     1       0.774   9.737  19.897  0.00  0.00    +0.000 A 
ATOM      9  S   UNL     1      -0.124  11.009  20.633  0.00  0.00    +0.000 S 
ATOM     10  C   UNL     1      -0.002  10.204  22.139  0.00  0.00    +0.000 A 
ATOM     11  N   UNL     1       0.641   9.058  22.141  0.00  0.00    +0.000 NA
ATOM     12  C   UNL     1       1.092   8.779  20.859  0.00  0.00    +0.000 A 
ATOM     13  C   UNL     1       1.836   7.641  20.470  0.00  0.00    +0.000 A 
ENDBRANCH   3   5
BRANCH   1  19
ATOM     14  C   UNL     1       7.031   5.781  16.796  0.00  0.00    +0.000 C 
ATOM     15  O   UNL     1       7.683   5.818  15.752  0.00  0.00    +0.000 OA
ATOM     16  N   UNL     1       6.034   4.861  16.969  0.00  0.00    +0.000 N 
ATOM     17  C   UNL     1       5.679   3.759  16.090  0.00  0.00    +0.000 C 
ATOM     18  C   UNL     1       4.235   3.947  16.545  0.00  0.00    +0.000 C 
ATOM     19  C   UNL     1       4.743   4.889  17.675  0.00  0.00    +0.000 C 
ATOM     20  C   UNL     1       4.847   4.182  19.029  0.00  0.00    +0.000 C 
BRANCH  14  22
ATOM     21  C   UNL     1       7.742   8.080  17.522  0.00  0.00    +0.000 C 
ATOM     22  C   UNL     1       7.323   6.688  17.975  0.00  0.00    +0.000 C 
ENDBRANCH  14  22
ENDBRANCH   1  19
TORSDOF 3
ENDMDL
MODEL 2
REMARK VINA RESULT:      -7.4      2.252      3.627
REMARK  Name = 
REMARK  5 active torsions:
REMARK  status: ('A' for Active; 'I' for Inactive)
REMARK    1  A    between atoms: C_1  and  C_2
REMARK    2  A    between atoms: C_2  and  C_3
REMARK    3  A    between atoms: C_8  and  C_9
REMARK    4  A    between atoms: C_8  and  C_10
REMARK    5  A    between atoms: N_12  and  C_13
REMARK                            x       y       z     vdW  Elec       q    Type
REMARK                         _______ _______ _______ _____ _____    ______ ____
ROOT
ATOM      1  C   UNL     1       2.744   5.426  18.229  0.00  0.00    +0.000 C 
ATOM      2  O   UNL     1       1.653   5.238  17.683  0.00  0.00    +0.000 OA
ATOM      3  N   UNL     1       3.068   6.596  18.916  0.00  0.00    +0.000 N 
ATOM      4  H   UNL     1       4.031   6.702  19.219  0.00  0.00    +0.000 HD
ENDROOT
BRANCH   3   5
ATOM      5  C   UNL     1       2.217   7.706  19.128  0.00  0.00    +0.000 A 
ATOM      6  C   UNL     1       1.901   8.625  18.121  0.00  0.00    +0.000 A 
ATOM      7  C   UNL     1       1.085   9.735  18.370  0.00  0.00    +0.000 A 
ATOM      8  C   UNL     1       0.587   9.914  19.666  0.00  0.00    +0.000 A 
ATOM      9  S   UNL     1      -0.406  11.181  20.278  0.00  0.00    +0.000 S 
ATOM     10  C   UNL     1      -0.371  10.443  21.822  0.00  0.00    +0.000 A 
ATOM     11  N   UNL     1       0.308   9.322  21.921  0.00  0.00    +0.000 NA
ATOM     12  C   UNL     1       0.864   9.007  20.689  0.00  0.00    +0.000 A 
ATOM     13  C   UNL     1       1.672   7.883  20.406  0.00  0.00    +0.000 A 
ENDBRANCH   3   5
BRANCH   1  19
ATOM     14  C   UNL     1       3.166   2.838  20.128  0.00  0.00    +0.000 C 
ATOM     15  O   UNL     1       3.494   2.586  21.288  0.00  0.00    +0.000 OA
ATOM     16  N   UNL     1       4.054   3.403  19.254  0.00  0.00    +0.000 N 
ATOM     17  C   UNL     1       5.469   3.658  19.465  0.00  0.00    +0.000 C 
ATOM     18  C   UNL     1       5.317   4.875  18.558  0.00  0.00    +0.000 C 
ATOM     19  C   UNL     1       3.911   4.355  18.142  0.00  0.00    +0.000 C 
ATOM     20  C   UNL     1       3.928   3.627  16.794  0.00  0.00    +0.000 C 
BRANCH  14  22
ATOM     21  C   UNL     1       0.687   3.209  20.316  0.00  0.00    +0.000 C 
ATOM     22  C   UNL     1       1.801   2.487  19.570  0.00  0.00    +0.000 C 
ENDBRANCH  14  22
ENDBRANCH   1  19
TORSDOF 3
ENDMDL
MODEL 3
REMARK VINA RESULT:      -7.3      1.128      1.724
REMARK  Name = 
REMARK  5 active torsions:
REMARK  status: ('A' for Active; 'I' for Inactive)
REMARK    1  A    between atoms: C_1  and  C_2
REMARK    2  A    between atoms: C_2  and  C_3
REMARK    3  A    between atoms: C_8  and  C_9
REMARK    4  A    between atoms: C_8  and  C_10
REMARK    5  A    between atoms: N_12  and  C_13
REMARK                            x       y       z     vdW  Elec       q    Type
REMARK                         _______ _______ _______ _____ _____    ______ ____
ROOT
ATOM      1  C   UNL     1       3.955   6.150  17.960  0.00  0.00    +0.000 C 
ATOM      2  O   UNL     1       4.113   7.131  17.228  0.00  0.00    +0.000 OA
ATOM      3  N   UNL     1       3.126   6.152  19.081  0.00  0.00    +0.000 N 
ATOM      4  H   UNL     1       3.165   5.338  19.685  0.00  0.00    +0.000 HD
ENDROOT
BRANCH   3   5
ATOM      5  C   UNL     1       2.323   7.229  19.527  0.00  0.00    +0.000 A 
ATOM      6  C   UNL     1       1.761   7.279  20.807  0.00  0.00    +0.000 A 
ATOM      7  C   UNL     1       0.940   8.340  21.208  0.00  0.00    +0.000 A 
ATOM      8  C   UNL     1       0.684   9.362  20.287  0.00  0.00    +0.000 A 
ATOM      9  S   UNL     1      -0.297  10.766  20.474  0.00  0.00    +0.000 S 
ATOM     10  C   UNL     1       0.083  11.228  18.871  0.00  0.00    +0.000 A 
ATOM     11  N   UNL     1       0.891  10.433  18.207  0.00  0.00    +0.000 NA
ATOM     12  C   UNL     1       1.243   9.357  19.009  0.00  0.00    +0.000 A 
ATOM     13  C   UNL     1       2.087   8.284  18.637  0.00  0.00    +0.000 A 
ENDBRANCH   3   5
BRANCH   1  19
ATOM     14  C   UNL     1       6.977   5.832  16.841  0.00  0.00    +0.000 C 
ATOM     15  O   UNL     1       7.591   5.976  15.783  0.00  0.00    +0.000 OA
ATOM     16  N   UNL     1       6.014   4.869  16.969  0.00  0.00    +0.000 N 
ATOM     17  C   UNL     1       5.663   3.832  16.013  0.00  0.00    +0.000 C 
ATOM     18  C   UNL     1       4.230   3.935  16.528  0.00  0.00    +0.000 C 
ATOM     19  C   UNL     1       4.748   4.797  17.714  0.00  0.00    +0.000 C 
ATOM     20  C   UNL     1       4.919   3.986  19.002  0.00  0.00    +0.000 C 
BRANCH  14  22
ATOM     21  C   UNL     1       7.991   5.819  19.141  0.00  0.00    +0.000 C 
ATOM     22  C   UNL     1       7.281   6.650  18.081  0.00  0.00    +0.000 C 
ENDBRANCH  14  22
ENDBRANCH   1  19
TORSDOF 3
ENDMDL
MODEL 4
REMARK VINA RESULT:      -7.3      1.276      1.379
REMARK  Name = 
REMARK  5 active torsions:
REMARK  status: ('A' for Active; 'I' for Inactive)
REMARK    1  A    between atoms: C_1  and  C_2
REMARK    2  A    between atoms: C_2  and  C_3
REMARK    3  A    between atoms: C_8  and  C_9
REMARK    4  A    between atoms: C_8  and  C_10
REMARK    5  A    between atoms: N_12  and  C_13
REMARK                            x       y       z     vdW  Elec       q    Type
REMARK                         _______ _______ _______ _____ _____    ______ ____
ROOT
ATOM      1  C   UNL     1       4.220   5.998  17.104  0.00  0.00    +0.000 C 
ATOM      2  O   UNL     1       4.943   6.981  16.912  0.00  0.00    +0.000 OA
ATOM      3  N   UNL     1       3.023   6.050  17.816  0.00  0.00    +0.000 N 
ATOM      4  H   UNL     1       2.570   5.167  18.024  0.00  0.00    +0.000 HD
ENDROOT
BRANCH   3   5
ATOM      5  C   UNL     1       2.436   7.207  18.384  0.00  0.00    +0.000 A 
ATOM      6  C   UNL     1       2.164   8.363  17.644  0.00  0.00    +0.000 A 
ATOM      7  C   UNL     1       1.617   9.505  18.241  0.00  0.00    +0.000 A 
ATOM      8  C   UNL     1       1.348   9.469  19.614  0.00  0.00    +0.000 A 
ATOM      9  S   UNL     1       0.709  10.710  20.623  0.00  0.00    +0.000 S 
ATOM     10  C   UNL     1       0.816   9.655  21.965  0.00  0.00    +0.000 A 
ATOM     11  N   UNL     1       1.276   8.447  21.726  0.00  0.00    +0.000 NA
ATOM     12  C   UNL     1       1.585   8.328  20.379  0.00  0.00    +0.000 A 
ATOM     13  C   UNL     1       2.118   7.180  19.747  0.00  0.00    +0.000 A 
ENDBRANCH   3   5
BRANCH   1  19
ATOM     14  C   UNL     1       7.072   4.524  17.527  0.00  0.00    +0.000 C 
ATOM     15  O   UNL     1       8.230   4.617  17.120  0.00  0.00    +0.000 OA
ATOM     16  N   UNL     1       6.056   4.178  16.679  0.00  0.00    +0.000 N 
ATOM     17  C   UNL     1       6.161   3.754  15.292  0.00  0.00    +0.000 C 
ATOM     18  C   UNL     1       4.808   4.419  15.056  0.00  0.00    +0.000 C 
ATOM     19  C   UNL     1       4.636   4.553  16.596  0.00  0.00    +0.000 C 
ATOM     20  C   UNL     1       3.747   3.455  17.187  0.00  0.00    +0.000 C 
BRANCH  14  22
ATOM     21  C   UNL     1       7.564   5.772  19.652  0.00  0.00    +0.000 C 
ATOM     22  C   UNL     1       6.699   4.713  18.984  0.00  0.00    +0.000 C 
ENDBRANCH  14  22
ENDBRANCH   1  19
TORSDOF 3
ENDMDL
MODEL 5
REMARK VINA RESULT:      -7.3      1.873      2.183
REMARK  Name = 
REMARK  5 active torsions:
REMARK  status: ('A' for Active; 'I' for Inactive)
REMARK    1  A    between atoms: C_1  and  C_2
REMARK    2  A    between atoms: C_2  and  C_3
REMARK    3  A    between atoms: C_8  and  C_9
REMARK    4  A    between atoms: C_8  and  C_10
REMARK    5  A    between atoms: N_12  and  C_13
REMARK                            x       y       z     vdW  Elec       q    Type
REMARK                         _______ _______ _______ _____ _____    ______ ____
ROOT
ATOM      1  C   UNL     1       2.259   5.030  18.564  0.00  0.00    +0.000 C 
ATOM      2  O   UNL     1       1.396   5.072  17.682  0.00  0.00    +0.000 OA
ATOM      3  N   UNL     1       2.663   6.144  19.299  0.00  0.00    +0.000 N 
ATOM      4  H   UNL     1       3.465   6.029  19.910  0.00  0.00    +0.000 HD
ENDROOT
BRANCH   3   5
ATOM      5  C   UNL     1       2.139   7.455  19.189  0.00  0.00    +0.000 A 
ATOM      6  C   UNL     1       2.182   8.193  18.001  0.00  0.00    +0.000 A 
ATOM      7  C   UNL     1       1.690   9.501  17.932  0.00  0.00    +0.000 A 
ATOM      8  C   UNL     1       1.149  10.068  19.092  0.00  0.00    +0.000 A 
ATOM      9  S   UNL     1       0.499  11.646  19.324  0.00  0.00    +0.000 S 
ATOM     10  C   UNL     1       0.191  11.263  20.963  0.00  0.00    +0.000 A 
ATOM     11  N   UNL     1       0.518  10.051  21.354  0.00  0.00    +0.000 NA
ATOM     12  C   UNL     1       1.071   9.355  20.289  0.00  0.00    +0.000 A 
ATOM     13  C   UNL     1       1.555   8.027  20.326  0.00  0.00    +0.000 A 
ENDBRANCH   3   5
BRANCH   1  19
ATOM     14  C   UNL     1       4.959   3.937  17.150  0.00  0.00    +0.000 C 
ATOM     15  O   UNL     1       5.309   3.460  16.070  0.00  0.00    +0.000 OA
ATOM     16  N   UNL     1       4.097   3.261  17.970  0.00  0.00    +0.000 N 
ATOM     17  C   UNL     1       3.588   1.909  17.803  0.00  0.00    +0.000 C 
ATOM     18  C   UNL     1       2.306   2.380  18.486  0.00  0.00    +0.000 C 
ATOM     19  C   UNL     1       3.039   3.689  18.898  0.00  0.00    +0.000 C 
ATOM     20  C   UNL     1       3.537   3.654  20.346  0.00  0.00    +0.000 C 
BRANCH  14  22
ATOM     21  C   UNL     1       5.229   6.396  16.709  0.00  0.00    +0.000 C 
ATOM     22  C   UNL     1       5.498   5.252  17.676  0.00  0.00    +0.000 C 
ENDBRANCH  14  22
ENDBRANCH   1  19
TORSDOF 3
ENDMDL
MODEL 6
REMARK VINA RESULT:      -7.3      1.141      1.149
REMARK  Name = 
REMARK  5 active torsions:
REMARK  status: ('A' for Active; 'I' for Inactive)
REMARK    1  A    between atoms: C_1  and  C_2
REMARK    2  A    between atoms: C_2  and  C_3
REMARK    3  A    between atoms: C_8  and  C_9
REMARK    4  A    between atoms: C_8  and  C_10
REMARK    5  A    between atoms: N_12  and  C_13
REMARK                            x       y       z     vdW  Elec       q    Type
REMARK                         _______ _______ _______ _____ _____    ______ ____
ROOT
ATOM      1  C   UNL     1       2.995   5.453  18.124  0.00  0.00    +0.000 C 
ATOM      2  O   UNL     1       1.879   5.156  17.688  0.00  0.00    +0.000 OA
ATOM      3  N   UNL     1       3.280   6.669  18.745  0.00  0.00    +0.000 N 
ATOM      4  H   UNL     1       4.253   6.865  18.953  0.00  0.00    +0.000 HD
ENDROOT
BRANCH   3   5
ATOM      5  C   UNL     1       2.359   7.711  19.007  0.00  0.00    +0.000 A 
ATOM      6  C   UNL     1       1.964   8.638  18.037  0.00  0.00    +0.000 A 
ATOM      7  C   UNL     1       1.079   9.681  18.336  0.00  0.00    +0.000 A 
ATOM      8  C   UNL     1       0.594   9.783  19.645  0.00  0.00    +0.000 A 
ATOM      9  S   UNL     1      -0.472  10.959  20.315  0.00  0.00    +0.000 S 
ATOM     10  C   UNL     1      -0.360  10.176  21.832  0.00  0.00    +0.000 A 
ATOM     11  N   UNL     1       0.395   9.101  21.883  0.00  0.00    +0.000 NA
ATOM     12  C   UNL     1       0.949   8.865  20.633  0.00  0.00    +0.000 A 
ATOM     13  C   UNL     1       1.826   7.808  20.299  0.00  0.00    +0.000 A 
ENDBRANCH   3   5
BRANCH   1  19
ATOM     14  C   UNL     1       5.549   5.868  16.178  0.00  0.00    +0.000 C 
ATOM     15  O   UNL     1       5.809   5.841  14.974  0.00  0.00    +0.000 OA
ATOM     16  N   UNL     1       5.161   4.734  16.837  0.00  0.00    +0.000 N 
ATOM     17  C   UNL     1       5.121   3.375  16.322  0.00  0.00    +0.000 C 
ATOM     18  C   UNL     1       3.928   3.132  17.241  0.00  0.00    +0.000 C 
ATOM     19  C   UNL     1       4.237   4.480  17.954  0.00  0.00    +0.000 C 
ATOM     20  C   UNL     1       5.006   4.290  19.265  0.00  0.00    +0.000 C 
BRANCH  14  22
ATOM     21  C   UNL     1       7.141   7.310  17.484  0.00  0.00    +0.000 C 
ATOM     22  C   UNL     1       5.703   7.119  17.020  0.00  0.00    +0.000 C 
ENDBRANCH  14  22
ENDBRANCH   1  19
TORSDOF 3
ENDMDL
MODEL 7
REMARK VINA RESULT:      -7.2      1.670      2.520
REMARK  Name = 
REMARK  5 active torsions:
REMARK  status: ('A' for Active; 'I' for Inactive)
REMARK    1  A    between atoms: C_1  and  C_2
REMARK    2  A    between atoms: C_2  and  C_3
REMARK    3  A    between atoms: C_8  and  C_9
REMARK    4  A    between atoms: C_8  and  C_10
REMARK    5  A    between atoms: N_12  and  C_13
REMARK                            x       y       z     vdW  Elec       q    Type
REMARK                         _______ _______ _______ _____ _____    ______ ____
ROOT
ATOM      1  C   UNL     1       2.891   5.600  17.722  0.00  0.00    +0.000 C 
ATOM      2  O   UNL     1       1.760   5.115  17.815  0.00  0.00    +0.000 OA
ATOM      3  N   UNL     1       3.197   6.914  18.076  0.00  0.00    +0.000 N 
ATOM      4  H   UNL     1       4.125   7.251  17.843  0.00  0.00    +0.000 HD
ENDROOT
BRANCH   3   5
ATOM      5  C   UNL     1       2.301   7.865  18.620  0.00  0.00    +0.000 A 
ATOM      6  C   UNL     1       1.692   8.863  17.851  0.00  0.00    +0.000 A 
ATOM      7  C   UNL     1       0.838   9.813  18.424  0.00  0.00    +0.000 A 
ATOM      8  C   UNL     1       0.606   9.748  19.803  0.00  0.00    +0.000 A 
ATOM      9  S   UNL     1      -0.360  10.779  20.787  0.00  0.00    +0.000 S 
ATOM     10  C   UNL     1       0.068   9.850  22.158  0.00  0.00    +0.000 A 
ATOM     11  N   UNL     1       0.861   8.823  21.946  0.00  0.00    +0.000 NA
ATOM     12  C   UNL     1       1.178   8.754  20.597  0.00  0.00    +0.000 A 
ATOM     13  C   UNL     1       2.019   7.793  19.990  0.00  0.00    +0.000 A 
ENDBRANCH   3   5
BRANCH   1  19
ATOM     14  C   UNL     1       5.480   4.493  19.320  0.00  0.00    +0.000 C 
ATOM     15  O   UNL     1       6.501   4.936  19.846  0.00  0.00    +0.000 OA
ATOM     16  N   UNL     1       5.292   4.582  17.968  0.00  0.00    +0.000 N 
ATOM     17  C   UNL     1       6.239   5.046  16.967  0.00  0.00    +0.000 C 
ATOM     18  C   UNL     1       5.043   5.564  16.172  0.00  0.00    +0.000 C 
ATOM     19  C   UNL     1       4.102   4.768  17.122  0.00  0.00    +0.000 C 
ATOM     20  C   UNL     1       3.647   3.436  16.520  0.00  0.00    +0.000 C 
BRANCH  14  22
ATOM     21  C   UNL     1       4.476   2.261  19.893  0.00  0.00    +0.000 C 
ATOM     22  C   UNL     1       4.405   3.767  20.104  0.00  0.00    +0.000 C 
ENDBRANCH  14  22
ENDBRANCH   1  19
TORSDOF 3
ENDMDL
MODEL 8
REMARK VINA RESULT:      -7.2      2.573      3.968
REMARK  Name = 
REMARK  5 active torsions:
REMARK  status: ('A' for Active; 'I' for Inactive)
REMARK    1  A    between atoms: C_1  and  C_2
REMARK    2  A    between atoms: C_2  and  C_3
REMARK    3  A    between atoms: C_8  and  C_9
REMARK    4  A    between atoms: C_8  and  C_10
REMARK    5  A    between atoms: N_12  and  C_13
REMARK                            x       y       z     vdW  Elec       q    Type
REMARK                         _______ _______ _______ _____ _____    ______ ____
ROOT
ATOM      1  C   UNL     1       3.570   5.466  19.023  0.00  0.00    +0.000 C 
ATOM      2  O   UNL     1       4.470   6.074  19.611  0.00  0.00    +0.000 OA
ATOM      3  N   UNL     1       2.385   6.067  18.601  0.00  0.00    +0.000 N 
ATOM      4  H   UNL     1       1.659   5.456  18.242  0.00  0.00    +0.000 HD
ENDROOT
BRANCH   3   5
ATOM      5  C   UNL     1       2.046   7.435  18.734  0.00  0.00    +0.000 A 
ATOM      6  C   UNL     1       2.213   8.364  17.702  0.00  0.00    +0.000 A 
ATOM      7  C   UNL     1       1.903   9.718  17.876  0.00  0.00    +0.000 A 
ATOM      8  C   UNL     1       1.420  10.132  19.123  0.00  0.00    +0.000 A 
ATOM      9  S   UNL     1       0.984  11.715  19.643  0.00  0.00    +0.000 S 
ATOM     10  C   UNL     1       0.591  11.085  21.185  0.00  0.00    +0.000 A 
ATOM     11  N   UNL     1       0.744   9.790  21.345  0.00  0.00    +0.000 NA
ATOM     12  C   UNL     1       1.220   9.230  20.168  0.00  0.00    +0.000 A 
ATOM     13  C   UNL     1       1.520   7.865  19.959  0.00  0.00    +0.000 A 
ENDBRANCH   3   5
BRANCH   1  19
ATOM     14  C   UNL     1       2.484   3.080  20.922  0.00  0.00    +0.000 C 
ATOM     15  O   UNL     1       2.767   2.554  21.999  0.00  0.00    +0.000 OA
ATOM     16  N   UNL     1       3.335   2.994  19.854  0.00  0.00    +0.000 N 
ATOM     17  C   UNL     1       4.558   2.214  19.753  0.00  0.00    +0.000 C 
ATOM     18  C   UNL     1       5.099   3.307  18.835  0.00  0.00    +0.000 C 
ATOM     19  C   UNL     1       3.666   3.906  18.749  0.00  0.00    +0.000 C 
ATOM     20  C   UNL     1       2.933   3.498  17.467  0.00  0.00    +0.000 C 
BRANCH  14  22
ATOM     21  C   UNL     1       0.313   3.057  19.657  0.00  0.00    +0.000 C 
ATOM     22  C   UNL     1       1.168   3.791  20.680  0.00  0.00    +0.000 C 
ENDBRANCH  14  22
ENDBRANCH   1  19
TORSDOF 3
ENDMDL
MODEL 9
REMARK VINA RESULT:      -7.2      2.515      3.973
REMARK  Name = 
REMARK  5 active torsions:
REMARK  status: ('A' for Active; 'I' for Inactive)
REMARK    1  A    between atoms: C_1  and  C_2
REMARK    2  A    between atoms: C_2  and  C_3
REMARK    3  A    between atoms: C_8  and  C_9
REMARK    4  A    between atoms: C_8  and  C_10
REMARK    5  A    between atoms: N_12  and  C_13
REMARK                            x       y       z     vdW  Elec       q    Type
REMARK                         _______ _______ _______ _____ _____    ______ ____
ROOT
ATOM      1  C   UNL     1       2.432   5.848  18.689  0.00  0.00    +0.000 C 
ATOM      2  O   UNL     1       1.686   6.116  17.743  0.00  0.00    +0.000 OA
ATOM      3  N   UNL     1       2.542   6.642  19.830  0.00  0.00    +0.000 N 
ATOM      4  H   UNL     1       3.274   6.403  20.491  0.00  0.00    +0.000 HD
ENDROOT
BRANCH   3   5
ATOM      5  C   UNL     1       1.811   7.824  20.102  0.00  0.00    +0.000 A 
ATOM      6  C   UNL     1       1.697   8.875  19.186  0.00  0.00    +0.000 A 
ATOM      7  C   UNL     1       0.999  10.048  19.496  0.00  0.00    +0.000 A 
ATOM      8  C   UNL     1       0.412  10.152  20.763  0.00  0.00    +0.000 A 
ATOM      9  S   UNL     1      -0.476  11.464  21.439  0.00  0.00    +0.000 S 
ATOM     10  C   UNL     1      -0.667  10.572  22.886  0.00  0.00    +0.000 A 
ATOM     11  N   UNL     1      -0.137   9.369  22.908  0.00  0.00    +0.000 NA
ATOM     12  C   UNL     1       0.486   9.116  21.694  0.00  0.00    +0.000 A 
ATOM     13  C   UNL     1       1.179   7.934  21.347  0.00  0.00    +0.000 A 
ENDBRANCH   3   5
BRANCH   1  19
ATOM     14  C   UNL     1       2.282   3.232  20.590  0.00  0.00    +0.000 C 
ATOM     15  O   UNL     1       2.497   2.928  21.764  0.00  0.00    +0.000 OA
ATOM     16  N   UNL     1       3.302   3.626  19.768  0.00  0.00    +0.000 N 
ATOM     17  C   UNL     1       4.727   3.624  20.057  0.00  0.00    +0.000 C 
ATOM     18  C   UNL     1       4.844   4.847  19.150  0.00  0.00    +0.000 C 
ATOM     19  C   UNL     1       3.392   4.585  18.656  0.00  0.00    +0.000 C 
ATOM     20  C   UNL     1       3.350   3.862  17.307  0.00  0.00    +0.000 C 
BRANCH  14  22
ATOM     21  C   UNL     1       0.858   2.039  18.896  0.00  0.00    +0.000 C 
ATOM     22  C   UNL     1       0.908   3.129  19.957  0.00  0.00    +0.000 C 
ENDBRANCH  14  22
ENDBRANCH   1  19
TORSDOF 3
ENDMDL
