MODEL 1
REMARK VINA RESULT:      -8.0      0.000      0.000
REMARK  Name = 
REMARK  8 active torsions:
REMARK  status: ('A' for Active; 'I' for Inactive)
REMARK    1  A    between atoms: C_1  and  C_2
REMARK    2  A    between atoms: N_5  and  C_6
REMARK    3  A    between atoms: C_6  and  C_7
REMARK    4  A    between atoms: C_7  and  C_8
REMARK    5  A    between atoms: C_12  and  N_13
REMARK    6  A    between atoms: N_13  and  S_14
REMARK    7  A    between atoms: S_14  and  C_17
REMARK    8  A    between atoms: N_26  and  C_27
REMARK                            x       y       z     vdW  Elec       q    Type
REMARK                         _______ _______ _______ _____ _____    ______ ____
ROOT
ATOM      1  C   UNL     1       2.862   6.525  18.540  0.00  0.00    +0.000 A 
ATOM      2  N   UNL     1       2.946   7.615  17.801  0.00  0.00    +0.000 NA
ATOM      3  C   UNL     1       2.223   8.578  18.462  0.00  0.00    +0.000 A 
ATOM      4  C   UNL     1       1.984   9.919  18.115  0.00  0.00    +0.000 A 
ATOM      5  C   UNL     1       1.197  10.698  18.970  0.00  0.00    +0.000 A 
ATOM      6  C   UNL     1       0.684  10.170  20.156  0.00  0.00    +0.000 A 
ATOM      7  C   UNL     1       0.908   8.838  20.511  0.00  0.00    +0.000 A 
ATOM      8  C   UNL     1       1.685   8.067  19.639  0.00  0.00    +0.000 A 
ATOM      9  N   UNL     1       2.102   6.757  19.666  0.00  0.00    +0.000 N 
ATOM     10  C   UNL     1       1.808   5.788  20.692  0.00  0.00    +0.000 C 
ENDROOT
BRANCH   5  11
ATOM     11  N   UNL     1       0.938  12.050  18.652  0.00  0.00    +0.000 N 
ATOM     12  H   UNL     1       0.647  12.327  17.717  0.00  0.00    +0.000 HD
BRANCH  11  13
ATOM     13  S   UNL     1       1.108  13.251  19.805  0.00  0.00    +0.000 S 
ATOM     14  O   UNL     1      -0.235  13.693  20.131  0.00  0.00    +0.000 OA
ATOM     15  O   UNL     1       2.019  12.806  20.835  0.00  0.00    +0.000 OA
BRANCH  13  16
ATOM     16  C   UNL     1       1.891  14.568  18.901  0.00  0.00    +0.000 A 
ATOM     17  C   UNL     1       3.076  14.321  18.199  0.00  0.00    +0.000 A 
ATOM     18  C   UNL     1       3.665  15.350  17.463  0.00  0.00    +0.000 A 
ATOM     19  C   UNL     1       3.066  16.611  17.421  0.00  0.00    +0.000 A 
ATOM     20  C   UNL     1       1.877  16.848  18.111  0.00  0.00    +0.000 A 
ATOM     21  C   UNL     1       1.280  15.826  18.849  0.00  0.00    +0.000 A 
ENDBRANCH  13  16
ENDBRANCH  11  13
ENDBRANCH   5  11
BRANCH   1  22
ATOM     22  C   UNL     1       3.501   5.209  18.224  0.00  0.00    +0.000 C 
BRANCH  22  23
ATOM     23  C   UNL     1       4.924   5.129  18.795  0.00  0.00    +0.000 C 
BRANCH  23  28
ATOM     24  C   UNL     1       7.933   8.607  17.824  0.00  0.00    +0.000 C 
ATOM     25  C   UNL     1       7.647   7.157  17.446  0.00  0.00    +0.000 C 
ATOM     26  C   UNL     1       6.264   7.023  16.790  0.00  0.00    +0.000 C 
ATOM     27  C   UNL     1       5.863   5.556  16.590  0.00  0.00    +0.000 C 
ATOM     28  N   UNL     1       5.961   4.738  17.814  0.00  0.00    +0.000 NA
ATOM     29  C   UNL     1       7.334   4.818  18.337  0.00  0.00    +0.000 C 
ATOM     30  C   UNL     1       7.769   6.244  18.673  0.00  0.00    +0.000 C 
ENDBRANCH  23  28
ENDBRANCH  22  23
ENDBRANCH   1  22
TORSDOF 6
ENDMDL
MODEL 2
REMARK VINA RESULT:      -8.0      2.653      3.330
REMARK  Name = 
REMARK  8 active torsions:
REMARK  status: ('A' for Active; 'I' for Inactive)
REMARK    1  A    between atoms: C_1  and  C_2
REMARK    2  A    between atoms: N_5  and  C_6
REMARK    3  A    between atoms: C_6  and  C_7
REMARK    4  A    between atoms: C_7  and  C_8
REMARK    5  A    between atoms: C_12  and  N_13
REMARK    6  A    between atoms: N_13  and  S_14
REMARK    7  A    between atoms: S_14  and  C_17
REMARK    8  A    between atoms: N_26  and  C_27
REMARK                            x       y       z     vdW  Elec       q    Type
REMARK                         _______ _______ _______ _____ _____    ______ ____
ROOT
ATOM      1  C   UNL     1       2.981   6.049  18.775  0.00  0.00    +0.000 A 
ATOM      2  N   UNL     1       2.841   7.152  18.063  0.00  0.00    +0.000 NA
ATOM      3  C   UNL     1       2.069   7.997  18.822  0.00  0.00    +0.000 A 
ATOM      4  C   UNL     1       1.619   9.298  18.540  0.00  0.00    +0.000 A 
ATOM      5  C   UNL     1       0.827   9.949  19.493  0.00  0.00    +0.000 A 
ATOM      6  C   UNL     1       0.515   9.338  20.708  0.00  0.00    +0.000 A 
ATOM      7  C   UNL     1       0.951   8.043  20.999  0.00  0.00    +0.000 A 
ATOM      8  C   UNL     1       1.728   7.399  20.031  0.00  0.00    +0.000 A 
ATOM      9  N   UNL     1       2.318   6.158  19.977  0.00  0.00    +0.000 N 
ATOM     10  C   UNL     1       2.264   5.141  20.998  0.00  0.00    +0.000 C 
ENDROOT
BRANCH   5  11
ATOM     11  N   UNL     1       0.359  11.259  19.243  0.00  0.00    +0.000 N 
ATOM     12  H   UNL     1      -0.101  11.497  18.366  0.00  0.00    +0.000 HD
BRANCH  11  13
ATOM     13  S   UNL     1       0.549  12.471  20.380  0.00  0.00    +0.000 S 
ATOM     14  O   UNL     1       1.555  11.999  21.312  0.00  0.00    +0.000 OA
ATOM     15  O   UNL     1       0.692  13.744  19.709  0.00  0.00    +0.000 OA
BRANCH  13  16
ATOM     16  C   UNL     1      -1.008  12.466  21.238  0.00  0.00    +0.000 A 
ATOM     17  C   UNL     1      -1.071  12.020  22.563  0.00  0.00    +0.000 A 
ATOM     18  C   UNL     1      -2.290  12.052  23.242  0.00  0.00    +0.000 A 
ATOM     19  C   UNL     1      -3.433  12.539  22.603  0.00  0.00    +0.000 A 
ATOM     20  C   UNL     1      -3.362  12.996  21.286  0.00  0.00    +0.000 A 
ATOM     21  C   UNL     1      -2.148  12.967  20.600  0.00  0.00    +0.000 A 
ENDBRANCH  13  16
ENDBRANCH  11  13
ENDBRANCH   5  11
BRANCH   1  22
ATOM     22  C   UNL     1       3.754   4.837  18.356  0.00  0.00    +0.000 C 
BRANCH  22  23
ATOM     23  C   UNL     1       5.211   4.913  18.836  0.00  0.00    +0.000 C 
BRANCH  23  28
ATOM     24  C   UNL     1       7.812   8.703  17.852  0.00  0.00    +0.000 C 
ATOM     25  C   UNL     1       7.643   7.247  17.427  0.00  0.00    +0.000 C 
ATOM     26  C   UNL     1       6.242   7.005  16.844  0.00  0.00    +0.000 C 
ATOM     27  C   UNL     1       5.971   5.514  16.602  0.00  0.00    +0.000 C 
ATOM     28  N   UNL     1       6.220   4.663  17.781  0.00  0.00    +0.000 NA
ATOM     29  C   UNL     1       7.608   4.856  18.230  0.00  0.00    +0.000 C 
ATOM     30  C   UNL     1       7.925   6.305  18.604  0.00  0.00    +0.000 C 
ENDBRANCH  23  28
ENDBRANCH  22  23
ENDBRANCH   1  22
TORSDOF 6
ENDMDL
MODEL 3
REMARK VINA RESULT:      -8.0      2.909      3.497
REMARK  Name = 
REMARK  8 active torsions:
REMARK  status: ('A' for Active; 'I' for Inactive)
REMARK    1  A    between atoms: C_1  and  C_2
REMARK    2  A    between atoms: N_5  and  C_6
REMARK    3  A    between atoms: C_6  and  C_7
REMARK    4  A    between atoms: C_7  and  C_8
REMARK    5  A    between atoms: C_12  and  N_13
REMARK    6  A    between atoms: N_13  and  S_14
REMARK    7  A    between atoms: S_14  and  C_17
REMARK    8  A    between atoms: N_26  and  C_27
REMARK                            x       y       z     vdW  Elec       q    Type
REMARK                         _______ _______ _______ _____ _____    ______ ____
ROOT
ATOM      1  C   UNL     1       2.991   5.849  18.662  0.00  0.00    +0.000 A 
ATOM      2  N   UNL     1       2.856   6.950  17.946  0.00  0.00    +0.000 NA
ATOM      3  C   UNL     1       2.188   7.843  18.747  0.00  0.00    +0.000 A 
ATOM      4  C   UNL     1       1.786   9.163  18.480  0.00  0.00    +0.000 A 
ATOM      5  C   UNL     1       1.103   9.866  19.479  0.00  0.00    +0.000 A 
ATOM      6  C   UNL     1       0.850   9.285  20.722  0.00  0.00    +0.000 A 
ATOM      7  C   UNL     1       1.239   7.972  21.000  0.00  0.00    +0.000 A 
ATOM      8  C   UNL     1       1.907   7.277  19.987  0.00  0.00    +0.000 A 
ATOM      9  N   UNL     1       2.425   6.006  19.908  0.00  0.00    +0.000 N 
ATOM     10  C   UNL     1       2.395   5.005  20.946  0.00  0.00    +0.000 C 
ENDROOT
BRANCH   5  11
ATOM     11  N   UNL     1       0.686  11.195  19.244  0.00  0.00    +0.000 N 
ATOM     12  H   UNL     1       1.276  11.853  18.737  0.00  0.00    +0.000 HD
BRANCH  11  13
ATOM     13  S   UNL     1      -0.795  11.742  19.799  0.00  0.00    +0.000 S 
ATOM     14  O   UNL     1      -1.106  10.949  20.974  0.00  0.00    +0.000 OA
ATOM     15  O   UNL     1      -0.786  13.186  19.855  0.00  0.00    +0.000 OA
BRANCH  13  16
ATOM     16  C   UNL     1      -1.916  11.241  18.513  0.00  0.00    +0.000 A 
ATOM     17  C   UNL     1      -1.503  10.310  17.554  0.00  0.00    +0.000 A 
ATOM     18  C   UNL     1      -2.400   9.895  16.568  0.00  0.00    +0.000 A 
ATOM     19  C   UNL     1      -3.702  10.399  16.552  0.00  0.00    +0.000 A 
ATOM     20  C   UNL     1      -4.115  11.316  17.519  0.00  0.00    +0.000 A 
ATOM     21  C   UNL     1      -3.225  11.737  18.508  0.00  0.00    +0.000 A 
ENDBRANCH  13  16
ENDBRANCH  11  13
ENDBRANCH   5  11
BRANCH   1  22
ATOM     22  C   UNL     1       3.666   4.593  18.206  0.00  0.00    +0.000 C 
BRANCH  22  23
ATOM     23  C   UNL     1       5.151   4.584  18.601  0.00  0.00    +0.000 C 
BRANCH  23  28
ATOM     24  C   UNL     1       7.712   8.440  17.784  0.00  0.00    +0.000 C 
ATOM     25  C   UNL     1       7.506   7.027  17.246  0.00  0.00    +0.000 C 
ATOM     26  C   UNL     1       6.069   6.839  16.735  0.00  0.00    +0.000 C 
ATOM     27  C   UNL     1       5.772   5.375  16.383  0.00  0.00    +0.000 C 
ATOM     28  N   UNL     1       6.088   4.425  17.466  0.00  0.00    +0.000 NA
ATOM     29  C   UNL     1       7.503   4.576  17.840  0.00  0.00    +0.000 C 
ATOM     30  C   UNL     1       7.855   5.985  18.317  0.00  0.00    +0.000 C 
ENDBRANCH  23  28
ENDBRANCH  22  23
ENDBRANCH   1  22
TORSDOF 6
ENDMDL
MODEL 4
REMARK VINA RESULT:      -8.0      2.724      3.323
REMARK  Name = 
REMARK  8 active torsions:
REMARK  status: ('A' for Active; 'I' for Inactive)
REMARK    1  A    between atoms: C_1  and  C_2
REMARK    2  A    between atoms: N_5  and  C_6
REMARK    3  A    between atoms: C_6  and  C_7
REMARK    4  A    between atoms: C_7  and  C_8
REMARK    5  A    between atoms: C_12  and  N_13
REMARK    6  A    between atoms: N_13  and  S_14
REMARK    7  A    between atoms: S_14  and  C_17
REMARK    8  A    between atoms: N_26  and  C_27
REMARK                            x       y       z     vdW  Elec       q    Type
REMARK                         _______ _______ _______ _____ _____    ______ ____
ROOT
ATOM      1  C   UNL     1       2.891   6.040  18.601  0.00  0.00    +0.000 A 
ATOM      2  N   UNL     1       2.744   7.168  17.931  0.00  0.00    +0.000 NA
ATOM      3  C   UNL     1       2.098   8.031  18.782  0.00  0.00    +0.000 A 
ATOM      4  C   UNL     1       1.694   9.362  18.576  0.00  0.00    +0.000 A 
ATOM      5  C   UNL     1       1.037  10.027  19.616  0.00  0.00    +0.000 A 
ATOM      6  C   UNL     1       0.812   9.399  20.842  0.00  0.00    +0.000 A 
ATOM      7  C   UNL     1       1.202   8.075  21.060  0.00  0.00    +0.000 A 
ATOM      8  C   UNL     1       1.844   7.418  20.005  0.00  0.00    +0.000 A 
ATOM      9  N   UNL     1       2.356   6.150  19.865  0.00  0.00    +0.000 N 
ATOM     10  C   UNL     1       2.346   5.110  20.863  0.00  0.00    +0.000 C 
ENDROOT
BRANCH   5  11
ATOM     11  N   UNL     1       0.620  11.365  19.444  0.00  0.00    +0.000 N 
ATOM     12  H   UNL     1       1.276  12.139  19.532  0.00  0.00    +0.000 HD
BRANCH  11  13
ATOM     13  S   UNL     1      -0.975  11.730  19.093  0.00  0.00    +0.000 S 
ATOM     14  O   UNL     1      -0.941  12.780  18.093  0.00  0.00    +0.000 OA
ATOM     15  O   UNL     1      -1.711  10.507  18.865  0.00  0.00    +0.000 OA
BRANCH  13  16
ATOM     16  C   UNL     1      -1.563  12.459  20.604  0.00  0.00    +0.000 A 
ATOM     17  C   UNL     1      -2.092  13.755  20.591  0.00  0.00    +0.000 A 
ATOM     18  C   UNL     1      -2.584  14.308  21.774  0.00  0.00    +0.000 A 
ATOM     19  C   UNL     1      -2.558  13.565  22.957  0.00  0.00    +0.000 A 
ATOM     20  C   UNL     1      -2.044  12.268  22.962  0.00  0.00    +0.000 A 
ATOM     21  C   UNL     1      -1.549  11.707  21.784  0.00  0.00    +0.000 A 
ENDBRANCH  13  16
ENDBRANCH  11  13
ENDBRANCH   5  11
BRANCH   1  22
ATOM     22  C   UNL     1       3.551   4.801  18.080  0.00  0.00    +0.000 C 
BRANCH  22  23
ATOM     23  C   UNL     1       5.014   4.713  18.542  0.00  0.00    +0.000 C 
BRANCH  23  28
ATOM     24  C   UNL     1       7.778   8.443  17.806  0.00  0.00    +0.000 C 
ATOM     25  C   UNL     1       7.532   7.035  17.272  0.00  0.00    +0.000 C 
ATOM     26  C   UNL     1       6.112   6.905  16.700  0.00  0.00    +0.000 C 
ATOM     27  C   UNL     1       5.766   5.452  16.347  0.00  0.00    +0.000 C 
ATOM     28  N   UNL     1       5.992   4.500  17.452  0.00  0.00    +0.000 NA
ATOM     29  C   UNL     1       7.395   4.593  17.887  0.00  0.00    +0.000 C 
ATOM     30  C   UNL     1       7.788   5.990  18.366  0.00  0.00    +0.000 C 
ENDBRANCH  23  28
ENDBRANCH  22  23
ENDBRANCH   1  22
TORSDOF 6
ENDMDL
MODEL 5
REMARK VINA RESULT:      -7.9      4.487      9.280
REMARK  Name = 
REMARK  8 active torsions:
REMARK  status: ('A' for Active; 'I' for Inactive)
REMARK    1  A    between atoms: C_1  and  C_2
REMARK    2  A    between atoms: N_5  and  C_6
REMARK    3  A    between atoms: C_6  and  C_7
REMARK    4  A    between atoms: C_7  and  C_8
REMARK    5  A    between atoms: C_12  and  N_13
REMARK    6  A    between atoms: N_13  and  S_14
REMARK    7  A    between atoms: S_14  and  C_17
REMARK    8  A    between atoms: N_26  and  C_27
REMARK                            x       y       z     vdW  Elec       q    Type
REMARK                         _______ _______ _______ _____ _____    ______ ____
ROOT
ATOM      1  C   UNL     1       1.882   8.821  18.585  0.00  0.00    +0.000 A 
ATOM      2  N   UNL     1       2.587   8.471  17.525  0.00  0.00    +0.000 NA
ATOM      3  C   UNL     1       3.208   7.291  17.857  0.00  0.00    +0.000 A 
ATOM      4  C   UNL     1       4.076   6.488  17.096  0.00  0.00    +0.000 A 
ATOM      5  C   UNL     1       4.585   5.323  17.679  0.00  0.00    +0.000 A 
ATOM      6  C   UNL     1       4.221   4.946  18.972  0.00  0.00    +0.000 A 
ATOM      7  C   UNL     1       3.364   5.737  19.741  0.00  0.00    +0.000 A 
ATOM      8  C   UNL     1       2.875   6.907  19.152  0.00  0.00    +0.000 A 
ATOM      9  N   UNL     1       2.032   7.898  19.596  0.00  0.00    +0.000 N 
ATOM     10  C   UNL     1       1.402   7.966  20.891  0.00  0.00    +0.000 C 
ENDROOT
BRANCH   5  11
ATOM     11  N   UNL     1       5.458   4.491  16.942  0.00  0.00    +0.000 N 
ATOM     12  H   UNL     1       5.211   3.529  16.721  0.00  0.00    +0.000 HD
BRANCH  11  13
ATOM     13  S   UNL     1       6.939   5.059  16.408  0.00  0.00    +0.000 S 
ATOM     14  O   UNL     1       6.907   6.499  16.579  0.00  0.00    +0.000 OA
ATOM     15  O   UNL     1       7.998   4.263  16.985  0.00  0.00    +0.000 OA
BRANCH  13  16
ATOM     16  C   UNL     1       6.888   4.735  14.660  0.00  0.00    +0.000 A 
ATOM     17  C   UNL     1       7.762   5.412  13.801  0.00  0.00    +0.000 A 
ATOM     18  C   UNL     1       7.741   5.126  12.435  0.00  0.00    +0.000 A 
ATOM     19  C   UNL     1       6.861   4.162  11.937  0.00  0.00    +0.000 A 
ATOM     20  C   UNL     1       6.003   3.479  12.799  0.00  0.00    +0.000 A 
ATOM     21  C   UNL     1       6.016   3.759  14.166  0.00  0.00    +0.000 A 
ENDBRANCH  13  16
ENDBRANCH  11  13
ENDBRANCH   5  11
BRANCH   1  22
ATOM     22  C   UNL     1       1.026  10.044  18.693  0.00  0.00    +0.000 C 
BRANCH  22  23
ATOM     23  C   UNL     1      -0.293   9.871  17.927  0.00  0.00    +0.000 C 
BRANCH  23  28
ATOM     24  C   UNL     1      -3.856  10.359  14.899  0.00  0.00    +0.000 C 
ATOM     25  C   UNL     1      -3.463  10.730  16.327  0.00  0.00    +0.000 C 
ATOM     26  C   UNL     1      -2.227  11.642  16.336  0.00  0.00    +0.000 C 
ATOM     27  C   UNL     1      -1.686  11.861  17.756  0.00  0.00    +0.000 C 
ATOM     28  N   UNL     1      -1.440  10.611  18.500  0.00  0.00    +0.000 NA
ATOM     29  C   UNL     1      -2.686   9.829  18.550  0.00  0.00    +0.000 C 
ATOM     30  C   UNL     1      -3.229   9.468  17.167  0.00  0.00    +0.000 C 
ENDBRANCH  23  28
ENDBRANCH  22  23
ENDBRANCH   1  22
TORSDOF 6
ENDMDL
MODEL 6
REMARK VINA RESULT:      -7.9      4.149      8.099
REMARK  Name = 
REMARK  8 active torsions:
REMARK  status: ('A' for Active; 'I' for Inactive)
REMARK    1  A    between atoms: C_1  and  C_2
REMARK    2  A    between atoms: N_5  and  C_6
REMARK    3  A    between atoms: C_6  and  C_7
REMARK    4  A    between atoms: C_7  and  C_8
REMARK    5  A    between atoms: C_12  and  N_13
REMARK    6  A    between atoms: N_13  and  S_14
REMARK    7  A    between atoms: S_14  and  C_17
REMARK    8  A    between atoms: N_26  and  C_27
REMARK                            x       y       z     vdW  Elec       q    Type
REMARK                         _______ _______ _______ _____ _____    ______ ____
ROOT
ATOM      1  C   UNL     1       1.929   6.884  20.035  0.00  0.00    +0.000 A 
ATOM      2  N   UNL     1       2.584   7.478  19.055  0.00  0.00    +0.000 NA
ATOM      3  C   UNL     1       3.117   6.469  18.291  0.00  0.00    +0.000 A 
ATOM      4  C   UNL     1       3.905   6.542  17.129  0.00  0.00    +0.000 A 
ATOM      5  C   UNL     1       4.333   5.348  16.539  0.00  0.00    +0.000 A 
ATOM      6  C   UNL     1       3.964   4.111  17.069  0.00  0.00    +0.000 A 
ATOM      7  C   UNL     1       3.187   4.022  18.226  0.00  0.00    +0.000 A 
ATOM      8  C   UNL     1       2.779   5.224  18.814  0.00  0.00    +0.000 A 
ATOM      9  N   UNL     1       2.025   5.515  19.926  0.00  0.00    +0.000 N 
ATOM     10  C   UNL     1       1.426   4.559  20.826  0.00  0.00    +0.000 C 
ENDROOT
BRANCH   5  11
ATOM     11  N   UNL     1       5.124   5.385  15.369  0.00  0.00    +0.000 N 
ATOM     12  H   UNL     1       4.729   5.659  14.472  0.00  0.00    +0.000 HD
BRANCH  11  13
ATOM     13  S   UNL     1       6.745   4.971  15.415  0.00  0.00    +0.000 S 
ATOM     14  O   UNL     1       6.792   3.537  15.623  0.00  0.00    +0.000 OA
ATOM     15  O   UNL     1       7.432   5.587  14.302  0.00  0.00    +0.000 OA
BRANCH  13  16
ATOM     16  C   UNL     1       7.314   5.740  16.914  0.00  0.00    +0.000 A 
ATOM     17  C   UNL     1       7.602   4.952  18.034  0.00  0.00    +0.000 A 
ATOM     18  C   UNL     1       8.083   5.558  19.196  0.00  0.00    +0.000 A 
ATOM     19  C   UNL     1       8.284   6.940  19.230  0.00  0.00    +0.000 A 
ATOM     20  C   UNL     1       8.009   7.720  18.107  0.00  0.00    +0.000 A 
ATOM     21  C   UNL     1       7.529   7.123  16.941  0.00  0.00    +0.000 A 
ENDBRANCH  13  16
ENDBRANCH  11  13
ENDBRANCH   5  11
BRANCH   1  22
ATOM     22  C   UNL     1       1.174   7.583  21.123  0.00  0.00    +0.000 C 
BRANCH  22  23
ATOM     23  C   UNL     1       1.376   9.104  21.053  0.00  0.00    +0.000 C 
BRANCH  23  28
ATOM     24  C   UNL     1       2.451  12.979  18.619  0.00  0.00    +0.000 C 
ATOM     25  C   UNL     1       1.238  12.216  19.145  0.00  0.00    +0.000 C 
ATOM     26  C   UNL     1       1.257  12.146  20.680  0.00  0.00    +0.000 C 
ATOM     27  C   UNL     1       0.168  11.211  21.225  0.00  0.00    +0.000 C 
ATOM     28  N   UNL     1       0.181   9.865  20.622  0.00  0.00    +0.000 NA
ATOM     29  C   UNL     1       0.052   9.990  19.162  0.00  0.00    +0.000 C 
ATOM     30  C   UNL     1       1.172  10.814  18.526  0.00  0.00    +0.000 C 
ENDBRANCH  23  28
ENDBRANCH  22  23
ENDBRANCH   1  22
TORSDOF 6
ENDMDL
MODEL 7
REMARK VINA RESULT:      -7.8      4.128      9.549
REMARK  Name = 
REMARK  8 active torsions:
REMARK  status: ('A' for Active; 'I' for Inactive)
REMARK    1  A    between atoms: C_1  and  C_2
REMARK    2  A    between atoms: N_5  and  C_6
REMARK    3  A    between atoms: C_6  and  C_7
REMARK    4  A    between atoms: C_7  and  C_8
REMARK    5  A    between atoms: C_12  and  N_13
REMARK    6  A    between atoms: N_13  and  S_14
REMARK    7  A    between atoms: S_14  and  C_17
REMARK    8  A    between atoms: N_26  and  C_27
REMARK                            x       y       z     vdW  Elec       q    Type
REMARK                         _______ _______ _______ _____ _____    ______ ____
ROOT
ATOM      1  C   UNL     1       0.932   9.767  20.752  0.00  0.00    +0.000 A 
ATOM      2  N   UNL     1       1.171   8.543  21.187  0.00  0.00    +0.000 NA
ATOM      3  C   UNL     1       1.763   7.879  20.141  0.00  0.00    +0.000 A 
ATOM      4  C   UNL     1       2.219   6.551  20.062  0.00  0.00    +0.000 A 
ATOM      5  C   UNL     1       2.785   6.112  18.861  0.00  0.00    +0.000 A 
ATOM      6  C   UNL     1       2.924   6.975  17.773  0.00  0.00    +0.000 A 
ATOM      7  C   UNL     1       2.471   8.295  17.834  0.00  0.00    +0.000 A 
ATOM      8  C   UNL     1       1.893   8.715  19.037  0.00  0.00    +0.000 A 
ATOM      9  N   UNL     1       1.354   9.911  19.449  0.00  0.00    +0.000 N 
ATOM     10  C   UNL     1       1.250  11.117  18.665  0.00  0.00    +0.000 C 
ENDROOT
BRANCH   5  11
ATOM     11  N   UNL     1       3.256   4.784  18.748  0.00  0.00    +0.000 N 
ATOM     12  H   UNL     1       2.629   4.021  18.500  0.00  0.00    +0.000 HD
BRANCH  11  13
ATOM     13  S   UNL     1       4.864   4.416  19.027  0.00  0.00    +0.000 S 
ATOM     14  O   UNL     1       5.425   5.555  19.729  0.00  0.00    +0.000 OA
ATOM     15  O   UNL     1       4.966   3.080  19.570  0.00  0.00    +0.000 OA
BRANCH  13  16
ATOM     16  C   UNL     1       5.564   4.407  17.392  0.00  0.00    +0.000 A 
ATOM     17  C   UNL     1       4.739   4.187  16.284  0.00  0.00    +0.000 A 
ATOM     18  C   UNL     1       5.288   4.217  15.001  0.00  0.00    +0.000 A 
ATOM     19  C   UNL     1       6.650   4.477  14.831  0.00  0.00    +0.000 A 
ATOM     20  C   UNL     1       7.466   4.711  15.938  0.00  0.00    +0.000 A 
ATOM     21  C   UNL     1       6.925   4.682  17.224  0.00  0.00    +0.000 A 
ENDBRANCH  13  16
ENDBRANCH  11  13
ENDBRANCH   5  11
BRANCH   1  22
ATOM     22  C   UNL     1       0.297  10.863  21.549  0.00  0.00    +0.000 C 
BRANCH  22  23
ATOM     23  C   UNL     1      -1.115  11.180  21.034  0.00  0.00    +0.000 C 
BRANCH  23  28
ATOM     24  C   UNL     1      -4.065  12.724  24.352  0.00  0.00    +0.000 C 
ATOM     25  C   UNL     1      -3.290  13.227  23.138  0.00  0.00    +0.000 C 
ATOM     26  C   UNL     1      -3.752  12.512  21.858  0.00  0.00    +0.000 C 
ATOM     27  C   UNL     1      -2.852  12.844  20.659  0.00  0.00    +0.000 C 
ATOM     28  N   UNL     1      -1.416  12.625  20.913  0.00  0.00    +0.000 NA
ATOM     29  C   UNL     1      -1.007  13.417  22.083  0.00  0.00    +0.000 C 
ATOM     30  C   UNL     1      -1.781  13.061  23.353  0.00  0.00    +0.000 C 
ENDBRANCH  23  28
ENDBRANCH  22  23
ENDBRANCH   1  22
TORSDOF 6
ENDMDL
MODEL 8
REMARK VINA RESULT:      -7.8      1.208      1.764
REMARK  Name = 
REMARK  8 active torsions:
REMARK  status: ('A' for Active; 'I' for Inactive)
REMARK    1  A    between atoms: C_1  and  C_2
REMARK    2  A    between atoms: N_5  and  C_6
REMARK    3  A    between atoms: C_6  and  C_7
REMARK    4  A    between atoms: C_7  and  C_8
REMARK    5  A    between atoms: C_12  and  N_13
REMARK    6  A    between atoms: N_13  and  S_14
REMARK    7  A    between atoms: S_14  and  C_17
REMARK    8  A    between atoms: N_26  and  C_27
REMARK                            x       y       z     vdW  Elec       q    Type
REMARK                         _______ _______ _______ _____ _____    ______ ____
ROOT
ATOM      1  C   UNL     1       2.871   6.226  18.659  0.00  0.00    +0.000 A 
ATOM      2  N   UNL     1       2.781   7.360  17.988  0.00  0.00    +0.000 NA
ATOM      3  C   UNL     1       2.088   8.225  18.800  0.00  0.00    +0.000 A 
ATOM      4  C   UNL     1       1.713   9.561  18.576  0.00  0.00    +0.000 A 
ATOM      5  C   UNL     1       0.995  10.227  19.574  0.00  0.00    +0.000 A 
ATOM      6  C   UNL     1       0.682   9.595  20.779  0.00  0.00    +0.000 A 
ATOM      7  C   UNL     1       1.043   8.266  21.013  0.00  0.00    +0.000 A 
ATOM      8  C   UNL     1       1.748   7.608  19.999  0.00  0.00    +0.000 A 
ATOM      9  N   UNL     1       2.254   6.335  19.885  0.00  0.00    +0.000 N 
ATOM     10  C   UNL     1       2.167   5.289  20.874  0.00  0.00    +0.000 C 
ENDROOT
BRANCH   5  11
ATOM     11  N   UNL     1       0.604  11.571  19.383  0.00  0.00    +0.000 N 
ATOM     12  H   UNL     1      -0.310  11.806  19.001  0.00  0.00    +0.000 HD
BRANCH  11  13
ATOM     13  S   UNL     1       1.636  12.830  19.772  0.00  0.00    +0.000 S 
ATOM     14  O   UNL     1       1.995  12.645  21.165  0.00  0.00    +0.000 OA
ATOM     15  O   UNL     1       2.650  12.956  18.750  0.00  0.00    +0.000 OA
BRANCH  13  16
ATOM     16  C   UNL     1       0.578  14.258  19.685  0.00  0.00    +0.000 A 
ATOM     17  C   UNL     1       0.886  15.298  18.801  0.00  0.00    +0.000 A 
ATOM     18  C   UNL     1       0.033  16.399  18.713  0.00  0.00    +0.000 A 
ATOM     19  C   UNL     1      -1.124  16.451  19.493  0.00  0.00    +0.000 A 
ATOM     20  C   UNL     1      -1.434  15.404  20.362  0.00  0.00    +0.000 A 
ATOM     21  C   UNL     1      -0.587  14.300  20.457  0.00  0.00    +0.000 A 
ENDBRANCH  13  16
ENDBRANCH  11  13
ENDBRANCH   5  11
BRANCH   1  22
ATOM     22  C   UNL     1       3.552   4.983  18.176  0.00  0.00    +0.000 C 
BRANCH  22  23
ATOM     23  C   UNL     1       4.996   4.902  18.692  0.00  0.00    +0.000 C 
BRANCH  23  28
ATOM     24  C   UNL     1       7.815   8.561  17.814  0.00  0.00    +0.000 C 
ATOM     25  C   UNL     1       7.574   7.123  17.362  0.00  0.00    +0.000 C 
ATOM     26  C   UNL     1       6.172   6.967  16.752  0.00  0.00    +0.000 C 
ATOM     27  C   UNL     1       5.825   5.496  16.481  0.00  0.00    +0.000 C 
ATOM     28  N   UNL     1       6.008   4.615  17.650  0.00  0.00    +0.000 NA
ATOM     29  C   UNL     1       7.396   4.725  18.124  0.00  0.00    +0.000 C 
ATOM     30  C   UNL     1       7.785   6.148  18.527  0.00  0.00    +0.000 C 
ENDBRANCH  23  28
ENDBRANCH  22  23
ENDBRANCH   1  22
TORSDOF 6
ENDMDL
MODEL 9
REMARK VINA RESULT:      -7.8      0.703      1.230
REMARK  Name = 
REMARK  8 active torsions:
REMARK  status: ('A' for Active; 'I' for Inactive)
REMARK    1  A    between atoms: C_1  and  C_2
REMARK    2  A    between atoms: N_5  and  C_6
REMARK    3  A    between atoms: C_6  and  C_7
REMARK    4  A    between atoms: C_7  and  C_8
REMARK    5  A    between atoms: C_12  and  N_13
REMARK    6  A    between atoms: N_13  and  S_14
REMARK    7  A    between atoms: S_14  and  C_17
REMARK    8  A    between atoms: N_26  and  C_27
REMARK                            x       y       z     vdW  Elec       q    Type
REMARK                         _______ _______ _______ _____ _____    ______ ____
ROOT
ATOM      1  C   UNL     1       2.919   6.204  18.614  0.00  0.00    +0.000 A 
ATOM      2  N   UNL     1       2.865   7.317  17.906  0.00  0.00    +0.000 NA
ATOM      3  C   UNL     1       2.146   8.211  18.660  0.00  0.00    +0.000 A 
ATOM      4  C   UNL     1       1.791   9.542  18.380  0.00  0.00    +0.000 A 
ATOM      5  C   UNL     1       1.036  10.243  19.327  0.00  0.00    +0.000 A 
ATOM      6  C   UNL     1       0.668   9.651  20.535  0.00  0.00    +0.000 A 
ATOM      7  C   UNL     1       1.009   8.327  20.825  0.00  0.00    +0.000 A 
ATOM      8  C   UNL     1       1.750   7.634  19.863  0.00  0.00    +0.000 A 
ATOM      9  N   UNL     1       2.252   6.355  19.809  0.00  0.00    +0.000 N 
ATOM     10  C   UNL     1       2.115   5.341  20.825  0.00  0.00    +0.000 C 
ENDROOT
BRANCH   5  11
ATOM     11  N   UNL     1       0.664  11.583  19.078  0.00  0.00    +0.000 N 
ATOM     12  H   UNL     1       0.428  11.901  18.139  0.00  0.00    +0.000 HD
BRANCH  11  13
ATOM     13  S   UNL     1       0.602  12.703  20.320  0.00  0.00    +0.000 S 
ATOM     14  O   UNL     1      -0.767  12.700  20.801  0.00  0.00    +0.000 OA
ATOM     15  O   UNL     1       1.710  12.486  21.221  0.00  0.00    +0.000 OA
BRANCH  13  16
ATOM     16  C   UNL     1       0.861  14.250  19.481  0.00  0.00    +0.000 A 
ATOM     17  C   UNL     1      -0.199  15.152  19.343  0.00  0.00    +0.000 A 
ATOM     18  C   UNL     1       0.021  16.379  18.715  0.00  0.00    +0.000 A 
ATOM     19  C   UNL     1       1.294  16.703  18.240  0.00  0.00    +0.000 A 
ATOM     20  C   UNL     1       2.352  15.805  18.393  0.00  0.00    +0.000 A 
ATOM     21  C   UNL     1       2.141  14.577  19.019  0.00  0.00    +0.000 A 
ENDBRANCH  13  16
ENDBRANCH  11  13
ENDBRANCH   5  11
BRANCH   1  22
ATOM     22  C   UNL     1       3.610   4.943  18.198  0.00  0.00    +0.000 C 
BRANCH  22  23
ATOM     23  C   UNL     1       5.060   4.910  18.703  0.00  0.00    +0.000 C 
BRANCH  23  28
ATOM     24  C   UNL     1       7.874   8.573  17.830  0.00  0.00    +0.000 C 
ATOM     25  C   UNL     1       7.634   7.136  17.374  0.00  0.00    +0.000 C 
ATOM     26  C   UNL     1       6.231   6.981  16.767  0.00  0.00    +0.000 C 
ATOM     27  C   UNL     1       5.884   5.511  16.492  0.00  0.00    +0.000 C 
ATOM     28  N   UNL     1       6.069   4.626  17.658  0.00  0.00    +0.000 NA
ATOM     29  C   UNL     1       7.459   4.736  18.129  0.00  0.00    +0.000 C 
ATOM     30  C   UNL     1       7.848   6.158  18.536  0.00  0.00    +0.000 C 
ENDBRANCH  23  28
ENDBRANCH  22  23
ENDBRANCH   1  22
TORSDOF 6
ENDMDL
