MODEL 1
REMARK VINA RESULT:      -8.3      0.000      0.000
REMARK  Name = 
REMARK  5 active torsions:
REMARK  status: ('A' for Active; 'I' for Inactive)
REMARK    1  A    between atoms: C_1  and  O_2
REMARK    2  A    between atoms: O_2  and  C_3
REMARK    3  A    between atoms: C_7  and  N_8
REMARK    4  A    between atoms: N_8  and  C_9
REMARK    5  A    between atoms: C_9  and  C_10
REMARK                            x       y       z     vdW  Elec       q    Type
REMARK                         _______ _______ _______ _____ _____    ______ ____
ROOT
ATOM      1  C   UNL     1       6.180   4.793  17.203  0.00  0.00    +0.000 A 
ATOM      2  C   UNL     1       5.664   3.975  16.268  0.00  0.00    +0.000 A 
ATOM      3  C   UNL     1       6.065   4.082  14.869  0.00  0.00    +0.000 A 
ATOM      4  C   UNL     1       5.479   3.287  13.882  0.00  0.00    +0.000 A 
ATOM      5  C   UNL     1       5.915   3.399  12.561  0.00  0.00    +0.000 A 
ATOM      6 CL   UNL     1       5.164   2.451  11.336  0.00  0.00    +0.000 Cl
ATOM      7  C   UNL     1       6.945   4.276  12.222  0.00  0.00    +0.000 A 
ATOM      8  C   UNL     1       7.530   5.078  13.204  0.00  0.00    +0.000 A 
ATOM      9  C   UNL     1       7.072   4.991  14.519  0.00  0.00    +0.000 A 
ATOM     10  N   UNL     1       7.599   5.835  15.502  0.00  0.00    +0.000 N 
ATOM     11  C   UNL     1       7.179   5.835  16.805  0.00  0.00    +0.000 A 
ATOM     12  O   UNL     1       7.619   6.649  17.612  0.00  0.00    +0.000 OA
ATOM     13  H   UNL     1       8.289   6.534  15.261  0.00  0.00    +0.000 HD
ENDROOT
BRANCH   1  14
ATOM     14  C   UNL     1       5.891   4.745  18.677  0.00  0.00    +0.000 C 
BRANCH  14  15
ATOM     15  N   UNL     1       5.054   3.590  19.014  0.00  0.00    +0.000 N 
ATOM     16  H   UNL     1       5.094   2.857  18.310  0.00  0.00    +0.000 HD
BRANCH  15  21
ATOM     17  C   UNL     1       1.955   5.157  20.416  0.00  0.00    +0.000 A 
ATOM     18  C   UNL     1       1.145   4.029  20.521  0.00  0.00    +0.000 A 
ATOM     19  C   UNL     1       1.616   2.785  20.106  0.00  0.00    +0.000 A 
ATOM     20  C   UNL     1       2.906   2.670  19.582  0.00  0.00    +0.000 A 
ATOM     21  C   UNL     1       3.740   3.792  19.453  0.00  0.00    +0.000 A 
ATOM     22  C   UNL     1       3.244   5.028  19.889  0.00  0.00    +0.000 A 
BRANCH  17  24
ATOM     23  C   UNL     1       1.882   7.532  20.307  0.00  0.00    +0.000 C 
ATOM     24  O   UNL     1       1.392   6.320  20.870  0.00  0.00    +0.000 OA
ENDBRANCH  17  24
ENDBRANCH  15  21
ENDBRANCH  14  15
ENDBRANCH   1  14
TORSDOF 4
ENDMDL
MODEL 2
REMARK VINA RESULT:      -8.2      1.304      1.771
REMARK  Name = 
REMARK  5 active torsions:
REMARK  status: ('A' for Active; 'I' for Inactive)
REMARK    1  A    between atoms: C_1  and  O_2
REMARK    2  A    between atoms: O_2  and  C_3
REMARK    3  A    between atoms: C_7  and  N_8
REMARK    4  A    between atoms: N_8  and  C_9
REMARK    5  A    between atoms: C_9  and  C_10
REMARK                            x       y       z     vdW  Elec       q    Type
REMARK                         _______ _______ _______ _____ _____    ______ ____
ROOT
ATOM      1  C   UNL     1       6.186   4.789  17.209  0.00  0.00    +0.000 A 
ATOM      2  C   UNL     1       5.697   3.959  16.271  0.00  0.00    +0.000 A 
ATOM      3  C   UNL     1       6.111   4.071  14.875  0.00  0.00    +0.000 A 
ATOM      4  C   UNL     1       5.552   3.262  13.884  0.00  0.00    +0.000 A 
ATOM      5  C   UNL     1       5.999   3.380  12.568  0.00  0.00    +0.000 A 
ATOM      6 CL   UNL     1       5.282   2.414  11.337  0.00  0.00    +0.000 Cl
ATOM      7  C   UNL     1       7.015   4.278  12.238  0.00  0.00    +0.000 A 
ATOM      8  C   UNL     1       7.571   5.094  13.224  0.00  0.00    +0.000 A 
ATOM      9  C   UNL     1       7.102   5.000  14.534  0.00  0.00    +0.000 A 
ATOM     10  N   UNL     1       7.601   5.857  15.520  0.00  0.00    +0.000 N 
ATOM     11  C   UNL     1       7.167   5.851  16.819  0.00  0.00    +0.000 A 
ATOM     12  O   UNL     1       7.581   6.676  17.629  0.00  0.00    +0.000 OA
ATOM     13  H   UNL     1       8.278   6.570  15.285  0.00  0.00    +0.000 HD
ENDROOT
BRANCH   1  14
ATOM     14  C   UNL     1       5.883   4.738  18.680  0.00  0.00    +0.000 C 
BRANCH  14  15
ATOM     15  N   UNL     1       4.717   5.563  19.008  0.00  0.00    +0.000 N 
ATOM     16  H   UNL     1       4.853   6.120  19.848  0.00  0.00    +0.000 HD
BRANCH  15  21
ATOM     17  C   UNL     1       1.623   3.687  19.975  0.00  0.00    +0.000 A 
ATOM     18  C   UNL     1       0.947   3.699  18.757  0.00  0.00    +0.000 A 
ATOM     19  C   UNL     1       1.502   4.343  17.653  0.00  0.00    +0.000 A 
ATOM     20  C   UNL     1       2.740   4.980  17.769  0.00  0.00    +0.000 A 
ATOM     21  C   UNL     1       3.437   4.995  18.987  0.00  0.00    +0.000 A 
ATOM     22  C   UNL     1       2.861   4.330  20.078  0.00  0.00    +0.000 A 
BRANCH  17  24
ATOM     23  C   UNL     1       1.814   2.465  22.007  0.00  0.00    +0.000 C 
ATOM     24  O   UNL     1       0.990   3.012  20.983  0.00  0.00    +0.000 OA
ENDBRANCH  17  24
ENDBRANCH  15  21
ENDBRANCH  14  15
ENDBRANCH   1  14
TORSDOF 4
ENDMDL
MODEL 3
REMARK VINA RESULT:      -8.0      2.871      7.095
REMARK  Name = 
REMARK  5 active torsions:
REMARK  status: ('A' for Active; 'I' for Inactive)
REMARK    1  A    between atoms: C_1  and  O_2
REMARK    2  A    between atoms: O_2  and  C_3
REMARK    3  A    between atoms: C_7  and  N_8
REMARK    4  A    between atoms: N_8  and  C_9
REMARK    5  A    between atoms: C_9  and  C_10
REMARK                            x       y       z     vdW  Elec       q    Type
REMARK                         _______ _______ _______ _____ _____    ______ ____
ROOT
ATOM      1  C   UNL     1       5.578   5.229  17.152  0.00  0.00    +0.000 A 
ATOM      2  C   UNL     1       4.262   4.951  17.110  0.00  0.00    +0.000 A 
ATOM      3  C   UNL     1       3.652   4.044  18.078  0.00  0.00    +0.000 A 
ATOM      4  C   UNL     1       2.304   3.692  17.996  0.00  0.00    +0.000 A 
ATOM      5  C   UNL     1       1.754   2.846  18.959  0.00  0.00    +0.000 A 
ATOM      6 CL   UNL     1       0.103   2.377  18.835  0.00  0.00    +0.000 Cl
ATOM      7  C   UNL     1       2.530   2.372  20.017  0.00  0.00    +0.000 A 
ATOM      8  C   UNL     1       3.881   2.715  20.100  0.00  0.00    +0.000 A 
ATOM      9  C   UNL     1       4.439   3.533  19.119  0.00  0.00    +0.000 A 
ATOM     10  N   UNL     1       5.805   3.831  19.149  0.00  0.00    +0.000 N 
ATOM     11  C   UNL     1       6.435   4.596  18.204  0.00  0.00    +0.000 A 
ATOM     12  O   UNL     1       7.650   4.765  18.233  0.00  0.00    +0.000 OA
ATOM     13  H   UNL     1       6.402   3.431  19.861  0.00  0.00    +0.000 HD
ENDROOT
BRANCH   1  14
ATOM     14  C   UNL     1       6.308   6.186  16.252  0.00  0.00    +0.000 C 
BRANCH  14  15
ATOM     15  N   UNL     1       7.383   5.509  15.523  0.00  0.00    +0.000 N 
ATOM     16  H   UNL     1       8.272   5.999  15.590  0.00  0.00    +0.000 HD
BRANCH  15  21
ATOM     17  C   UNL     1       6.122   3.563  12.583  0.00  0.00    +0.000 A 
ATOM     18  C   UNL     1       6.950   4.075  11.586  0.00  0.00    +0.000 A 
ATOM     19  C   UNL     1       7.882   5.064  11.888  0.00  0.00    +0.000 A 
ATOM     20  C   UNL     1       7.987   5.545  13.195  0.00  0.00    +0.000 A 
ATOM     21  C   UNL     1       7.158   5.057  14.217  0.00  0.00    +0.000 A 
ATOM     22  C   UNL     1       6.237   4.054  13.888  0.00  0.00    +0.000 A 
BRANCH  17  24
ATOM     23  C   UNL     1       4.236   2.971  11.259  0.00  0.00    +0.000 C 
ATOM     24  O   UNL     1       5.257   2.584  12.173  0.00  0.00    +0.000 OA
ENDBRANCH  17  24
ENDBRANCH  15  21
ENDBRANCH  14  15
ENDBRANCH   1  14
TORSDOF 4
ENDMDL
MODEL 4
REMARK VINA RESULT:      -8.0      2.972      7.152
REMARK  Name = 
REMARK  5 active torsions:
REMARK  status: ('A' for Active; 'I' for Inactive)
REMARK    1  A    between atoms: C_1  and  O_2
REMARK    2  A    between atoms: O_2  and  C_3
REMARK    3  A    between atoms: C_7  and  N_8
REMARK    4  A    between atoms: N_8  and  C_9
REMARK    5  A    between atoms: C_9  and  C_10
REMARK                            x       y       z     vdW  Elec       q    Type
REMARK                         _______ _______ _______ _____ _____    ______ ____
ROOT
ATOM      1  C   UNL     1       3.178   4.512  19.226  0.00  0.00    +0.000 A 
ATOM      2  C   UNL     1       3.079   5.664  18.537  0.00  0.00    +0.000 A 
ATOM      3  C   UNL     1       2.384   6.819  19.096  0.00  0.00    +0.000 A 
ATOM      4  C   UNL     1       2.213   7.992  18.358  0.00  0.00    +0.000 A 
ATOM      5  C   UNL     1       1.570   9.084  18.942  0.00  0.00    +0.000 A 
ATOM      6 CL   UNL     1       1.320  10.515  18.020  0.00  0.00    +0.000 Cl
ATOM      7  C   UNL     1       1.119   9.023  20.261  0.00  0.00    +0.000 A 
ATOM      8  C   UNL     1       1.281   7.851  21.001  0.00  0.00    +0.000 A 
ATOM      9  C   UNL     1       1.894   6.748  20.407  0.00  0.00    +0.000 A 
ATOM     10  N   UNL     1       2.003   5.544  21.111  0.00  0.00    +0.000 N 
ATOM     11  C   UNL     1       2.560   4.408  20.586  0.00  0.00    +0.000 A 
ATOM     12  O   UNL     1       2.562   3.355  21.216  0.00  0.00    +0.000 OA
ATOM     13  H   UNL     1       1.611   5.454  22.038  0.00  0.00    +0.000 HD
ENDROOT
BRANCH   1  14
ATOM     14  C   UNL     1       3.913   3.279  18.785  0.00  0.00    +0.000 C 
BRANCH  14  15
ATOM     15  N   UNL     1       5.357   3.423  18.988  0.00  0.00    +0.000 N 
ATOM     16  H   UNL     1       5.622   3.388  19.969  0.00  0.00    +0.000 HD
BRANCH  15  21
ATOM     17  C   UNL     1       7.104   5.408  16.336  0.00  0.00    +0.000 A 
ATOM     18  C   UNL     1       7.654   6.420  17.119  0.00  0.00    +0.000 A 
ATOM     19  C   UNL     1       7.420   6.450  18.492  0.00  0.00    +0.000 A 
ATOM     20  C   UNL     1       6.630   5.461  19.085  0.00  0.00    +0.000 A 
ATOM     21  C   UNL     1       6.053   4.437  18.318  0.00  0.00    +0.000 A 
ATOM     22  C   UNL     1       6.314   4.425  16.941  0.00  0.00    +0.000 A 
BRANCH  17  24
ATOM     23  C   UNL     1       6.607   4.703  14.118  0.00  0.00    +0.000 C 
ATOM     24  O   UNL     1       7.414   5.472  15.003  0.00  0.00    +0.000 OA
ENDBRANCH  17  24
ENDBRANCH  15  21
ENDBRANCH  14  15
ENDBRANCH   1  14
TORSDOF 4
ENDMDL
MODEL 5
REMARK VINA RESULT:      -7.9      3.265      6.986
REMARK  Name = 
REMARK  5 active torsions:
REMARK  status: ('A' for Active; 'I' for Inactive)
REMARK    1  A    between atoms: C_1  and  O_2
REMARK    2  A    between atoms: O_2  and  C_3
REMARK    3  A    between atoms: C_7  and  N_8
REMARK    4  A    between atoms: N_8  and  C_9
REMARK    5  A    between atoms: C_9  and  C_10
REMARK                            x       y       z     vdW  Elec       q    Type
REMARK                         _______ _______ _______ _____ _____    ______ ____
ROOT
ATOM      1  C   UNL     1       3.237   4.529  19.175  0.00  0.00    +0.000 A 
ATOM      2  C   UNL     1       3.122   5.696  18.516  0.00  0.00    +0.000 A 
ATOM      3  C   UNL     1       2.411   6.827  19.105  0.00  0.00    +0.000 A 
ATOM      4  C   UNL     1       2.223   8.016  18.398  0.00  0.00    +0.000 A 
ATOM      5  C   UNL     1       1.565   9.083  19.011  0.00  0.00    +0.000 A 
ATOM      6 CL   UNL     1       1.294  10.534  18.126  0.00  0.00    +0.000 Cl
ATOM      7  C   UNL     1       1.118   8.983  20.329  0.00  0.00    +0.000 A 
ATOM      8  C   UNL     1       1.298   7.794  21.038  0.00  0.00    +0.000 A 
ATOM      9  C   UNL     1       1.926   6.716  20.415  0.00  0.00    +0.000 A 
ATOM     10  N   UNL     1       2.053   5.495  21.087  0.00  0.00    +0.000 N 
ATOM     11  C   UNL     1       2.624   4.381  20.532  0.00  0.00    +0.000 A 
ATOM     12  O   UNL     1       2.642   3.312  21.135  0.00  0.00    +0.000 OA
ATOM     13  H   UNL     1       1.663   5.377  22.012  0.00  0.00    +0.000 HD
ENDROOT
BRANCH   1  14
ATOM     14  C   UNL     1       3.989   3.317  18.700  0.00  0.00    +0.000 C 
BRANCH  14  15
ATOM     15  N   UNL     1       5.428   3.464  18.932  0.00  0.00    +0.000 N 
ATOM     16  H   UNL     1       5.668   3.481  19.920  0.00  0.00    +0.000 HD
BRANCH  15  21
ATOM     17  C   UNL     1       7.502   6.467  18.092  0.00  0.00    +0.000 A 
ATOM     18  C   UNL     1       7.375   6.464  16.705  0.00  0.00    +0.000 A 
ATOM     19  C   UNL     1       6.639   5.466  16.070  0.00  0.00    +0.000 A 
ATOM     20  C   UNL     1       6.027   4.465  16.828  0.00  0.00    +0.000 A 
ATOM     21  C   UNL     1       6.149   4.436  18.226  0.00  0.00    +0.000 A 
ATOM     22  C   UNL     1       6.885   5.459  18.839  0.00  0.00    +0.000 A 
BRANCH  17  24
ATOM     23  C   UNL     1       8.143   8.753  17.927  0.00  0.00    +0.000 C 
ATOM     24  O   UNL     1       8.234   7.505  18.605  0.00  0.00    +0.000 OA
ENDBRANCH  17  24
ENDBRANCH  15  21
ENDBRANCH  14  15
ENDBRANCH   1  14
TORSDOF 4
ENDMDL
MODEL 6
REMARK VINA RESULT:      -7.8      0.933      1.196
REMARK  Name = 
REMARK  5 active torsions:
REMARK  status: ('A' for Active; 'I' for Inactive)
REMARK    1  A    between atoms: C_1  and  O_2
REMARK    2  A    between atoms: O_2  and  C_3
REMARK    3  A    between atoms: C_7  and  N_8
REMARK    4  A    between atoms: N_8  and  C_9
REMARK    5  A    between atoms: C_9  and  C_10
REMARK                            x       y       z     vdW  Elec       q    Type
REMARK                         _______ _______ _______ _____ _____    ______ ____
ROOT
ATOM      1  C   UNL     1       6.202   4.727  17.101  0.00  0.00    +0.000 A 
ATOM      2  C   UNL     1       5.677   3.917  16.164  0.00  0.00    +0.000 A 
ATOM      3  C   UNL     1       6.066   4.034  14.762  0.00  0.00    +0.000 A 
ATOM      4  C   UNL     1       5.471   3.247  13.774  0.00  0.00    +0.000 A 
ATOM      5  C   UNL     1       5.895   3.370  12.451  0.00  0.00    +0.000 A 
ATOM      6 CL   UNL     1       5.133   2.432  11.225  0.00  0.00    +0.000 Cl
ATOM      7  C   UNL     1       6.923   4.249  12.110  0.00  0.00    +0.000 A 
ATOM      8  C   UNL     1       7.516   5.043  13.093  0.00  0.00    +0.000 A 
ATOM      9  C   UNL     1       7.071   4.946  14.410  0.00  0.00    +0.000 A 
ATOM     10  N   UNL     1       7.607   5.782  15.395  0.00  0.00    +0.000 N 
ATOM     11  C   UNL     1       7.198   5.772  16.702  0.00  0.00    +0.000 A 
ATOM     12  O   UNL     1       7.645   6.579  17.512  0.00  0.00    +0.000 OA
ATOM     13  H   UNL     1       8.294   6.482  15.154  0.00  0.00    +0.000 HD
ENDROOT
BRANCH   1  14
ATOM     14  C   UNL     1       5.926   4.667  18.577  0.00  0.00    +0.000 C 
BRANCH  14  15
ATOM     15  N   UNL     1       4.653   3.997  18.850  0.00  0.00    +0.000 N 
ATOM     16  H   UNL     1       4.358   3.388  18.090  0.00  0.00    +0.000 HD
BRANCH  15  21
ATOM     17  C   UNL     1       2.298   6.804  19.621  0.00  0.00    +0.000 A 
ATOM     18  C   UNL     1       1.493   6.185  20.575  0.00  0.00    +0.000 A 
ATOM     19  C   UNL     1       1.718   4.856  20.926  0.00  0.00    +0.000 A 
ATOM     20  C   UNL     1       2.753   4.141  20.318  0.00  0.00    +0.000 A 
ATOM     21  C   UNL     1       3.572   4.736  19.345  0.00  0.00    +0.000 A 
ATOM     22  C   UNL     1       3.330   6.078  19.020  0.00  0.00    +0.000 A 
BRANCH  17  24
ATOM     23  C   UNL     1       2.215   8.582  18.042  0.00  0.00    +0.000 C 
ATOM     24  O   UNL     1       1.994   8.115  19.369  0.00  0.00    +0.000 OA
ENDBRANCH  17  24
ENDBRANCH  15  21
ENDBRANCH  14  15
ENDBRANCH   1  14
TORSDOF 4
ENDMDL
MODEL 7
REMARK VINA RESULT:      -7.8      3.833      7.225
REMARK  Name = 
REMARK  5 active torsions:
REMARK  status: ('A' for Active; 'I' for Inactive)
REMARK    1  A    between atoms: C_1  and  O_2
REMARK    2  A    between atoms: O_2  and  C_3
REMARK    3  A    between atoms: C_7  and  N_8
REMARK    4  A    between atoms: N_8  and  C_9
REMARK    5  A    between atoms: C_9  and  C_10
REMARK                            x       y       z     vdW  Elec       q    Type
REMARK                         _______ _______ _______ _____ _____    ______ ____
ROOT
ATOM      1  C   UNL     1       3.134   5.353  18.399  0.00  0.00    +0.000 A 
ATOM      2  C   UNL     1       2.807   6.578  17.950  0.00  0.00    +0.000 A 
ATOM      3  C   UNL     1       2.145   7.547  18.819  0.00  0.00    +0.000 A 
ATOM      4  C   UNL     1       1.736   8.793  18.340  0.00  0.00    +0.000 A 
ATOM      5  C   UNL     1       1.135   9.701  19.212  0.00  0.00    +0.000 A 
ATOM      6 CL   UNL     1       0.592  11.220  18.614  0.00  0.00    +0.000 Cl
ATOM      7  C   UNL     1       0.963   9.387  20.560  0.00  0.00    +0.000 A 
ATOM      8  C   UNL     1       1.364   8.140  21.043  0.00  0.00    +0.000 A 
ATOM      9  C   UNL     1       1.934   7.219  20.165  0.00  0.00    +0.000 A 
ATOM     10  N   UNL     1       2.279   5.941  20.616  0.00  0.00    +0.000 N 
ATOM     11  C   UNL     1       2.810   4.970  19.809  0.00  0.00    +0.000 A 
ATOM     12  O   UNL     1       3.023   3.839  20.236  0.00  0.00    +0.000 OA
ATOM     13  H   UNL     1       2.088   5.665  21.569  0.00  0.00    +0.000 HD
ENDROOT
BRANCH   1  14
ATOM     14  C   UNL     1       3.865   4.294  17.623  0.00  0.00    +0.000 C 
BRANCH  14  15
ATOM     15  N   UNL     1       4.943   4.876  16.820  0.00  0.00    +0.000 N 
ATOM     16  H   UNL     1       5.340   4.216  16.156  0.00  0.00    +0.000 HD
BRANCH  15  21
ATOM     17  C   UNL     1       7.434   7.555  17.622  0.00  0.00    +0.000 A 
ATOM     18  C   UNL     1       8.137   6.927  18.648  0.00  0.00    +0.000 A 
ATOM     19  C   UNL     1       7.766   5.654  19.075  0.00  0.00    +0.000 A 
ATOM     20  C   UNL     1       6.685   5.006  18.474  0.00  0.00    +0.000 A 
ATOM     21  C   UNL     1       5.951   5.620  17.447  0.00  0.00    +0.000 A 
ATOM     22  C   UNL     1       6.353   6.896  17.029  0.00  0.00    +0.000 A 
BRANCH  17  24
ATOM     23  C   UNL     1       8.562   9.541  18.291  0.00  0.00    +0.000 C 
ATOM     24  O   UNL     1       7.898   8.796  17.275  0.00  0.00    +0.000 OA
ENDBRANCH  17  24
ENDBRANCH  15  21
ENDBRANCH  14  15
ENDBRANCH   1  14
TORSDOF 4
ENDMDL
MODEL 8
REMARK VINA RESULT:      -7.8      3.249      7.366
REMARK  Name = 
REMARK  5 active torsions:
REMARK  status: ('A' for Active; 'I' for Inactive)
REMARK    1  A    between atoms: C_1  and  O_2
REMARK    2  A    between atoms: O_2  and  C_3
REMARK    3  A    between atoms: C_7  and  N_8
REMARK    4  A    between atoms: N_8  and  C_9
REMARK    5  A    between atoms: C_9  and  C_10
REMARK                            x       y       z     vdW  Elec       q    Type
REMARK                         _______ _______ _______ _____ _____    ______ ____
ROOT
ATOM      1  C   UNL     1       5.694   4.640  15.971  0.00  0.00    +0.000 A 
ATOM      2  C   UNL     1       4.392   4.374  16.180  0.00  0.00    +0.000 A 
ATOM      3  C   UNL     1       3.932   3.809  17.445  0.00  0.00    +0.000 A 
ATOM      4  C   UNL     1       2.594   3.462  17.643  0.00  0.00    +0.000 A 
ATOM      5  C   UNL     1       2.192   2.953  18.878  0.00  0.00    +0.000 A 
ATOM      6 CL   UNL     1       0.552   2.485  19.110  0.00  0.00    +0.000 Cl
ATOM      7  C   UNL     1       3.106   2.812  19.923  0.00  0.00    +0.000 A 
ATOM      8  C   UNL     1       4.446   3.151  19.728  0.00  0.00    +0.000 A 
ATOM      9  C   UNL     1       4.855   3.628  18.484  0.00  0.00    +0.000 A 
ATOM     10  N   UNL     1       6.206   3.908  18.250  0.00  0.00    +0.000 N 
ATOM     11  C   UNL     1       6.692   4.345  17.047  0.00  0.00    +0.000 A 
ATOM     12  O   UNL     1       7.897   4.502  16.870  0.00  0.00    +0.000 OA
ATOM     13  H   UNL     1       6.897   3.735  18.968  0.00  0.00    +0.000 HD
ENDROOT
BRANCH   1  14
ATOM     14  C   UNL     1       6.280   5.272  14.740  0.00  0.00    +0.000 C 
BRANCH  14  15
ATOM     15  N   UNL     1       6.924   4.270  13.887  0.00  0.00    +0.000 N 
ATOM     16  H   UNL     1       7.785   4.609  13.463  0.00  0.00    +0.000 HD
BRANCH  15  21
ATOM     17  C   UNL     1       5.838   1.764  11.325  0.00  0.00    +0.000 A 
ATOM     18  C   UNL     1       4.620   2.323  10.946  0.00  0.00    +0.000 A 
ATOM     19  C   UNL     1       4.165   3.491  11.555  0.00  0.00    +0.000 A 
ATOM     20  C   UNL     1       4.933   4.102  12.549  0.00  0.00    +0.000 A 
ATOM     21  C   UNL     1       6.158   3.554  12.959  0.00  0.00    +0.000 A 
ATOM     22  C   UNL     1       6.598   2.386  12.322  0.00  0.00    +0.000 A 
BRANCH  17  24
ATOM     23  C   UNL     1       6.138  -0.596  11.375  0.00  0.00    +0.000 C 
ATOM     24  O   UNL     1       6.190   0.627  10.648  0.00  0.00    +0.000 OA
ENDBRANCH  17  24
ENDBRANCH  15  21
ENDBRANCH  14  15
ENDBRANCH   1  14
TORSDOF 4
ENDMDL
MODEL 9
REMARK VINA RESULT:      -7.8      1.162      1.975
REMARK  Name = 
REMARK  5 active torsions:
REMARK  status: ('A' for Active; 'I' for Inactive)
REMARK    1  A    between atoms: C_1  and  O_2
REMARK    2  A    between atoms: O_2  and  C_3
REMARK    3  A    between atoms: C_7  and  N_8
REMARK    4  A    between atoms: N_8  and  C_9
REMARK    5  A    between atoms: C_9  and  C_10
REMARK                            x       y       z     vdW  Elec       q    Type
REMARK                         _______ _______ _______ _____ _____    ______ ____
ROOT
ATOM      1  C   UNL     1       6.230   4.745  17.034  0.00  0.00    +0.000 A 
ATOM      2  C   UNL     1       5.668   3.943  16.112  0.00  0.00    +0.000 A 
ATOM      3  C   UNL     1       6.047   4.032  14.705  0.00  0.00    +0.000 A 
ATOM      4  C   UNL     1       5.416   3.255  13.731  0.00  0.00    +0.000 A 
ATOM      5  C   UNL     1       5.831   3.348  12.402  0.00  0.00    +0.000 A 
ATOM      6 CL   UNL     1       5.026   2.424  11.194  0.00  0.00    +0.000 Cl
ATOM      7  C   UNL     1       6.886   4.188  12.042  0.00  0.00    +0.000 A 
ATOM      8  C   UNL     1       7.515   4.972  13.011  0.00  0.00    +0.000 A 
ATOM      9  C   UNL     1       7.079   4.904  14.333  0.00  0.00    +0.000 A 
ATOM     10  N   UNL     1       7.653   5.732  15.304  0.00  0.00    +0.000 N 
ATOM     11  C   UNL     1       7.256   5.751  16.615  0.00  0.00    +0.000 A 
ATOM     12  O   UNL     1       7.739   6.551  17.410  0.00  0.00    +0.000 OA
ATOM     13  H   UNL     1       8.362   6.406  15.048  0.00  0.00    +0.000 HD
ENDROOT
BRANCH   1  14
ATOM     14  C   UNL     1       5.966   4.711  18.513  0.00  0.00    +0.000 C 
BRANCH  14  15
ATOM     15  N   UNL     1       4.927   5.674  18.887  0.00  0.00    +0.000 N 
ATOM     16  H   UNL     1       5.296   6.470  19.401  0.00  0.00    +0.000 HD
BRANCH  15  21
ATOM     17  C   UNL     1       2.030   3.513  19.867  0.00  0.00    +0.000 A 
ATOM     18  C   UNL     1       1.211   4.468  20.463  0.00  0.00    +0.000 A 
ATOM     19  C   UNL     1       1.633   5.792  20.559  0.00  0.00    +0.000 A 
ATOM     20  C   UNL     1       2.882   6.163  20.055  0.00  0.00    +0.000 A 
ATOM     21  C   UNL     1       3.733   5.218  19.460  0.00  0.00    +0.000 A 
ATOM     22  C   UNL     1       3.279   3.896  19.367  0.00  0.00    +0.000 A 
BRANCH  17  24
ATOM     23  C   UNL     1       0.539   1.995  18.800  0.00  0.00    +0.000 C 
ATOM     24  O   UNL     1       1.505   2.249  19.815  0.00  0.00    +0.000 OA
ENDBRANCH  17  24
ENDBRANCH  15  21
ENDBRANCH  14  15
ENDBRANCH   1  14
TORSDOF 4
ENDMDL
