MODEL 1
REMARK VINA RESULT:      -6.9      0.000      0.000
REMARK  Name = 
REMARK  8 active torsions:
REMARK  status: ('A' for Active; 'I' for Inactive)
REMARK    1  A    between atoms: C_1  and  O_2
REMARK    2  A    between atoms: O_2  and  C_3
REMARK    3  A    between atoms: C_7  and  O_8
REMARK    4  A    between atoms: C_13  and  O_14
REMARK    5  A    between atoms: C_13  and  C_15
REMARK    6  A    between atoms: C_15  and  C_16
REMARK    7  A    between atoms: C_19  and  O_20
REMARK    8  A    between atoms: C_21  and  O_22
REMARK                            x       y       z     vdW  Elec       q    Type
REMARK                         _______ _______ _______ _____ _____    ______ ____
ROOT
ATOM      1  C   UNL     1       4.354   3.422  18.818  0.00  0.00    +0.000 C 
ATOM      2  C   UNL     1       5.348   4.416  18.278  0.00  0.00    +0.000 A 
ATOM      3  C   UNL     1       6.097   5.213  19.160  0.00  0.00    +0.000 A 
ATOM      4  C   UNL     1       6.971   6.183  18.669  0.00  0.00    +0.000 A 
ATOM      5  C   UNL     1       7.098   6.352  17.294  0.00  0.00    +0.000 A 
ATOM      6  C   UNL     1       6.375   5.562  16.408  0.00  0.00    +0.000 A 
ATOM      7  C   UNL     1       5.505   4.589  16.898  0.00  0.00    +0.000 A 
ATOM      8  O   UNL     1       4.801   3.888  15.957  0.00  0.00    +0.000 OA
ATOM      9  C   UNL     1       4.183   2.687  16.428  0.00  0.00    +0.000 C 
ATOM     10  C   UNL     1       3.386   2.877  17.728  0.00  0.00    +0.000 C 
ENDROOT
BRANCH   1  12
ATOM     11  C   UNL     1       4.402   2.097  20.881  0.00  0.00    +0.000 C 
ATOM     12  O   UNL     1       4.973   2.382  19.609  0.00  0.00    +0.000 OA
ENDBRANCH   1  12
BRANCH   5  13
ATOM     13  O   UNL     1       7.928   7.299  16.771  0.00  0.00    +0.000 OA
ATOM     14  H   UNL     1       8.832   6.948  16.752  0.00  0.00    +0.000 HD
ENDBRANCH   5  13
BRANCH  10  15
ATOM     15  O   UNL     1       2.847   1.613  18.169  0.00  0.00    +0.000 OA
ATOM     16  H   UNL     1       2.280   1.278  17.446  0.00  0.00    +0.000 HD
ENDBRANCH  10  15
BRANCH  10  17
ATOM     17  C   UNL     1       2.214   3.891  17.525  0.00  0.00    +0.000 C 
BRANCH  17  18
ATOM     18  C   UNL     1       2.150   5.025  18.532  0.00  0.00    +0.000 A 
ATOM     19  C   UNL     1       1.843   4.766  19.879  0.00  0.00    +0.000 A 
ATOM     20  C   UNL     1       1.701   5.812  20.798  0.00  0.00    +0.000 A 
ATOM     21  C   UNL     1       1.889   7.117  20.370  0.00  0.00    +0.000 A 
ATOM     22  C   UNL     1       2.246   7.380  19.049  0.00  0.00    +0.000 A 
ATOM     23  C   UNL     1       2.378   6.348  18.129  0.00  0.00    +0.000 A 
BRANCH  21  24
ATOM     24  O   UNL     1       1.724   8.183  21.212  0.00  0.00    +0.000 OA
ATOM     25  H   UNL     1       2.608   8.495  21.469  0.00  0.00    +0.000 HD
ENDBRANCH  21  24
BRANCH  22  26
ATOM     26  O   UNL     1       2.454   8.669  18.645  0.00  0.00    +0.000 OA
ATOM     27  H   UNL     1       2.851   8.580  17.755  0.00  0.00    +0.000 HD
ENDBRANCH  22  26
ENDBRANCH  17  18
ENDBRANCH  10  17
TORSDOF 7
ENDMDL
MODEL 2
REMARK VINA RESULT:      -6.9      1.902      3.168
REMARK  Name = 
REMARK  8 active torsions:
REMARK  status: ('A' for Active; 'I' for Inactive)
REMARK    1  A    between atoms: C_1  and  O_2
REMARK    2  A    between atoms: O_2  and  C_3
REMARK    3  A    between atoms: C_7  and  O_8
REMARK    4  A    between atoms: C_13  and  O_14
REMARK    5  A    between atoms: C_13  and  C_15
REMARK    6  A    between atoms: C_15  and  C_16
REMARK    7  A    between atoms: C_19  and  O_20
REMARK    8  A    between atoms: C_21  and  O_22
REMARK                            x       y       z     vdW  Elec       q    Type
REMARK                         _______ _______ _______ _____ _____    ______ ____
ROOT
ATOM      1  C   UNL     1       5.446   5.881  17.870  0.00  0.00    +0.000 C 
ATOM      2  C   UNL     1       5.764   5.161  16.587  0.00  0.00    +0.000 A 
ATOM      3  C   UNL     1       6.540   5.790  15.600  0.00  0.00    +0.000 A 
ATOM      4  C   UNL     1       6.784   5.158  14.380  0.00  0.00    +0.000 A 
ATOM      5  C   UNL     1       6.253   3.893  14.151  0.00  0.00    +0.000 A 
ATOM      6  C   UNL     1       5.494   3.251  15.123  0.00  0.00    +0.000 A 
ATOM      7  C   UNL     1       5.255   3.880  16.344  0.00  0.00    +0.000 A 
ATOM      8  O   UNL     1       4.463   3.195  17.224  0.00  0.00    +0.000 OA
ATOM      9  C   UNL     1       4.497   3.670  18.572  0.00  0.00    +0.000 C 
ATOM     10  C   UNL     1       4.319   5.191  18.692  0.00  0.00    +0.000 C 
ENDROOT
BRANCH   1  12
ATOM     11  C   UNL     1       7.675   5.221  18.652  0.00  0.00    +0.000 C 
ATOM     12  O   UNL     1       6.625   6.181  18.653  0.00  0.00    +0.000 OA
ENDBRANCH   1  12
BRANCH   5  13
ATOM     13  O   UNL     1       6.452   3.245  12.967  0.00  0.00    +0.000 OA
ATOM     14  H   UNL     1       6.076   3.781  12.250  0.00  0.00    +0.000 HD
ENDBRANCH   5  13
BRANCH  10  15
ATOM     15  O   UNL     1       4.427   5.598  20.072  0.00  0.00    +0.000 OA
ATOM     16  H   UNL     1       5.257   6.110  20.153  0.00  0.00    +0.000 HD
ENDBRANCH  10  15
BRANCH  10  17
ATOM     17  C   UNL     1       2.928   5.638  18.134  0.00  0.00    +0.000 C 
BRANCH  17  18
ATOM     18  C   UNL     1       2.429   6.984  18.627  0.00  0.00    +0.000 A 
ATOM     19  C   UNL     1       1.939   7.127  19.938  0.00  0.00    +0.000 A 
ATOM     20  C   UNL     1       1.402   8.343  20.375  0.00  0.00    +0.000 A 
ATOM     21  C   UNL     1       1.375   9.421  19.506  0.00  0.00    +0.000 A 
ATOM     22  C   UNL     1       1.906   9.305  18.223  0.00  0.00    +0.000 A 
ATOM     23  C   UNL     1       2.432   8.099  17.778  0.00  0.00    +0.000 A 
BRANCH  21  24
ATOM     24  O   UNL     1       0.825  10.622  19.864  0.00  0.00    +0.000 OA
ATOM     25  H   UNL     1       1.520  11.148  20.296  0.00  0.00    +0.000 HD
ENDBRANCH  21  24
BRANCH  22  26
ATOM     26  O   UNL     1       1.898  10.384  17.383  0.00  0.00    +0.000 OA
ATOM     27  H   UNL     1       1.639  10.010  16.516  0.00  0.00    +0.000 HD
ENDBRANCH  22  26
ENDBRANCH  17  18
ENDBRANCH  10  17
TORSDOF 7
ENDMDL
MODEL 3
REMARK VINA RESULT:      -6.5      1.852      3.362
REMARK  Name = 
REMARK  8 active torsions:
REMARK  status: ('A' for Active; 'I' for Inactive)
REMARK    1  A    between atoms: C_1  and  O_2
REMARK    2  A    between atoms: O_2  and  C_3
REMARK    3  A    between atoms: C_7  and  O_8
REMARK    4  A    between atoms: C_13  and  O_14
REMARK    5  A    between atoms: C_13  and  C_15
REMARK    6  A    between atoms: C_15  and  C_16
REMARK    7  A    between atoms: C_19  and  O_20
REMARK    8  A    between atoms: C_21  and  O_22
REMARK                            x       y       z     vdW  Elec       q    Type
REMARK                         _______ _______ _______ _____ _____    ______ ____
ROOT
ATOM      1  C   UNL     1       5.375   5.932  17.845  0.00  0.00    +0.000 C 
ATOM      2  C   UNL     1       5.711   5.190  16.579  0.00  0.00    +0.000 A 
ATOM      3  C   UNL     1       6.456   5.821  15.569  0.00  0.00    +0.000 A 
ATOM      4  C   UNL     1       6.715   5.165  14.365  0.00  0.00    +0.000 A 
ATOM      5  C   UNL     1       6.232   3.875  14.174  0.00  0.00    +0.000 A 
ATOM      6  C   UNL     1       5.504   3.231  15.169  0.00  0.00    +0.000 A 
ATOM      7  C   UNL     1       5.250   3.884  16.374  0.00  0.00    +0.000 A 
ATOM      8  O   UNL     1       4.490   3.194  17.279  0.00  0.00    +0.000 OA
ATOM      9  C   UNL     1       4.515   3.707  18.614  0.00  0.00    +0.000 C 
ATOM     10  C   UNL     1       4.280   5.223  18.693  0.00  0.00    +0.000 C 
ENDROOT
BRANCH   1  12
ATOM     11  C   UNL     1       7.614   5.358  18.666  0.00  0.00    +0.000 C 
ATOM     12  O   UNL     1       6.547   6.298  18.609  0.00  0.00    +0.000 OA
ENDBRANCH   1  12
BRANCH   5  13
ATOM     13  O   UNL     1       6.447   3.203  13.007  0.00  0.00    +0.000 OA
ATOM     14  H   UNL     1       7.382   2.948  12.960  0.00  0.00    +0.000 HD
ENDBRANCH   5  13
BRANCH  10  15
ATOM     15  O   UNL     1       4.382   5.671  20.061  0.00  0.00    +0.000 OA
ATOM     16  H   UNL     1       3.569   6.179  20.255  0.00  0.00    +0.000 HD
ENDBRANCH  10  15
BRANCH  10  17
ATOM     17  C   UNL     1       2.869   5.601  18.134  0.00  0.00    +0.000 C 
BRANCH  17  18
ATOM     18  C   UNL     1       2.313   6.930  18.612  0.00  0.00    +0.000 A 
ATOM     19  C   UNL     1       2.218   8.022  17.732  0.00  0.00    +0.000 A 
ATOM     20  C   UNL     1       1.785   9.273  18.183  0.00  0.00    +0.000 A 
ATOM     21  C   UNL     1       1.426   9.425  19.512  0.00  0.00    +0.000 A 
ATOM     22  C   UNL     1       1.467   8.336  20.381  0.00  0.00    +0.000 A 
ATOM     23  C   UNL     1       1.905   7.093  19.943  0.00  0.00    +0.000 A 
BRANCH  21  24
ATOM     24  O   UNL     1       1.034  10.634  20.021  0.00  0.00    +0.000 OA
ATOM     25  H   UNL     1       0.574  11.116  19.313  0.00  0.00    +0.000 HD
ENDBRANCH  21  24
BRANCH  22  26
ATOM     26  O   UNL     1       1.085   8.492  21.685  0.00  0.00    +0.000 OA
ATOM     27  H   UNL     1       0.536   7.704  21.869  0.00  0.00    +0.000 HD
ENDBRANCH  22  26
ENDBRANCH  17  18
ENDBRANCH  10  17
TORSDOF 7
ENDMDL
MODEL 4
REMARK VINA RESULT:      -6.4      2.160      4.234
REMARK  Name = 
REMARK  8 active torsions:
REMARK  status: ('A' for Active; 'I' for Inactive)
REMARK    1  A    between atoms: C_1  and  O_2
REMARK    2  A    between atoms: O_2  and  C_3
REMARK    3  A    between atoms: C_7  and  O_8
REMARK    4  A    between atoms: C_13  and  O_14
REMARK    5  A    between atoms: C_13  and  C_15
REMARK    6  A    between atoms: C_15  and  C_16
REMARK    7  A    between atoms: C_19  and  O_20
REMARK    8  A    between atoms: C_21  and  O_22
REMARK                            x       y       z     vdW  Elec       q    Type
REMARK                         _______ _______ _______ _____ _____    ______ ____
ROOT
ATOM      1  C   UNL     1       6.404   6.133  16.841  0.00  0.00    +0.000 C 
ATOM      2  C   UNL     1       6.442   5.264  15.613  0.00  0.00    +0.000 A 
ATOM      3  C   UNL     1       6.944   5.773  14.404  0.00  0.00    +0.000 A 
ATOM      4  C   UNL     1       6.921   4.998  13.244  0.00  0.00    +0.000 A 
ATOM      5  C   UNL     1       6.399   3.710  13.297  0.00  0.00    +0.000 A 
ATOM      6  C   UNL     1       5.911   3.185  14.488  0.00  0.00    +0.000 A 
ATOM      7  C   UNL     1       5.939   3.958  15.648  0.00  0.00    +0.000 A 
ATOM      8  O   UNL     1       5.399   3.380  16.764  0.00  0.00    +0.000 OA
ATOM      9  C   UNL     1       5.728   4.017  18.001  0.00  0.00    +0.000 C 
ATOM     10  C   UNL     1       5.525   5.540  17.979  0.00  0.00    +0.000 C 
ENDROOT
BRANCH   1  12
ATOM     11  C   UNL     1       7.925   7.918  17.560  0.00  0.00    +0.000 C 
ATOM     12  O   UNL     1       7.720   6.538  17.283  0.00  0.00    +0.000 OA
ENDBRANCH   1  12
BRANCH   5  13
ATOM     13  O   UNL     1       6.342   2.923  12.184  0.00  0.00    +0.000 OA
ATOM     14  H   UNL     1       6.070   2.029  12.447  0.00  0.00    +0.000 HD
ENDBRANCH   5  13
BRANCH  10  15
ATOM     15  O   UNL     1       5.936   6.115  19.238  0.00  0.00    +0.000 OA
ATOM     16  H   UNL     1       6.798   6.551  19.083  0.00  0.00    +0.000 HD
ENDBRANCH  10  15
BRANCH  10  17
ATOM     17  C   UNL     1       4.026   5.902  17.716  0.00  0.00    +0.000 C 
BRANCH  17  18
ATOM     18  C   UNL     1       3.016   5.154  18.565  0.00  0.00    +0.000 A 
ATOM     19  C   UNL     1       2.844   5.478  19.922  0.00  0.00    +0.000 A 
ATOM     20  C   UNL     1       1.974   4.740  20.733  0.00  0.00    +0.000 A 
ATOM     21  C   UNL     1       1.261   3.690  20.179  0.00  0.00    +0.000 A 
ATOM     22  C   UNL     1       1.385   3.394  18.822  0.00  0.00    +0.000 A 
ATOM     23  C   UNL     1       2.253   4.115  18.013  0.00  0.00    +0.000 A 
BRANCH  21  24
ATOM     24  O   UNL     1       0.428   2.907  20.930  0.00  0.00    +0.000 OA
ATOM     25  H   UNL     1      -0.351   3.442  21.161  0.00  0.00    +0.000 HD
ENDBRANCH  21  24
BRANCH  22  26
ATOM     26  O   UNL     1       0.656   2.371  18.281  0.00  0.00    +0.000 OA
ATOM     27  H   UNL     1       0.797   1.624  18.897  0.00  0.00    +0.000 HD
ENDBRANCH  22  26
ENDBRANCH  17  18
ENDBRANCH  10  17
TORSDOF 7
ENDMDL
MODEL 5
REMARK VINA RESULT:      -6.3      1.462      5.249
REMARK  Name = 
REMARK  8 active torsions:
REMARK  status: ('A' for Active; 'I' for Inactive)
REMARK    1  A    between atoms: C_1  and  O_2
REMARK    2  A    between atoms: O_2  and  C_3
REMARK    3  A    between atoms: C_7  and  O_8
REMARK    4  A    between atoms: C_13  and  O_14
REMARK    5  A    between atoms: C_13  and  C_15
REMARK    6  A    between atoms: C_15  and  C_16
REMARK    7  A    between atoms: C_19  and  O_20
REMARK    8  A    between atoms: C_21  and  O_22
REMARK                            x       y       z     vdW  Elec       q    Type
REMARK                         _______ _______ _______ _____ _____    ______ ____
ROOT
ATOM      1  C   UNL     1       2.807   4.436  18.038  0.00  0.00    +0.000 C 
ATOM      2  C   UNL     1       2.384   5.799  18.515  0.00  0.00    +0.000 A 
ATOM      3  C   UNL     1       2.025   6.790  17.587  0.00  0.00    +0.000 A 
ATOM      4  C   UNL     1       1.696   8.076  18.015  0.00  0.00    +0.000 A 
ATOM      5  C   UNL     1       1.723   8.369  19.374  0.00  0.00    +0.000 A 
ATOM      6  C   UNL     1       2.063   7.396  20.307  0.00  0.00    +0.000 A 
ATOM      7  C   UNL     1       2.386   6.109  19.880  0.00  0.00    +0.000 A 
ATOM      8  O   UNL     1       2.751   5.228  20.861  0.00  0.00    +0.000 OA
ATOM      9  C   UNL     1       2.749   3.851  20.475  0.00  0.00    +0.000 C 
ATOM     10  C   UNL     1       3.484   3.585  19.152  0.00  0.00    +0.000 C 
ENDROOT
BRANCH   1  12
ATOM     11  C   UNL     1       0.600   3.366  18.087  0.00  0.00    +0.000 C 
ATOM     12  O   UNL     1       1.754   3.733  17.339  0.00  0.00    +0.000 OA
ENDBRANCH   1  12
BRANCH   5  13
ATOM     13  O   UNL     1       1.425   9.618  19.836  0.00  0.00    +0.000 OA
ATOM     14  H   UNL     1       0.574   9.896  19.461  0.00  0.00    +0.000 HD
ENDBRANCH   5  13
BRANCH  10  15
ATOM     15  O   UNL     1       3.385   2.188  18.801  0.00  0.00    +0.000 OA
ATOM     16  H   UNL     1       3.084   1.714  19.603  0.00  0.00    +0.000 HD
ENDBRANCH  10  15
BRANCH  10  17
ATOM     17  C   UNL     1       4.993   3.980  19.259  0.00  0.00    +0.000 C 
BRANCH  17  18
ATOM     18  C   UNL     1       5.642   4.429  17.962  0.00  0.00    +0.000 A 
ATOM     19  C   UNL     1       5.531   3.645  16.800  0.00  0.00    +0.000 A 
ATOM     20  C   UNL     1       6.194   4.008  15.623  0.00  0.00    +0.000 A 
ATOM     21  C   UNL     1       6.952   5.167  15.604  0.00  0.00    +0.000 A 
ATOM     22  C   UNL     1       7.026   5.978  16.735  0.00  0.00    +0.000 A 
ATOM     23  C   UNL     1       6.379   5.620  17.910  0.00  0.00    +0.000 A 
BRANCH  21  24
ATOM     24  O   UNL     1       7.656   5.552  14.495  0.00  0.00    +0.000 OA
ATOM     25  H   UNL     1       8.191   4.792  14.207  0.00  0.00    +0.000 HD
ENDBRANCH  21  24
BRANCH  22  26
ATOM     26  O   UNL     1       7.755   7.134  16.696  0.00  0.00    +0.000 OA
ATOM     27  H   UNL     1       8.568   6.921  17.198  0.00  0.00    +0.000 HD
ENDBRANCH  22  26
ENDBRANCH  17  18
ENDBRANCH  10  17
TORSDOF 7
ENDMDL
MODEL 6
REMARK VINA RESULT:      -6.3      2.157      4.392
REMARK  Name = 
REMARK  8 active torsions:
REMARK  status: ('A' for Active; 'I' for Inactive)
REMARK    1  A    between atoms: C_1  and  O_2
REMARK    2  A    between atoms: O_2  and  C_3
REMARK    3  A    between atoms: C_7  and  O_8
REMARK    4  A    between atoms: C_13  and  O_14
REMARK    5  A    between atoms: C_13  and  C_15
REMARK    6  A    between atoms: C_15  and  C_16
REMARK    7  A    between atoms: C_19  and  O_20
REMARK    8  A    between atoms: C_21  and  O_22
REMARK                            x       y       z     vdW  Elec       q    Type
REMARK                         _______ _______ _______ _____ _____    ______ ____
ROOT
ATOM      1  C   UNL     1       4.785   5.557  17.635  0.00  0.00    +0.000 C 
ATOM      2  C   UNL     1       5.453   5.217  16.330  0.00  0.00    +0.000 A 
ATOM      3  C   UNL     1       4.707   5.202  15.140  0.00  0.00    +0.000 A 
ATOM      4  C   UNL     1       5.302   4.823  13.937  0.00  0.00    +0.000 A 
ATOM      5  C   UNL     1       6.644   4.462  13.924  0.00  0.00    +0.000 A 
ATOM      6  C   UNL     1       7.400   4.484  15.091  0.00  0.00    +0.000 A 
ATOM      7  C   UNL     1       6.808   4.869  16.293  0.00  0.00    +0.000 A 
ATOM      8  O   UNL     1       7.613   4.819  17.398  0.00  0.00    +0.000 OA
ATOM      9  C   UNL     1       7.121   5.522  18.543  0.00  0.00    +0.000 C 
ATOM     10  C   UNL     1       5.656   5.202  18.876  0.00  0.00    +0.000 C 
ENDROOT
BRANCH   1  12
ATOM     11  C   UNL     1       2.875   7.070  17.917  0.00  0.00    +0.000 C 
ATOM     12  O   UNL     1       4.266   6.907  17.665  0.00  0.00    +0.000 OA
ENDBRANCH   1  12
BRANCH   5  13
ATOM     13  O   UNL     1       7.262   4.068  12.773  0.00  0.00    +0.000 OA
ATOM     14  H   UNL     1       7.752   3.248  12.946  0.00  0.00    +0.000 HD
ENDBRANCH   5  13
BRANCH  10  15
ATOM     15  O   UNL     1       5.217   5.995  20.000  0.00  0.00    +0.000 OA
ATOM     16  H   UNL     1       4.319   6.319  19.785  0.00  0.00    +0.000 HD
ENDBRANCH  10  15
BRANCH  10  17
ATOM     17  C   UNL     1       5.476   3.687  19.216  0.00  0.00    +0.000 C 
BRANCH  17  18
ATOM     18  C   UNL     1       4.070   3.142  19.040  0.00  0.00    +0.000 A 
ATOM     19  C   UNL     1       3.717   2.443  17.872  0.00  0.00    +0.000 A 
ATOM     20  C   UNL     1       2.403   2.008  17.665  0.00  0.00    +0.000 A 
ATOM     21  C   UNL     1       1.448   2.255  18.637  0.00  0.00    +0.000 A 
ATOM     22  C   UNL     1       1.800   2.900  19.822  0.00  0.00    +0.000 A 
ATOM     23  C   UNL     1       3.099   3.344  20.031  0.00  0.00    +0.000 A 
BRANCH  21  24
ATOM     24  O   UNL     1       0.139   1.891  18.473  0.00  0.00    +0.000 OA
ATOM     25  H   UNL     1      -0.177   2.292  17.646  0.00  0.00    +0.000 HD
ENDBRANCH  21  24
BRANCH  22  26
ATOM     26  O   UNL     1       0.855   3.115  20.786  0.00  0.00    +0.000 OA
ATOM     27  H   UNL     1       1.253   2.742  21.599  0.00  0.00    +0.000 HD
ENDBRANCH  22  26
ENDBRANCH  17  18
ENDBRANCH  10  17
TORSDOF 7
ENDMDL
MODEL 7
REMARK VINA RESULT:      -6.2      2.141      2.934
REMARK  Name = 
REMARK  8 active torsions:
REMARK  status: ('A' for Active; 'I' for Inactive)
REMARK    1  A    between atoms: C_1  and  O_2
REMARK    2  A    between atoms: O_2  and  C_3
REMARK    3  A    between atoms: C_7  and  O_8
REMARK    4  A    between atoms: C_13  and  O_14
REMARK    5  A    between atoms: C_13  and  C_15
REMARK    6  A    between atoms: C_15  and  C_16
REMARK    7  A    between atoms: C_19  and  O_20
REMARK    8  A    between atoms: C_21  and  O_22
REMARK                            x       y       z     vdW  Elec       q    Type
REMARK                         _______ _______ _______ _____ _____    ______ ____
ROOT
ATOM      1  C   UNL     1       3.599   4.689  19.603  0.00  0.00    +0.000 C 
ATOM      2  C   UNL     1       4.649   4.999  18.570  0.00  0.00    +0.000 A 
ATOM      3  C   UNL     1       5.927   4.424  18.670  0.00  0.00    +0.000 A 
ATOM      4  C   UNL     1       6.927   4.757  17.756  0.00  0.00    +0.000 A 
ATOM      5  C   UNL     1       6.647   5.665  16.741  0.00  0.00    +0.000 A 
ATOM      6  C   UNL     1       5.384   6.233  16.620  0.00  0.00    +0.000 A 
ATOM      7  C   UNL     1       4.383   5.896  17.530  0.00  0.00    +0.000 A 
ATOM      8  O   UNL     1       3.185   6.536  17.363  0.00  0.00    +0.000 OA
ATOM      9  C   UNL     1       2.080   5.954  18.062  0.00  0.00    +0.000 C 
ATOM     10  C   UNL     1       2.379   5.653  19.538  0.00  0.00    +0.000 C 
ENDROOT
BRANCH   1  12
ATOM     11  C   UNL     1       3.504   2.555  20.809  0.00  0.00    +0.000 C 
ATOM     12  O   UNL     1       3.227   3.292  19.623  0.00  0.00    +0.000 OA
ENDBRANCH   1  12
BRANCH   5  13
ATOM     13  O   UNL     1       7.599   6.032  15.836  0.00  0.00    +0.000 OA
ATOM     14  H   UNL     1       8.103   5.245  15.574  0.00  0.00    +0.000 HD
ENDBRANCH   5  13
BRANCH  10  15
ATOM     15  O   UNL     1       1.242   5.012  20.155  0.00  0.00    +0.000 OA
ATOM     16  H   UNL     1       0.488   5.120  19.541  0.00  0.00    +0.000 HD
ENDBRANCH  10  15
BRANCH  10  17
ATOM     17  C   UNL     1       2.715   6.964  20.321  0.00  0.00    +0.000 C 
BRANCH  17  18
ATOM     18  C   UNL     1       1.682   8.071  20.213  0.00  0.00    +0.000 A 
ATOM     19  C   UNL     1       0.747   8.277  21.243  0.00  0.00    +0.000 A 
ATOM     20  C   UNL     1      -0.260   9.240  21.117  0.00  0.00    +0.000 A 
ATOM     21  C   UNL     1      -0.317  10.011  19.968  0.00  0.00    +0.000 A 
ATOM     22  C   UNL     1       0.637   9.851  18.964  0.00  0.00    +0.000 A 
ATOM     23  C   UNL     1       1.633   8.891  19.078  0.00  0.00    +0.000 A 
BRANCH  21  24
ATOM     24  O   UNL     1      -1.303  10.940  19.770  0.00  0.00    +0.000 OA
ATOM     25  H   UNL     1      -1.109  11.403  18.937  0.00  0.00    +0.000 HD
ENDBRANCH  21  24
BRANCH  22  26
ATOM     26  O   UNL     1       0.586  10.637  17.846  0.00  0.00    +0.000 OA
ATOM     27  H   UNL     1      -0.280  10.424  17.443  0.00  0.00    +0.000 HD
ENDBRANCH  22  26
ENDBRANCH  17  18
ENDBRANCH  10  17
TORSDOF 7
ENDMDL
MODEL 8
REMARK VINA RESULT:      -6.2      1.964      5.454
REMARK  Name = 
REMARK  8 active torsions:
REMARK  status: ('A' for Active; 'I' for Inactive)
REMARK    1  A    between atoms: C_1  and  O_2
REMARK    2  A    between atoms: O_2  and  C_3
REMARK    3  A    between atoms: C_7  and  O_8
REMARK    4  A    between atoms: C_13  and  O_14
REMARK    5  A    between atoms: C_13  and  C_15
REMARK    6  A    between atoms: C_15  and  C_16
REMARK    7  A    between atoms: C_19  and  O_20
REMARK    8  A    between atoms: C_21  and  O_22
REMARK                            x       y       z     vdW  Elec       q    Type
REMARK                         _______ _______ _______ _____ _____    ______ ____
ROOT
ATOM      1  C   UNL     1       3.230   5.100  18.042  0.00  0.00    +0.000 C 
ATOM      2  C   UNL     1       2.671   4.337  19.213  0.00  0.00    +0.000 A 
ATOM      3  C   UNL     1       2.405   4.999  20.423  0.00  0.00    +0.000 A 
ATOM      4  C   UNL     1       1.950   4.289  21.534  0.00  0.00    +0.000 A 
ATOM      5  C   UNL     1       1.759   2.915  21.433  0.00  0.00    +0.000 A 
ATOM      6  C   UNL     1       2.005   2.247  20.239  0.00  0.00    +0.000 A 
ATOM      7  C   UNL     1       2.454   2.957  19.127  0.00  0.00    +0.000 A 
ATOM      8  O   UNL     1       2.713   2.213  18.008  0.00  0.00    +0.000 OA
ATOM      9  C   UNL     1       2.840   2.961  16.795  0.00  0.00    +0.000 C 
ATOM     10  C   UNL     1       3.776   4.173  16.917  0.00  0.00    +0.000 C 
ENDROOT
BRANCH   1  12
ATOM     11  C   UNL     1       2.664   7.477  17.838  0.00  0.00    +0.000 C 
ATOM     12  O   UNL     1       2.331   6.123  17.557  0.00  0.00    +0.000 OA
ENDBRANCH   1  12
BRANCH   5  13
ATOM     13  O   UNL     1       1.332   2.179  22.499  0.00  0.00    +0.000 OA
ATOM     14  H   UNL     1       1.620   1.260  22.379  0.00  0.00    +0.000 HD
ENDBRANCH   5  13
BRANCH  10  15
ATOM     15  O   UNL     1       3.803   4.908  15.675  0.00  0.00    +0.000 OA
ATOM     16  H   UNL     1       3.686   5.852  15.902  0.00  0.00    +0.000 HD
ENDBRANCH  10  15
BRANCH  10  17
ATOM     17  C   UNL     1       5.230   3.725  17.278  0.00  0.00    +0.000 C 
BRANCH  17  18
ATOM     18  C   UNL     1       6.145   4.824  17.785  0.00  0.00    +0.000 A 
ATOM     19  C   UNL     1       6.438   5.938  16.978  0.00  0.00    +0.000 A 
ATOM     20  C   UNL     1       7.344   6.916  17.403  0.00  0.00    +0.000 A 
ATOM     21  C   UNL     1       7.940   6.789  18.647  0.00  0.00    +0.000 A 
ATOM     22  C   UNL     1       7.616   5.717  19.477  0.00  0.00    +0.000 A 
ATOM     23  C   UNL     1       6.726   4.737  19.057  0.00  0.00    +0.000 A 
BRANCH  21  24
ATOM     24  O   UNL     1       8.864   7.691  19.100  0.00  0.00    +0.000 OA
ATOM     25  H   UNL     1       8.413   8.288  19.722  0.00  0.00    +0.000 HD
ENDBRANCH  21  24
BRANCH  22  26
ATOM     26  O   UNL     1       8.192   5.616  20.713  0.00  0.00    +0.000 OA
ATOM     27  H   UNL     1       8.149   4.660  20.919  0.00  0.00    +0.000 HD
ENDBRANCH  22  26
ENDBRANCH  17  18
ENDBRANCH  10  17
TORSDOF 7
ENDMDL
MODEL 9
REMARK VINA RESULT:      -6.2      2.029      3.032
REMARK  Name = 
REMARK  8 active torsions:
REMARK  status: ('A' for Active; 'I' for Inactive)
REMARK    1  A    between atoms: C_1  and  O_2
REMARK    2  A    between atoms: O_2  and  C_3
REMARK    3  A    between atoms: C_7  and  O_8
REMARK    4  A    between atoms: C_13  and  O_14
REMARK    5  A    between atoms: C_13  and  C_15
REMARK    6  A    between atoms: C_15  and  C_16
REMARK    7  A    between atoms: C_19  and  O_20
REMARK    8  A    between atoms: C_21  and  O_22
REMARK                            x       y       z     vdW  Elec       q    Type
REMARK                         _______ _______ _______ _____ _____    ______ ____
ROOT
ATOM      1  C   UNL     1       3.827   4.525  19.353  0.00  0.00    +0.000 C 
ATOM      2  C   UNL     1       4.842   4.860  18.293  0.00  0.00    +0.000 A 
ATOM      3  C   UNL     1       6.125   4.290  18.341  0.00  0.00    +0.000 A 
ATOM      4  C   UNL     1       7.093   4.646  17.402  0.00  0.00    +0.000 A 
ATOM      5  C   UNL     1       6.776   5.570  16.412  0.00  0.00    +0.000 A 
ATOM      6  C   UNL     1       5.506   6.133  16.343  0.00  0.00    +0.000 A 
ATOM      7  C   UNL     1       4.537   5.774  17.277  0.00  0.00    +0.000 A 
ATOM      8  O   UNL     1       3.330   6.409  17.161  0.00  0.00    +0.000 OA
ATOM      9  C   UNL     1       2.253   5.808  17.884  0.00  0.00    +0.000 C 
ATOM     10  C   UNL     1       2.600   5.483  19.345  0.00  0.00    +0.000 C 
ENDROOT
BRANCH   1  12
ATOM     11  C   UNL     1       3.972   2.320  20.416  0.00  0.00    +0.000 C 
ATOM     12  O   UNL     1       3.463   3.125  19.360  0.00  0.00    +0.000 OA
ENDBRANCH   1  12
BRANCH   5  13
ATOM     13  O   UNL     1       7.696   5.959  15.484  0.00  0.00    +0.000 OA
ATOM     14  H   UNL     1       8.441   6.383  15.940  0.00  0.00    +0.000 HD
ENDBRANCH   5  13
BRANCH  10  15
ATOM     15  O   UNL     1       1.487   4.824  19.986  0.00  0.00    +0.000 OA
ATOM     16  H   UNL     1       1.373   3.961  19.541  0.00  0.00    +0.000 HD
ENDBRANCH  10  15
BRANCH  10  17
ATOM     17  C   UNL     1       2.954   6.782  20.140  0.00  0.00    +0.000 C 
BRANCH  17  18
ATOM     18  C   UNL     1       1.844   7.813  20.232  0.00  0.00    +0.000 A 
ATOM     19  C   UNL     1       1.651   8.747  19.199  0.00  0.00    +0.000 A 
ATOM     20  C   UNL     1       0.684   9.752  19.311  0.00  0.00    +0.000 A 
ATOM     21  C   UNL     1      -0.103   9.809  20.449  0.00  0.00    +0.000 A 
ATOM     22  C   UNL     1       0.045   8.856  21.455  0.00  0.00    +0.000 A 
ATOM     23  C   UNL     1       1.009   7.861  21.356  0.00  0.00    +0.000 A 
BRANCH  21  24
ATOM     24  O   UNL     1      -1.036  10.793  20.634  0.00  0.00    +0.000 OA
ATOM     25  H   UNL     1      -1.684  10.724  19.913  0.00  0.00    +0.000 HD
ENDBRANCH  21  24
BRANCH  22  26
ATOM     26  O   UNL     1      -0.756   8.906  22.563  0.00  0.00    +0.000 OA
ATOM     27  H   UNL     1      -1.664   8.937  22.200  0.00  0.00    +0.000 HD
ENDBRANCH  22  26
ENDBRANCH  17  18
ENDBRANCH  10  17
TORSDOF 7
ENDMDL
