MODEL 1
REMARK VINA RESULT:      -6.6      0.000      0.000
REMARK  Name = 
REMARK  5 active torsions:
REMARK  status: ('A' for Active; 'I' for Inactive)
REMARK    1  A    between atoms: C_1  and  O_2
REMARK    2  A    between atoms: O_2  and  C_3
REMARK    3  A    between atoms: C_3  and  C_4
REMARK    4  A    between atoms: C_4  and  C_5
REMARK    5  A    between atoms: C_5  and  N_6
REMARK                            x       y       z     vdW  Elec       q    Type
REMARK                         _______ _______ _______ _____ _____    ______ ____
ROOT
ATOM      1  N   UNL     1       3.417   2.683  18.585  0.00  0.00    +0.000 N 
ATOM      2  C   UNL     1       4.460   2.567  19.518  0.00  0.00    +0.000 A 
ATOM      3  S   UNL     1       4.654   1.359  20.670  0.00  0.00    +0.000 S 
ATOM      4  N   UNL     1       5.436   3.539  19.503  0.00  0.00    +0.000 N 
ATOM      5  C   UNL     1       5.432   4.589  18.610  0.00  0.00    +0.000 A 
ATOM      6  C   UNL     1       4.395   4.696  17.733  0.00  0.00    +0.000 A 
ATOM      7  S   UNL     1       4.545   6.016  16.690  0.00  0.00    +0.000 S 
ATOM      8  C   UNL     1       6.023   6.506  17.431  0.00  0.00    +0.000 A 
ATOM      9  C   UNL     1       6.800   7.626  17.082  0.00  0.00    +0.000 A 
ATOM     10  C   UNL     1       7.968   7.885  17.799  0.00  0.00    +0.000 A 
ATOM     11  C   UNL     1       8.361   7.047  18.834  0.00  0.00    +0.000 A 
ATOM     12  C   UNL     1       7.589   5.930  19.175  0.00  0.00    +0.000 A 
ATOM     13  C   UNL     1       6.393   5.642  18.471  0.00  0.00    +0.000 A 
ATOM     14  C   UNL     1       3.289   3.781  17.696  0.00  0.00    +0.000 A 
ATOM     15  O   UNL     1       2.310   3.946  16.973  0.00  0.00    +0.000 OA
ATOM     16  H   UNL     1       6.193   3.462  20.174  0.00  0.00    +0.000 HD
ENDROOT
BRANCH   1  17
ATOM     17  C   UNL     1       2.301   1.719  18.520  0.00  0.00    +0.000 C 
BRANCH  17  18
ATOM     18  C   UNL     1       0.990   2.286  19.087  0.00  0.00    +0.000 C 
BRANCH  18  19
ATOM     19  C   UNL     1       1.190   2.907  20.466  0.00  0.00    +0.000 C 
BRANCH  19  21
ATOM     20  C   UNL     1       1.926   5.109  20.883  0.00  0.00    +0.000 C 
ATOM     21  O   UNL     1       0.867   4.293  20.407  0.00  0.00    +0.000 OA
ENDBRANCH  19  21
ENDBRANCH  18  19
ENDBRANCH  17  18
ENDBRANCH   1  17
TORSDOF 4
ENDMDL
MODEL 2
REMARK VINA RESULT:      -6.6      4.397      6.538
REMARK  Name = 
REMARK  5 active torsions:
REMARK  status: ('A' for Active; 'I' for Inactive)
REMARK    1  A    between atoms: C_1  and  O_2
REMARK    2  A    between atoms: O_2  and  C_3
REMARK    3  A    between atoms: C_3  and  C_4
REMARK    4  A    between atoms: C_4  and  C_5
REMARK    5  A    between atoms: C_5  and  N_6
REMARK                            x       y       z     vdW  Elec       q    Type
REMARK                         _______ _______ _______ _____ _____    ______ ____
ROOT
ATOM      1  N   UNL     1       2.726   6.609  18.820  0.00  0.00    +0.000 N 
ATOM      2  C   UNL     1       2.298   6.080  20.048  0.00  0.00    +0.000 A 
ATOM      3  S   UNL     1       2.578   4.530  20.634  0.00  0.00    +0.000 S 
ATOM      4  N   UNL     1       1.566   6.906  20.874  0.00  0.00    +0.000 N 
ATOM      5  C   UNL     1       1.264   8.211  20.549  0.00  0.00    +0.000 A 
ATOM      6  C   UNL     1       1.667   8.692  19.339  0.00  0.00    +0.000 A 
ATOM      7  S   UNL     1       1.244  10.309  19.098  0.00  0.00    +0.000 S 
ATOM      8  C   UNL     1       0.462  10.394  20.632  0.00  0.00    +0.000 A 
ATOM      9  C   UNL     1      -0.193  11.515  21.175  0.00  0.00    +0.000 A 
ATOM     10  C   UNL     1      -0.786  11.405  22.432  0.00  0.00    +0.000 A 
ATOM     11  C   UNL     1      -0.725  10.211  23.140  0.00  0.00    +0.000 A 
ATOM     12  C   UNL     1      -0.066   9.100  22.600  0.00  0.00    +0.000 A 
ATOM     13  C   UNL     1       0.542   9.176  21.322  0.00  0.00    +0.000 A 
ATOM     14  C   UNL     1       2.378   7.908  18.369  0.00  0.00    +0.000 A 
ATOM     15  O   UNL     1       2.644   8.319  17.243  0.00  0.00    +0.000 OA
ATOM     16  H   UNL     1       1.253   6.532  21.764  0.00  0.00    +0.000 HD
ENDROOT
BRANCH   1  17
ATOM     17  C   UNL     1       3.493   5.815  17.840  0.00  0.00    +0.000 C 
BRANCH  17  18
ATOM     18  C   UNL     1       5.011   5.884  18.074  0.00  0.00    +0.000 C 
BRANCH  18  19
ATOM     19  C   UNL     1       5.598   4.514  18.394  0.00  0.00    +0.000 C 
BRANCH  19  21
ATOM     20  C   UNL     1       7.434   5.950  18.760  0.00  0.00    +0.000 C 
ATOM     21  O   UNL     1       7.016   4.622  18.485  0.00  0.00    +0.000 OA
ENDBRANCH  19  21
ENDBRANCH  18  19
ENDBRANCH  17  18
ENDBRANCH   1  17
TORSDOF 4
ENDMDL
MODEL 3
REMARK VINA RESULT:      -6.5      4.458      6.648
REMARK  Name = 
REMARK  5 active torsions:
REMARK  status: ('A' for Active; 'I' for Inactive)
REMARK    1  A    between atoms: C_1  and  O_2
REMARK    2  A    between atoms: O_2  and  C_3
REMARK    3  A    between atoms: C_3  and  C_4
REMARK    4  A    between atoms: C_4  and  C_5
REMARK    5  A    between atoms: C_5  and  N_6
REMARK                            x       y       z     vdW  Elec       q    Type
REMARK                         _______ _______ _______ _____ _____    ______ ____
ROOT
ATOM      1  N   UNL     1       2.643   6.805  18.777  0.00  0.00    +0.000 N 
ATOM      2  C   UNL     1       2.258   6.249  20.008  0.00  0.00    +0.000 A 
ATOM      3  S   UNL     1       2.583   4.697  20.563  0.00  0.00    +0.000 S 
ATOM      4  N   UNL     1       1.535   7.049  20.866  0.00  0.00    +0.000 N 
ATOM      5  C   UNL     1       1.199   8.353  20.569  0.00  0.00    +0.000 A 
ATOM      6  C   UNL     1       1.560   8.859  19.357  0.00  0.00    +0.000 A 
ATOM      7  S   UNL     1       1.101  10.471  19.151  0.00  0.00    +0.000 S 
ATOM      8  C   UNL     1       0.360  10.519  20.708  0.00  0.00    +0.000 A 
ATOM      9  C   UNL     1      -0.301  11.619  21.284  0.00  0.00    +0.000 A 
ATOM     10  C   UNL     1      -0.858  11.479  22.556  0.00  0.00    +0.000 A 
ATOM     11  C   UNL     1      -0.755  10.277  23.243  0.00  0.00    +0.000 A 
ATOM     12  C   UNL     1      -0.090   9.186  22.669  0.00  0.00    +0.000 A 
ATOM     13  C   UNL     1       0.481   9.293  21.377  0.00  0.00    +0.000 A 
ATOM     14  C   UNL     1       2.259   8.103  18.356  0.00  0.00    +0.000 A 
ATOM     15  O   UNL     1       2.487   8.536  17.230  0.00  0.00    +0.000 OA
ATOM     16  H   UNL     1       1.253   6.656  21.758  0.00  0.00    +0.000 HD
ENDROOT
BRANCH   1  17
ATOM     17  C   UNL     1       3.398   6.039  17.765  0.00  0.00    +0.000 C 
BRANCH  17  18
ATOM     18  C   UNL     1       4.919   6.109  17.977  0.00  0.00    +0.000 C 
BRANCH  18  19
ATOM     19  C   UNL     1       5.540   4.721  18.087  0.00  0.00    +0.000 C 
BRANCH  19  21
ATOM     20  C   UNL     1       5.967   4.005  15.879  0.00  0.00    +0.000 C 
ATOM     21  O   UNL     1       5.094   3.921  16.996  0.00  0.00    +0.000 OA
ENDBRANCH  19  21
ENDBRANCH  18  19
ENDBRANCH  17  18
ENDBRANCH   1  17
TORSDOF 4
ENDMDL
MODEL 4
REMARK VINA RESULT:      -6.5      3.225      3.993
REMARK  Name = 
REMARK  5 active torsions:
REMARK  status: ('A' for Active; 'I' for Inactive)
REMARK    1  A    between atoms: C_1  and  O_2
REMARK    2  A    between atoms: O_2  and  C_3
REMARK    3  A    between atoms: C_3  and  C_4
REMARK    4  A    between atoms: C_4  and  C_5
REMARK    5  A    between atoms: C_5  and  N_6
REMARK                            x       y       z     vdW  Elec       q    Type
REMARK                         _______ _______ _______ _____ _____    ______ ____
ROOT
ATOM      1  N   UNL     1       4.424   4.195  18.476  0.00  0.00    +0.000 N 
ATOM      2  C   UNL     1       3.751   3.366  17.563  0.00  0.00    +0.000 A 
ATOM      3  S   UNL     1       2.401   2.414  17.867  0.00  0.00    +0.000 S 
ATOM      4  N   UNL     1       4.238   3.316  16.274  0.00  0.00    +0.000 N 
ATOM      5  C   UNL     1       5.328   4.049  15.858  0.00  0.00    +0.000 A 
ATOM      6  C   UNL     1       5.980   4.824  16.769  0.00  0.00    +0.000 A 
ATOM      7  S   UNL     1       7.276   5.678  16.104  0.00  0.00    +0.000 S 
ATOM      8  C   UNL     1       7.007   4.987  14.547  0.00  0.00    +0.000 A 
ATOM      9  C   UNL     1       7.760   5.231  13.384  0.00  0.00    +0.000 A 
ATOM     10  C   UNL     1       7.409   4.573  12.205  0.00  0.00    +0.000 A 
ATOM     11  C   UNL     1       6.332   3.698  12.178  0.00  0.00    +0.000 A 
ATOM     12  C   UNL     1       5.580   3.462  13.336  0.00  0.00    +0.000 A 
ATOM     13  C   UNL     1       5.914   4.110  14.552  0.00  0.00    +0.000 A 
ATOM     14  C   UNL     1       5.606   4.907  18.153  0.00  0.00    +0.000 A 
ATOM     15  O   UNL     1       6.263   5.526  18.986  0.00  0.00    +0.000 OA
ATOM     16  H   UNL     1       3.757   2.720  15.608  0.00  0.00    +0.000 HD
ENDROOT
BRANCH   1  17
ATOM     17  C   UNL     1       4.013   4.312  19.889  0.00  0.00    +0.000 C 
BRANCH  17  18
ATOM     18  C   UNL     1       2.872   5.320  20.097  0.00  0.00    +0.000 C 
BRANCH  18  19
ATOM     19  C   UNL     1       1.663   4.678  20.767  0.00  0.00    +0.000 C 
BRANCH  19  21
ATOM     20  C   UNL     1       1.414   2.522  21.695  0.00  0.00    +0.000 C 
ATOM     21  O   UNL     1       2.111   3.758  21.759  0.00  0.00    +0.000 OA
ENDBRANCH  19  21
ENDBRANCH  18  19
ENDBRANCH  17  18
ENDBRANCH   1  17
TORSDOF 4
ENDMDL
MODEL 5
REMARK VINA RESULT:      -6.4      4.468      6.459
REMARK  Name = 
REMARK  5 active torsions:
REMARK  status: ('A' for Active; 'I' for Inactive)
REMARK    1  A    between atoms: C_1  and  O_2
REMARK    2  A    between atoms: O_2  and  C_3
REMARK    3  A    between atoms: C_3  and  C_4
REMARK    4  A    between atoms: C_4  and  C_5
REMARK    5  A    between atoms: C_5  and  N_6
REMARK                            x       y       z     vdW  Elec       q    Type
REMARK                         _______ _______ _______ _____ _____    ______ ____
ROOT
ATOM      1  N   UNL     1       2.569   6.774  18.990  0.00  0.00    +0.000 N 
ATOM      2  C   UNL     1       2.142   6.267  20.228  0.00  0.00    +0.000 A 
ATOM      3  S   UNL     1       2.429   4.732  20.846  0.00  0.00    +0.000 S 
ATOM      4  N   UNL     1       1.404   7.106  21.036  0.00  0.00    +0.000 N 
ATOM      5  C   UNL     1       1.095   8.402  20.683  0.00  0.00    +0.000 A 
ATOM      6  C   UNL     1       1.498   8.861  19.465  0.00  0.00    +0.000 A 
ATOM      7  S   UNL     1       1.067  10.470  19.189  0.00  0.00    +0.000 S 
ATOM      8  C   UNL     1       0.282  10.583  20.720  0.00  0.00    +0.000 A 
ATOM      9  C   UNL     1      -0.381  11.711  21.238  0.00  0.00    +0.000 A 
ATOM     10  C   UNL     1      -0.976  11.623  22.497  0.00  0.00    +0.000 A 
ATOM     11  C   UNL     1      -0.909  10.445  23.229  0.00  0.00    +0.000 A 
ATOM     12  C   UNL     1      -0.243   9.326  22.713  0.00  0.00    +0.000 A 
ATOM     13  C   UNL     1       0.367   9.380  21.435  0.00  0.00    +0.000 A 
ATOM     14  C   UNL     1       2.215   8.061  18.513  0.00  0.00    +0.000 A 
ATOM     15  O   UNL     1       2.481   8.451  17.379  0.00  0.00    +0.000 OA
ATOM     16  H   UNL     1       1.091   6.749  21.932  0.00  0.00    +0.000 HD
ENDROOT
BRANCH   1  17
ATOM     17  C   UNL     1       3.343   5.963  18.028  0.00  0.00    +0.000 C 
BRANCH  17  18
ATOM     18  C   UNL     1       2.578   4.720  17.546  0.00  0.00    +0.000 C 
BRANCH  18  19
ATOM     19  C   UNL     1       3.516   3.549  17.273  0.00  0.00    +0.000 C 
BRANCH  19  21
ATOM     20  C   UNL     1       3.368   1.657  18.675  0.00  0.00    +0.000 C 
ATOM     21  O   UNL     1       2.832   2.329  17.545  0.00  0.00    +0.000 OA
ENDBRANCH  19  21
ENDBRANCH  18  19
ENDBRANCH  17  18
ENDBRANCH   1  17
TORSDOF 4
ENDMDL
MODEL 6
REMARK VINA RESULT:      -6.4      3.356      5.660
REMARK  Name = 
REMARK  5 active torsions:
REMARK  status: ('A' for Active; 'I' for Inactive)
REMARK    1  A    between atoms: C_1  and  O_2
REMARK    2  A    between atoms: O_2  and  C_3
REMARK    3  A    between atoms: C_3  and  C_4
REMARK    4  A    between atoms: C_4  and  C_5
REMARK    5  A    between atoms: C_5  and  N_6
REMARK                            x       y       z     vdW  Elec       q    Type
REMARK                         _______ _______ _______ _____ _____    ______ ____
ROOT
ATOM      1  N   UNL     1       4.062   5.184  18.384  0.00  0.00    +0.000 N 
ATOM      2  C   UNL     1       3.480   4.780  19.596  0.00  0.00    +0.000 A 
ATOM      3  S   UNL     1       3.723   3.325  20.399  0.00  0.00    +0.000 S 
ATOM      4  N   UNL     1       2.612   5.660  20.207  0.00  0.00    +0.000 N 
ATOM      5  C   UNL     1       2.316   6.901  19.686  0.00  0.00    +0.000 A 
ATOM      6  C   UNL     1       2.873   7.259  18.495  0.00  0.00    +0.000 A 
ATOM      7  S   UNL     1       2.437   8.814  18.002  0.00  0.00    +0.000 S 
ATOM      8  C   UNL     1       1.441   9.037  19.392  0.00  0.00    +0.000 A 
ATOM      9  C   UNL     1       0.679  10.180  19.698  0.00  0.00    +0.000 A 
ATOM     10  C   UNL     1      -0.084  10.187  20.866  0.00  0.00    +0.000 A 
ATOM     11  C   UNL     1      -0.086   9.089  21.715  0.00  0.00    +0.000 A 
ATOM     12  C   UNL     1       0.679   7.956  21.411  0.00  0.00    +0.000 A 
ATOM     13  C   UNL     1       1.461   7.913  20.230  0.00  0.00    +0.000 A 
ATOM     14  C   UNL     1       3.740   6.403  17.735  0.00  0.00    +0.000 A 
ATOM     15  O   UNL     1       4.151   6.694  16.615  0.00  0.00    +0.000 OA
ATOM     16  H   UNL     1       2.186   5.376  21.083  0.00  0.00    +0.000 HD
ENDROOT
BRANCH   1  17
ATOM     17  C   UNL     1       4.987   4.320  17.624  0.00  0.00    +0.000 C 
BRANCH  17  18
ATOM     18  C   UNL     1       6.463   4.680  17.854  0.00  0.00    +0.000 C 
BRANCH  18  19
ATOM     19  C   UNL     1       7.225   4.814  16.540  0.00  0.00    +0.000 C 
BRANCH  19  21
ATOM     20  C   UNL     1       7.484   6.963  17.481  0.00  0.00    +0.000 C 
ATOM     21  O   UNL     1       7.485   6.193  16.288  0.00  0.00    +0.000 OA
ENDBRANCH  19  21
ENDBRANCH  18  19
ENDBRANCH  17  18
ENDBRANCH   1  17
TORSDOF 4
ENDMDL
MODEL 7
REMARK VINA RESULT:      -6.4      4.735      6.477
REMARK  Name = 
REMARK  5 active torsions:
REMARK  status: ('A' for Active; 'I' for Inactive)
REMARK    1  A    between atoms: C_1  and  O_2
REMARK    2  A    between atoms: O_2  and  C_3
REMARK    3  A    between atoms: C_3  and  C_4
REMARK    4  A    between atoms: C_4  and  C_5
REMARK    5  A    between atoms: C_5  and  N_6
REMARK                            x       y       z     vdW  Elec       q    Type
REMARK                         _______ _______ _______ _____ _____    ______ ____
ROOT
ATOM      1  N   UNL     1       1.419   8.979  19.472  0.00  0.00    +0.000 N 
ATOM      2  C   UNL     1       1.113   8.491  20.753  0.00  0.00    +0.000 A 
ATOM      3  S   UNL     1       0.350   9.323  21.997  0.00  0.00    +0.000 S 
ATOM      4  N   UNL     1       1.473   7.191  21.039  0.00  0.00    +0.000 N 
ATOM      5  C   UNL     1       2.093   6.368  20.123  0.00  0.00    +0.000 A 
ATOM      6  C   UNL     1       2.403   6.874  18.897  0.00  0.00    +0.000 A 
ATOM      7  S   UNL     1       3.135   5.741  17.881  0.00  0.00    +0.000 S 
ATOM      8  C   UNL     1       3.080   4.525  19.103  0.00  0.00    +0.000 A 
ATOM      9  C   UNL     1       3.557   3.206  18.990  0.00  0.00    +0.000 A 
ATOM     10  C   UNL     1       3.444   2.353  20.087  0.00  0.00    +0.000 A 
ATOM     11  C   UNL     1       2.865   2.796  21.269  0.00  0.00    +0.000 A 
ATOM     12  C   UNL     1       2.385   4.107  21.376  0.00  0.00    +0.000 A 
ATOM     13  C   UNL     1       2.490   5.001  20.281  0.00  0.00    +0.000 A 
ATOM     14  C   UNL     1       2.138   8.230  18.506  0.00  0.00    +0.000 A 
ATOM     15  O   UNL     1       2.516   8.703  17.438  0.00  0.00    +0.000 OA
ATOM     16  H   UNL     1       1.255   6.830  21.962  0.00  0.00    +0.000 HD
ENDROOT
BRANCH   1  17
ATOM     17  C   UNL     1       1.108  10.361  19.057  0.00  0.00    +0.000 C 
BRANCH  17  18
ATOM     18  C   UNL     1      -0.248  10.478  18.344  0.00  0.00    +0.000 C 
BRANCH  18  19
ATOM     19  C   UNL     1      -1.264  11.247  19.182  0.00  0.00    +0.000 C 
BRANCH  19  21
ATOM     20  C   UNL     1      -2.742  10.093  17.750  0.00  0.00    +0.000 C 
ATOM     21  O   UNL     1      -2.510  11.281  18.492  0.00  0.00    +0.000 OA
ENDBRANCH  19  21
ENDBRANCH  18  19
ENDBRANCH  17  18
ENDBRANCH   1  17
TORSDOF 4
ENDMDL
MODEL 8
REMARK VINA RESULT:      -6.4      5.057      6.748
REMARK  Name = 
REMARK  5 active torsions:
REMARK  status: ('A' for Active; 'I' for Inactive)
REMARK    1  A    between atoms: C_1  and  O_2
REMARK    2  A    between atoms: O_2  and  C_3
REMARK    3  A    between atoms: C_3  and  C_4
REMARK    4  A    between atoms: C_4  and  C_5
REMARK    5  A    between atoms: C_5  and  N_6
REMARK                            x       y       z     vdW  Elec       q    Type
REMARK                         _______ _______ _______ _____ _____    ______ ____
ROOT
ATOM      1  N   UNL     1       1.419   9.033  19.452  0.00  0.00    +0.000 N 
ATOM      2  C   UNL     1       1.120   8.559  20.740  0.00  0.00    +0.000 A 
ATOM      3  S   UNL     1       0.383   9.412  21.985  0.00  0.00    +0.000 S 
ATOM      4  N   UNL     1       1.463   7.256  21.031  0.00  0.00    +0.000 N 
ATOM      5  C   UNL     1       2.060   6.417  20.115  0.00  0.00    +0.000 A 
ATOM      6  C   UNL     1       2.364   6.909  18.881  0.00  0.00    +0.000 A 
ATOM      7  S   UNL     1       3.067   5.757  17.866  0.00  0.00    +0.000 S 
ATOM      8  C   UNL     1       3.008   4.551  19.098  0.00  0.00    +0.000 A 
ATOM      9  C   UNL     1       3.463   3.224  18.989  0.00  0.00    +0.000 A 
ATOM     10  C   UNL     1       3.349   2.381  20.095  0.00  0.00    +0.000 A 
ATOM     11  C   UNL     1       2.790   2.842  21.279  0.00  0.00    +0.000 A 
ATOM     12  C   UNL     1       2.332   4.161  21.381  0.00  0.00    +0.000 A 
ATOM     13  C   UNL     1       2.438   5.045  20.279  0.00  0.00    +0.000 A 
ATOM     14  C   UNL     1       2.115   8.266  18.484  0.00  0.00    +0.000 A 
ATOM     15  O   UNL     1       2.488   8.725  17.408  0.00  0.00    +0.000 OA
ATOM     16  H   UNL     1       1.250   6.905  21.959  0.00  0.00    +0.000 HD
ENDROOT
BRANCH   1  17
ATOM     17  C   UNL     1       1.124  10.417  19.030  0.00  0.00    +0.000 C 
BRANCH  17  18
ATOM     18  C   UNL     1      -0.312  10.588  18.510  0.00  0.00    +0.000 C 
BRANCH  18  19
ATOM     19  C   UNL     1      -0.942  11.885  19.004  0.00  0.00    +0.000 C 
BRANCH  19  21
ATOM     20  C   UNL     1      -0.195  14.110  18.762  0.00  0.00    +0.000 C 
ATOM     21  O   UNL     1      -0.629  12.935  18.093  0.00  0.00    +0.000 OA
ENDBRANCH  19  21
ENDBRANCH  18  19
ENDBRANCH  17  18
ENDBRANCH   1  17
TORSDOF 4
ENDMDL
MODEL 9
REMARK VINA RESULT:      -6.2      3.644      5.289
REMARK  Name = 
REMARK  5 active torsions:
REMARK  status: ('A' for Active; 'I' for Inactive)
REMARK    1  A    between atoms: C_1  and  O_2
REMARK    2  A    between atoms: O_2  and  C_3
REMARK    3  A    between atoms: C_3  and  C_4
REMARK    4  A    between atoms: C_4  and  C_5
REMARK    5  A    between atoms: C_5  and  N_6
REMARK                            x       y       z     vdW  Elec       q    Type
REMARK                         _______ _______ _______ _____ _____    ______ ____
ROOT
ATOM      1  N   UNL     1       3.981   5.337  18.416  0.00  0.00    +0.000 N 
ATOM      2  C   UNL     1       4.174   6.322  17.433  0.00  0.00    +0.000 A 
ATOM      3  S   UNL     1       5.167   6.222  16.082  0.00  0.00    +0.000 S 
ATOM      4  N   UNL     1       3.483   7.506  17.579  0.00  0.00    +0.000 N 
ATOM      5  C   UNL     1       2.615   7.742  18.624  0.00  0.00    +0.000 A 
ATOM      6  C   UNL     1       2.466   6.781  19.578  0.00  0.00    +0.000 A 
ATOM      7  S   UNL     1       1.354   7.207  20.776  0.00  0.00    +0.000 S 
ATOM      8  C   UNL     1       1.064   8.740  20.042  0.00  0.00    +0.000 A 
ATOM      9  C   UNL     1       0.192   9.739  20.514  0.00  0.00    +0.000 A 
ATOM     10  C   UNL     1       0.087  10.932  19.799  0.00  0.00    +0.000 A 
ATOM     11  C   UNL     1       0.824  11.128  18.639  0.00  0.00    +0.000 A 
ATOM     12  C   UNL     1       1.686  10.129  18.169  0.00  0.00    +0.000 A 
ATOM     13  C   UNL     1       1.821   8.907  18.874  0.00  0.00    +0.000 A 
ATOM     14  C   UNL     1       3.180   5.536  19.569  0.00  0.00    +0.000 A 
ATOM     15  O   UNL     1       3.117   4.723  20.488  0.00  0.00    +0.000 OA
ATOM     16  H   UNL     1       3.616   8.223  16.874  0.00  0.00    +0.000 HD
ENDROOT
BRANCH   1  17
ATOM     17  C   UNL     1       4.684   4.039  18.383  0.00  0.00    +0.000 C 
BRANCH  17  18
ATOM     18  C   UNL     1       4.035   3.034  17.419  0.00  0.00    +0.000 C 
BRANCH  18  19
ATOM     19  C   UNL     1       3.118   2.058  18.149  0.00  0.00    +0.000 C 
BRANCH  19  21
ATOM     20  C   UNL     1       0.918   2.516  18.869  0.00  0.00    +0.000 C 
ATOM     21  O   UNL     1       1.770   2.297  17.754  0.00  0.00    +0.000 OA
ENDBRANCH  19  21
ENDBRANCH  18  19
ENDBRANCH  17  18
ENDBRANCH   1  17
TORSDOF 4
ENDMDL
