MODEL 1
REMARK VINA RESULT:      -8.2      0.000      0.000
REMARK  Name = 
REMARK  7 active torsions:
REMARK  status: ('A' for Active; 'I' for Inactive)
REMARK    1  A    between atoms: C_1  and  C_2
REMARK    2  A    between atoms: C_3  and  C_4
REMARK    3  A    between atoms: C_10  and  N_11
REMARK    4  A    between atoms: C_10  and  C_28
REMARK    5  A    between atoms: N_11  and  S_12
REMARK    6  A    between atoms: S_12  and  N_15
REMARK    7  A    between atoms: C_28  and  O_30
REMARK                            x       y       z     vdW  Elec       q    Type
REMARK                         _______ _______ _______ _____ _____    ______ ____
ROOT
ATOM      1  N   UNL     1       3.431   5.360  17.418  0.00  0.00    +0.000 NA
ATOM      2  H   UNL     1       2.908   4.518  17.136  0.00  0.00    +0.000 HD
ENDROOT
BRANCH   1   6
ATOM      3  C   UNL     1       7.421   4.639  17.111  0.00  0.00    +0.000 C 
ATOM      4  C   UNL     1       5.959   4.261  17.154  0.00  0.00    +0.000 C 
ATOM      5  C   UNL     1       5.185   4.028  15.869  0.00  0.00    +0.000 C 
ATOM      6  C   UNL     1       4.861   5.246  16.771  0.00  0.00    +0.000 C 
BRANCH   5   7
ATOM      7  C   UNL     1       5.887   4.070  14.500  0.00  0.00    +0.000 A 
ATOM      8  C   UNL     1       5.347   3.421  13.366  0.00  0.00    +0.000 A 
ATOM      9  C   UNL     1       5.958   3.464  12.101  0.00  0.00    +0.000 A 
ATOM     10  C   UNL     1       7.135   4.182  11.927  0.00  0.00    +0.000 A 
ATOM     11  C   UNL     1       7.683   4.854  13.015  0.00  0.00    +0.000 A 
ATOM     12  C   UNL     1       7.061   4.809  14.274  0.00  0.00    +0.000 A 
ENDBRANCH   5   7
BRANCH   6  13
ATOM     13  C   UNL     1       5.314   6.668  16.448  0.00  0.00    +0.000 C 
ATOM     14  O   UNL     1       5.069   7.274  15.415  0.00  0.00    +0.000 OA
BRANCH  13  15
ATOM     15  O   UNL     1       6.029   7.216  17.466  0.00  0.00    +0.000 OA
ATOM     16  H   UNL     1       5.934   6.636  18.249  0.00  0.00    +0.000 HD
ENDBRANCH  13  15
ENDBRANCH   6  13
ENDBRANCH   1   6
BRANCH   1  17
ATOM     17  S   UNL     1       3.242   5.556  19.078  0.00  0.00    +0.000 S 
ATOM     18  O   UNL     1       2.261   4.591  19.494  0.00  0.00    +0.000 OA
ATOM     19  O   UNL     1       4.564   5.610  19.652  0.00  0.00    +0.000 OA
BRANCH  17  20
ATOM     20  N   UNL     1       2.546   7.079  19.237  0.00  0.00    +0.000 NA
ATOM     21  C   UNL     1       1.453   7.391  20.217  0.00  0.00    +0.000 C 
ATOM     22  C   UNL     1       1.387   8.924  20.587  0.00  0.00    +0.000 C 
ATOM     23  N   UNL     1       1.379   9.776  19.378  0.00  0.00    +0.000 N 
ATOM     24  C   UNL     1       1.581   9.042  18.215  0.00  0.00    +0.000 A 
ATOM     25  N   UNL     1       0.395   8.919  17.627  0.00  0.00    +0.000 NA
ATOM     26  C   UNL     1      -0.376   9.940  18.159  0.00  0.00    +0.000 A 
ATOM     27  C   UNL     1      -1.706  10.318  17.929  0.00  0.00    +0.000 A 
ATOM     28  C   UNL     1      -2.137  11.565  18.407  0.00  0.00    +0.000 A 
ATOM     29  C   UNL     1      -1.258  12.411  19.089  0.00  0.00    +0.000 A 
ATOM     30  C   UNL     1       0.014  11.966  19.484  0.00  0.00    +0.000 A 
ATOM     31  C   UNL     1       0.372  10.683  19.069  0.00  0.00    +0.000 A 
ATOM     32  C   UNL     1       2.760   8.111  18.198  0.00  0.00    +0.000 C 
ENDBRANCH  17  20
ENDBRANCH   1  17
TORSDOF 6
ENDMDL
MODEL 2
REMARK VINA RESULT:      -7.4      3.766      9.801
REMARK  Name = 
REMARK  7 active torsions:
REMARK  status: ('A' for Active; 'I' for Inactive)
REMARK    1  A    between atoms: C_1  and  C_2
REMARK    2  A    between atoms: C_3  and  C_4
REMARK    3  A    between atoms: C_10  and  N_11
REMARK    4  A    between atoms: C_10  and  C_28
REMARK    5  A    between atoms: N_11  and  S_12
REMARK    6  A    between atoms: S_12  and  N_15
REMARK    7  A    between atoms: C_28  and  O_30
REMARK                            x       y       z     vdW  Elec       q    Type
REMARK                         _______ _______ _______ _____ _____    ______ ____
ROOT
ATOM      1  N   UNL     1       1.095  10.127  19.677  0.00  0.00    +0.000 NA
ATOM      2  H   UNL     1       0.489   9.419  20.117  0.00  0.00    +0.000 HD
ENDROOT
BRANCH   1   6
ATOM      3  C   UNL     1      -0.668  13.619  18.569  0.00  0.00    +0.000 C 
ATOM      4  C   UNL     1      -0.606  12.128  18.798  0.00  0.00    +0.000 C 
ATOM      5  C   UNL     1      -1.177  11.518  20.066  0.00  0.00    +0.000 C 
ATOM      6  C   UNL     1       0.352  11.508  19.809  0.00  0.00    +0.000 C 
BRANCH   5   7
ATOM      7  C   UNL     1      -1.921  12.385  21.098  0.00  0.00    +0.000 A 
ATOM      8  C   UNL     1      -2.654  13.532  20.717  0.00  0.00    +0.000 A 
ATOM      9  C   UNL     1      -3.359  14.326  21.638  0.00  0.00    +0.000 A 
ATOM     10  C   UNL     1      -3.368  13.979  22.983  0.00  0.00    +0.000 A 
ATOM     11  C   UNL     1      -2.679  12.842  23.391  0.00  0.00    +0.000 A 
ATOM     12  C   UNL     1      -1.981  12.053  22.462  0.00  0.00    +0.000 A 
ENDBRANCH   5   7
BRANCH   6  13
ATOM     13  C   UNL     1       1.320  12.466  20.496  0.00  0.00    +0.000 C 
ATOM     14  O   UNL     1       1.216  12.883  21.641  0.00  0.00    +0.000 OA
BRANCH  13  15
ATOM     15  O   UNL     1       2.354  12.811  19.684  0.00  0.00    +0.000 OA
ATOM     16  H   UNL     1       2.146  12.497  18.780  0.00  0.00    +0.000 HD
ENDBRANCH  13  15
ENDBRANCH   6  13
ENDBRANCH   1   6
BRANCH   1  17
ATOM     17  S   UNL     1       1.574   9.538  18.175  0.00  0.00    +0.000 S 
ATOM     18  O   UNL     1       0.371   9.195  17.468  0.00  0.00    +0.000 OA
ATOM     19  O   UNL     1       2.543  10.466  17.647  0.00  0.00    +0.000 OA
BRANCH  17  20
ATOM     20  N   UNL     1       2.374   8.102  18.531  0.00  0.00    +0.000 NA
ATOM     21  C   UNL     1       3.144   7.310  17.515  0.00  0.00    +0.000 C 
ATOM     22  C   UNL     1       4.244   6.386  18.171  0.00  0.00    +0.000 C 
ATOM     23  N   UNL     1       3.685   5.575  19.275  0.00  0.00    +0.000 N 
ATOM     24  C   UNL     1       2.373   5.923  19.573  0.00  0.00    +0.000 A 
ATOM     25  N   UNL     1       1.597   4.982  19.046  0.00  0.00    +0.000 NA
ATOM     26  C   UNL     1       2.428   3.887  18.873  0.00  0.00    +0.000 A 
ATOM     27  C   UNL     1       2.185   2.605  18.362  0.00  0.00    +0.000 A 
ATOM     28  C   UNL     1       3.154   1.610  18.564  0.00  0.00    +0.000 A 
ATOM     29  C   UNL     1       4.330   1.892  19.265  0.00  0.00    +0.000 A 
ATOM     30  C   UNL     1       4.665   3.210  19.617  0.00  0.00    +0.000 A 
ATOM     31  C   UNL     1       3.715   4.187  19.315  0.00  0.00    +0.000 A 
ATOM     32  C   UNL     1       2.093   7.382  19.794  0.00  0.00    +0.000 C 
ENDBRANCH  17  20
ENDBRANCH   1  17
TORSDOF 6
ENDMDL
MODEL 3
REMARK VINA RESULT:      -7.3      6.330      8.990
REMARK  Name = 
REMARK  7 active torsions:
REMARK  status: ('A' for Active; 'I' for Inactive)
REMARK    1  A    between atoms: C_1  and  C_2
REMARK    2  A    between atoms: C_3  and  C_4
REMARK    3  A    between atoms: C_10  and  N_11
REMARK    4  A    between atoms: C_10  and  C_28
REMARK    5  A    between atoms: N_11  and  S_12
REMARK    6  A    between atoms: S_12  and  N_15
REMARK    7  A    between atoms: C_28  and  O_30
REMARK                            x       y       z     vdW  Elec       q    Type
REMARK                         _______ _______ _______ _____ _____    ______ ____
ROOT
ATOM      1  N   UNL     1       0.800  12.275  21.140  0.00  0.00    +0.000 NA
ATOM      2  H   UNL     1       1.825  12.297  21.247  0.00  0.00    +0.000 HD
ENDROOT
BRANCH   1   6
ATOM      3  C   UNL     1       1.008   9.412  18.260  0.00  0.00    +0.000 C 
ATOM      4  C   UNL     1       0.549  10.007  19.569  0.00  0.00    +0.000 C 
ATOM      5  C   UNL     1      -0.806  10.684  19.678  0.00  0.00    +0.000 C 
ATOM      6  C   UNL     1       0.498  11.514  19.796  0.00  0.00    +0.000 C 
BRANCH   5   7
ATOM      7  C   UNL     1      -1.786  10.691  18.490  0.00  0.00    +0.000 A 
ATOM      8  C   UNL     1      -2.912  11.545  18.460  0.00  0.00    +0.000 A 
ATOM      9  C   UNL     1      -3.808  11.586  17.378  0.00  0.00    +0.000 A 
ATOM     10  C   UNL     1      -3.590  10.775  16.271  0.00  0.00    +0.000 A 
ATOM     11  C   UNL     1      -2.478   9.941  16.254  0.00  0.00    +0.000 A 
ATOM     12  C   UNL     1      -1.586   9.911  17.339  0.00  0.00    +0.000 A 
ENDBRANCH   5   7
BRANCH   6  13
ATOM     13  C   UNL     1       1.039  12.384  18.665  0.00  0.00    +0.000 C 
ATOM     14  O   UNL     1       2.221  12.598  18.436  0.00  0.00    +0.000 OA
BRANCH  13  15
ATOM     15  O   UNL     1       0.040  12.903  17.902  0.00  0.00    +0.000 OA
ATOM     16  H   UNL     1      -0.438  13.565  18.441  0.00  0.00    +0.000 HD
ENDBRANCH  13  15
ENDBRANCH   6  13
ENDBRANCH   1   6
BRANCH   1  17
ATOM     17  S   UNL     1       0.216  13.829  21.408  0.00  0.00    +0.000 S 
ATOM     18  O   UNL     1       1.044  14.405  22.432  0.00  0.00    +0.000 OA
ATOM     19  O   UNL     1       0.045  14.446  20.115  0.00  0.00    +0.000 OA
BRANCH  17  20
ATOM     20  N   UNL     1      -1.310  13.589  22.072  0.00  0.00    +0.000 NA
ATOM     21  C   UNL     1      -1.854  12.236  22.426  0.00  0.00    +0.000 C 
ATOM     22  C   UNL     1      -2.985  12.304  23.525  0.00  0.00    +0.000 C 
ATOM     23  N   UNL     1      -4.021  13.302  23.179  0.00  0.00    +0.000 N 
ATOM     24  C   UNL     1      -3.682  14.044  22.055  0.00  0.00    +0.000 A 
ATOM     25  N   UNL     1      -4.400  13.565  21.045  0.00  0.00    +0.000 NA
ATOM     26  C   UNL     1      -5.462  12.904  21.643  0.00  0.00    +0.000 A 
ATOM     27  C   UNL     1      -6.546  12.202  21.100  0.00  0.00    +0.000 A 
ATOM     28  C   UNL     1      -7.618  11.872  21.944  0.00  0.00    +0.000 A 
ATOM     29  C   UNL     1      -7.605  12.242  23.292  0.00  0.00    +0.000 A 
ATOM     30  C   UNL     1      -6.450  12.778  23.884  0.00  0.00    +0.000 A 
ATOM     31  C   UNL     1      -5.370  13.006  23.029  0.00  0.00    +0.000 A 
ATOM     32  C   UNL     1      -2.317  14.674  22.045  0.00  0.00    +0.000 C 
ENDBRANCH  17  20
ENDBRANCH   1  17
TORSDOF 6
ENDMDL
MODEL 4
REMARK VINA RESULT:      -7.2      3.735      9.821
REMARK  Name = 
REMARK  7 active torsions:
REMARK  status: ('A' for Active; 'I' for Inactive)
REMARK    1  A    between atoms: C_1  and  C_2
REMARK    2  A    between atoms: C_3  and  C_4
REMARK    3  A    between atoms: C_10  and  N_11
REMARK    4  A    between atoms: C_10  and  C_28
REMARK    5  A    between atoms: N_11  and  S_12
REMARK    6  A    between atoms: S_12  and  N_15
REMARK    7  A    between atoms: C_28  and  O_30
REMARK                            x       y       z     vdW  Elec       q    Type
REMARK                         _______ _______ _______ _____ _____    ______ ____
ROOT
ATOM      1  N   UNL     1       1.159  10.154  19.751  0.00  0.00    +0.000 NA
ATOM      2  H   UNL     1       0.889   9.341  20.324  0.00  0.00    +0.000 HD
ENDROOT
BRANCH   1   6
ATOM      3  C   UNL     1      -2.364  12.098  19.173  0.00  0.00    +0.000 C 
ATOM      4  C   UNL     1      -1.471  11.020  19.739  0.00  0.00    +0.000 C 
ATOM      5  C   UNL     1      -0.921  11.136  21.150  0.00  0.00    +0.000 C 
ATOM      6  C   UNL     1       0.027  11.232  19.927  0.00  0.00    +0.000 C 
BRANCH   5   7
ATOM      7  C   UNL     1      -1.339  12.295  22.072  0.00  0.00    +0.000 A 
ATOM      8  C   UNL     1      -2.574  12.290  22.761  0.00  0.00    +0.000 A 
ATOM      9  C   UNL     1      -2.967  13.327  23.626  0.00  0.00    +0.000 A 
ATOM     10  C   UNL     1      -2.117  14.404  23.843  0.00  0.00    +0.000 A 
ATOM     11  C   UNL     1      -0.883  14.430  23.202  0.00  0.00    +0.000 A 
ATOM     12  C   UNL     1      -0.498  13.387  22.344  0.00  0.00    +0.000 A 
ENDBRANCH   5   7
BRANCH   6  13
ATOM     13  C   UNL     1       0.590  12.553  19.410  0.00  0.00    +0.000 C 
ATOM     14  O   UNL     1      -0.004  13.349  18.696  0.00  0.00    +0.000 OA
BRANCH  13  15
ATOM     15  O   UNL     1       1.858  12.770  19.850  0.00  0.00    +0.000 OA
ATOM     16  H   UNL     1       1.873  12.617  20.817  0.00  0.00    +0.000 HD
ENDBRANCH  13  15
ENDBRANCH   6  13
ENDBRANCH   1   6
BRANCH   1  17
ATOM     17  S   UNL     1       1.595   9.592  18.226  0.00  0.00    +0.000 S 
ATOM     18  O   UNL     1       0.371   9.284  17.539  0.00  0.00    +0.000 OA
ATOM     19  O   UNL     1       2.567  10.516  17.696  0.00  0.00    +0.000 OA
BRANCH  17  20
ATOM     20  N   UNL     1       2.380   8.136  18.532  0.00  0.00    +0.000 NA
ATOM     21  C   UNL     1       3.083   7.338  17.473  0.00  0.00    +0.000 C 
ATOM     22  C   UNL     1       4.193   6.384  18.068  0.00  0.00    +0.000 C 
ATOM     23  N   UNL     1       3.671   5.575  19.191  0.00  0.00    +0.000 N 
ATOM     24  C   UNL     1       2.382   5.948  19.554  0.00  0.00    +0.000 A 
ATOM     25  N   UNL     1       1.561   5.029  19.058  0.00  0.00    +0.000 NA
ATOM     26  C   UNL     1       2.359   3.918  18.836  0.00  0.00    +0.000 A 
ATOM     27  C   UNL     1       2.064   2.647  18.327  0.00  0.00    +0.000 A 
ATOM     28  C   UNL     1       3.020   1.629  18.474  0.00  0.00    +0.000 A 
ATOM     29  C   UNL     1       4.234   1.880  19.120  0.00  0.00    +0.000 A 
ATOM     30  C   UNL     1       4.614   3.187  19.466  0.00  0.00    +0.000 A 
ATOM     31  C   UNL     1       3.671   4.186  19.218  0.00  0.00    +0.000 A 
ATOM     32  C   UNL     1       2.144   7.411  19.801  0.00  0.00    +0.000 C 
ENDBRANCH  17  20
ENDBRANCH   1  17
TORSDOF 6
ENDMDL
MODEL 5
REMARK VINA RESULT:      -7.1      3.692      9.865
REMARK  Name = 
REMARK  7 active torsions:
REMARK  status: ('A' for Active; 'I' for Inactive)
REMARK    1  A    between atoms: C_1  and  C_2
REMARK    2  A    between atoms: C_3  and  C_4
REMARK    3  A    between atoms: C_10  and  N_11
REMARK    4  A    between atoms: C_10  and  C_28
REMARK    5  A    between atoms: N_11  and  S_12
REMARK    6  A    between atoms: S_12  and  N_15
REMARK    7  A    between atoms: C_28  and  O_30
REMARK                            x       y       z     vdW  Elec       q    Type
REMARK                         _______ _______ _______ _____ _____    ______ ____
ROOT
ATOM      1  N   UNL     1       0.052  10.825  19.407  0.00  0.00    +0.000 NA
ATOM      2  H   UNL     1       0.920  11.252  19.053  0.00  0.00    +0.000 HD
ENDROOT
BRANCH   1   6
ATOM      3  C   UNL     1      -3.066  12.931  20.948  0.00  0.00    +0.000 C 
ATOM      4  C   UNL     1      -1.644  12.426  20.901  0.00  0.00    +0.000 C 
ATOM      5  C   UNL     1      -0.538  13.288  20.321  0.00  0.00    +0.000 C 
ATOM      6  C   UNL     1      -0.986  11.993  19.596  0.00  0.00    +0.000 C 
BRANCH   5   7
ATOM      7  C   UNL     1      -0.814  14.731  19.863  0.00  0.00    +0.000 A 
ATOM      8  C   UNL     1      -1.709  15.576  20.559  0.00  0.00    +0.000 A 
ATOM      9  C   UNL     1      -1.960  16.903  20.173  0.00  0.00    +0.000 A 
ATOM     10  C   UNL     1      -1.300  17.439  19.074  0.00  0.00    +0.000 A 
ATOM     11  C   UNL     1      -0.393  16.646  18.379  0.00  0.00    +0.000 A 
ATOM     12  C   UNL     1      -0.146  15.321  18.777  0.00  0.00    +0.000 A 
ENDBRANCH   5   7
BRANCH   6  13
ATOM     13  C   UNL     1      -1.878  11.997  18.358  0.00  0.00    +0.000 C 
ATOM     14  O   UNL     1      -3.004  11.524  18.292  0.00  0.00    +0.000 OA
BRANCH  13  15
ATOM     15  O   UNL     1      -1.280  12.612  17.304  0.00  0.00    +0.000 OA
ATOM     16  H   UNL     1      -0.965  13.489  17.604  0.00  0.00    +0.000 HD
ENDBRANCH  13  15
ENDBRANCH   6  13
ENDBRANCH   1   6
BRANCH   1  17
ATOM     17  S   UNL     1       0.456   9.807  20.684  0.00  0.00    +0.000 S 
ATOM     18  O   UNL     1       1.240  10.592  21.599  0.00  0.00    +0.000 OA
ATOM     19  O   UNL     1      -0.752   9.130  21.085  0.00  0.00    +0.000 OA
BRANCH  17  20
ATOM     20  N   UNL     1       1.483   8.667  19.993  0.00  0.00    +0.000 NA
ATOM     21  C   UNL     1       1.639   8.485  18.512  0.00  0.00    +0.000 C 
ATOM     22  C   UNL     1       3.018   7.820  18.124  0.00  0.00    +0.000 C 
ATOM     23  N   UNL     1       3.275   6.597  18.916  0.00  0.00    +0.000 N 
ATOM     24  C   UNL     1       2.324   6.405  19.911  0.00  0.00    +0.000 A 
ATOM     25  N   UNL     1       1.504   5.452  19.481  0.00  0.00    +0.000 NA
ATOM     26  C   UNL     1       2.219   4.778  18.504  0.00  0.00    +0.000 A 
ATOM     27  C   UNL     1       1.886   3.684  17.695  0.00  0.00    +0.000 A 
ATOM     28  C   UNL     1       2.912   3.041  16.985  0.00  0.00    +0.000 A 
ATOM     29  C   UNL     1       4.235   3.479  17.091  0.00  0.00    +0.000 A 
ATOM     30  C   UNL     1       4.550   4.679  17.748  0.00  0.00    +0.000 A 
ATOM     31  C   UNL     1       3.486   5.340  18.363  0.00  0.00    +0.000 A 
ATOM     32  C   UNL     1       2.045   7.572  20.816  0.00  0.00    +0.000 C 
ENDBRANCH  17  20
ENDBRANCH   1  17
TORSDOF 6
ENDMDL
MODEL 6
REMARK VINA RESULT:      -7.1      4.315      9.566
REMARK  Name = 
REMARK  7 active torsions:
REMARK  status: ('A' for Active; 'I' for Inactive)
REMARK    1  A    between atoms: C_1  and  C_2
REMARK    2  A    between atoms: C_3  and  C_4
REMARK    3  A    between atoms: C_10  and  N_11
REMARK    4  A    between atoms: C_10  and  C_28
REMARK    5  A    between atoms: N_11  and  S_12
REMARK    6  A    between atoms: S_12  and  N_15
REMARK    7  A    between atoms: C_28  and  O_30
REMARK                            x       y       z     vdW  Elec       q    Type
REMARK                         _______ _______ _______ _____ _____    ______ ____
ROOT
ATOM      1  N   UNL     1      -0.895   9.593  19.114  0.00  0.00    +0.000 NA
ATOM      2  H   UNL     1      -0.916   8.614  18.792  0.00  0.00    +0.000 HD
ENDROOT
BRANCH   1   6
ATOM      3  C   UNL     1      -2.506  11.103  15.701  0.00  0.00    +0.000 C 
ATOM      4  C   UNL     1      -2.265  10.045  16.750  0.00  0.00    +0.000 C 
ATOM      5  C   UNL     1      -3.269   9.822  17.866  0.00  0.00    +0.000 C 
ATOM      6  C   UNL     1      -1.866  10.402  18.177  0.00  0.00    +0.000 C 
BRANCH   5   7
ATOM      7  C   UNL     1      -4.602  10.592  17.900  0.00  0.00    +0.000 A 
ATOM      8  C   UNL     1      -5.655  10.220  18.767  0.00  0.00    +0.000 A 
ATOM      9  C   UNL     1      -6.871  10.921  18.832  0.00  0.00    +0.000 A 
ATOM     10  C   UNL     1      -7.066  12.041  18.033  0.00  0.00    +0.000 A 
ATOM     11  C   UNL     1      -6.042  12.452  17.187  0.00  0.00    +0.000 A 
ATOM     12  C   UNL     1      -4.828  11.747  17.133  0.00  0.00    +0.000 A 
ENDBRANCH   5   7
BRANCH   6  13
ATOM     13  C   UNL     1      -1.619  11.882  18.457  0.00  0.00    +0.000 C 
ATOM     14  O   UNL     1      -1.185  12.695  17.653  0.00  0.00    +0.000 OA
BRANCH  13  15
ATOM     15  O   UNL     1      -1.954  12.220  19.730  0.00  0.00    +0.000 OA
ATOM     16  H   UNL     1      -1.176  12.053  20.302  0.00  0.00    +0.000 HD
ENDBRANCH  13  15
ENDBRANCH   6  13
ENDBRANCH   1   6
BRANCH   1  17
ATOM     17  S   UNL     1       0.715  10.045  19.295  0.00  0.00    +0.000 S 
ATOM     18  O   UNL     1       1.096  10.696  18.071  0.00  0.00    +0.000 OA
ATOM     19  O   UNL     1       0.833  10.687  20.581  0.00  0.00    +0.000 OA
BRANCH  17  20
ATOM     20  N   UNL     1       1.548   8.585  19.368  0.00  0.00    +0.000 NA
ATOM     21  C   UNL     1       1.819   7.726  18.168  0.00  0.00    +0.000 C 
ATOM     22  C   UNL     1       3.062   6.774  18.370  0.00  0.00    +0.000 C 
ATOM     23  N   UNL     1       2.973   6.026  19.644  0.00  0.00    +0.000 N 
ATOM     24  C   UNL     1       1.903   6.444  20.426  0.00  0.00    +0.000 A 
ATOM     25  N   UNL     1       0.953   5.523  20.302  0.00  0.00    +0.000 NA
ATOM     26  C   UNL     1       1.611   4.385  19.863  0.00  0.00    +0.000 A 
ATOM     27  C   UNL     1       1.144   3.101  19.556  0.00  0.00    +0.000 A 
ATOM     28  C   UNL     1       2.083   2.069  19.399  0.00  0.00    +0.000 A 
ATOM     29  C   UNL     1       3.449   2.319  19.554  0.00  0.00    +0.000 A 
ATOM     30  C   UNL     1       3.936   3.630  19.677  0.00  0.00    +0.000 A 
ATOM     31  C   UNL     1       2.975   4.639  19.736  0.00  0.00    +0.000 A 
ATOM     32  C   UNL     1       1.780   7.921  20.671  0.00  0.00    +0.000 C 
ENDBRANCH  17  20
ENDBRANCH   1  17
TORSDOF 6
ENDMDL
MODEL 7
REMARK VINA RESULT:      -7.0      3.814      9.078
REMARK  Name = 
REMARK  7 active torsions:
REMARK  status: ('A' for Active; 'I' for Inactive)
REMARK    1  A    between atoms: C_1  and  C_2
REMARK    2  A    between atoms: C_3  and  C_4
REMARK    3  A    between atoms: C_10  and  N_11
REMARK    4  A    between atoms: C_10  and  C_28
REMARK    5  A    between atoms: N_11  and  S_12
REMARK    6  A    between atoms: S_12  and  N_15
REMARK    7  A    between atoms: C_28  and  O_30
REMARK                            x       y       z     vdW  Elec       q    Type
REMARK                         _______ _______ _______ _____ _____    ______ ____
ROOT
ATOM      1  N   UNL     1       1.013  10.214  19.716  0.00  0.00    +0.000 NA
ATOM      2  H   UNL     1       0.185   9.691  20.037  0.00  0.00    +0.000 HD
ENDROOT
BRANCH   1   6
ATOM      3  C   UNL     1      -0.243  13.619  21.548  0.00  0.00    +0.000 C 
ATOM      4  C   UNL     1       0.728  12.503  21.249  0.00  0.00    +0.000 C 
ATOM      5  C   UNL     1       1.862  12.710  20.261  0.00  0.00    +0.000 C 
ATOM      6  C   UNL     1       0.698  11.741  19.929  0.00  0.00    +0.000 C 
BRANCH   5   7
ATOM      7  C   UNL     1       2.113  14.086  19.618  0.00  0.00    +0.000 A 
ATOM      8  C   UNL     1       2.832  14.223  18.408  0.00  0.00    +0.000 A 
ATOM      9  C   UNL     1       3.054  15.466  17.791  0.00  0.00    +0.000 A 
ATOM     10  C   UNL     1       2.541  16.623  18.365  0.00  0.00    +0.000 A 
ATOM     11  C   UNL     1       1.807  16.524  19.541  0.00  0.00    +0.000 A 
ATOM     12  C   UNL     1       1.586  15.276  20.148  0.00  0.00    +0.000 A 
ENDBRANCH   5   7
BRANCH   6  13
ATOM     13  C   UNL     1      -0.436  12.096  18.972  0.00  0.00    +0.000 C 
ATOM     14  O   UNL     1      -0.396  12.968  18.114  0.00  0.00    +0.000 OA
BRANCH  13  15
ATOM     15  O   UNL     1      -1.528  11.310  19.166  0.00  0.00    +0.000 OA
ATOM     16  H   UNL     1      -2.024  11.269  18.322  0.00  0.00    +0.000 HD
ENDBRANCH  13  15
ENDBRANCH   6  13
ENDBRANCH   1   6
BRANCH   1  17
ATOM     17  S   UNL     1       1.448   9.619  18.203  0.00  0.00    +0.000 S 
ATOM     18  O   UNL     1       0.225   9.262  17.538  0.00  0.00    +0.000 OA
ATOM     19  O   UNL     1       2.392  10.551  17.637  0.00  0.00    +0.000 OA
BRANCH  17  20
ATOM     20  N   UNL     1       2.271   8.192  18.542  0.00  0.00    +0.000 NA
ATOM     21  C   UNL     1       2.973   7.374  17.498  0.00  0.00    +0.000 C 
ATOM     22  C   UNL     1       4.114   6.466  18.103  0.00  0.00    +0.000 C 
ATOM     23  N   UNL     1       3.631   5.684  19.261  0.00  0.00    +0.000 N 
ATOM     24  C   UNL     1       2.341   6.040  19.636  0.00  0.00    +0.000 A 
ATOM     25  N   UNL     1       1.532   5.087  19.185  0.00  0.00    +0.000 NA
ATOM     26  C   UNL     1       2.351   3.987  18.986  0.00  0.00    +0.000 A 
ATOM     27  C   UNL     1       2.076   2.693  18.525  0.00  0.00    +0.000 A 
ATOM     28  C   UNL     1       3.058   1.703  18.687  0.00  0.00    +0.000 A 
ATOM     29  C   UNL     1       4.277   2.002  19.302  0.00  0.00    +0.000 A 
ATOM     30  C   UNL     1       4.633   3.328  19.597  0.00  0.00    +0.000 A 
ATOM     31  C   UNL     1       3.664   4.297  19.334  0.00  0.00    +0.000 A 
ATOM     32  C   UNL     1       2.075   7.505  19.839  0.00  0.00    +0.000 C 
ENDBRANCH  17  20
ENDBRANCH   1  17
TORSDOF 6
ENDMDL
MODEL 8
REMARK VINA RESULT:      -7.0      7.061      8.813
REMARK  Name = 
REMARK  7 active torsions:
REMARK  status: ('A' for Active; 'I' for Inactive)
REMARK    1  A    between atoms: C_1  and  C_2
REMARK    2  A    between atoms: C_3  and  C_4
REMARK    3  A    between atoms: C_10  and  N_11
REMARK    4  A    between atoms: C_10  and  C_28
REMARK    5  A    between atoms: N_11  and  S_12
REMARK    6  A    between atoms: S_12  and  N_15
REMARK    7  A    between atoms: C_28  and  O_30
REMARK                            x       y       z     vdW  Elec       q    Type
REMARK                         _______ _______ _______ _____ _____    ______ ____
ROOT
ATOM      1  N   UNL     1       6.447  15.382  20.324  0.00  0.00    +0.000 NA
ATOM      2  H   UNL     1       6.277  16.247  20.857  0.00  0.00    +0.000 HD
ENDROOT
BRANCH   1   6
ATOM      3  C   UNL     1      10.089  14.927  22.073  0.00  0.00    +0.000 C 
ATOM      4  C   UNL     1       8.679  14.520  21.718  0.00  0.00    +0.000 C 
ATOM      5  C   UNL     1       8.418  13.565  20.567  0.00  0.00    +0.000 C 
ATOM      6  C   UNL     1       7.978  15.048  20.473  0.00  0.00    +0.000 C 
BRANCH   5   7
ATOM      7  C   UNL     1       9.581  12.909  19.801  0.00  0.00    +0.000 A 
ATOM      8  C   UNL     1      10.767  12.501  20.454  0.00  0.00    +0.000 A 
ATOM      9  C   UNL     1      11.833  11.880  19.780  0.00  0.00    +0.000 A 
ATOM     10  C   UNL     1      11.734  11.630  18.417  0.00  0.00    +0.000 A 
ATOM     11  C   UNL     1      10.572  11.994  17.746  0.00  0.00    +0.000 A 
ATOM     12  C   UNL     1       9.510  12.609  18.430  0.00  0.00    +0.000 A 
ENDBRANCH   5   7
BRANCH   6  13
ATOM     13  C   UNL     1       8.738  16.094  19.663  0.00  0.00    +0.000 C 
ATOM     14  O   UNL     1       9.382  15.876  18.646  0.00  0.00    +0.000 OA
BRANCH  13  15
ATOM     15  O   UNL     1       8.613  17.338  20.197  0.00  0.00    +0.000 OA
ATOM     16  H   UNL     1       7.697  17.432  20.531  0.00  0.00    +0.000 HD
ENDBRANCH  13  15
ENDBRANCH   6  13
ENDBRANCH   1   6
BRANCH   1  17
ATOM     17  S   UNL     1       5.739  15.558  18.809  0.00  0.00    +0.000 S 
ATOM     18  O   UNL     1       5.621  16.971  18.575  0.00  0.00    +0.000 OA
ATOM     19  O   UNL     1       6.446  14.683  17.907  0.00  0.00    +0.000 OA
BRANCH  17  20
ATOM     20  N   UNL     1       4.183  14.950  19.006  0.00  0.00    +0.000 NA
ATOM     21  C   UNL     1       3.680  14.369  20.295  0.00  0.00    +0.000 C 
ATOM     22  C   UNL     1       2.106  14.420  20.411  0.00  0.00    +0.000 C 
ATOM     23  N   UNL     1       1.453  13.870  19.202  0.00  0.00    +0.000 N 
ATOM     24  C   UNL     1       2.367  13.579  18.197  0.00  0.00    +0.000 A 
ATOM     25  N   UNL     1       2.534  12.261  18.198  0.00  0.00    +0.000 NA
ATOM     26  C   UNL     1       1.413  11.758  18.839  0.00  0.00    +0.000 A 
ATOM     27  C   UNL     1       1.024  10.447  19.141  0.00  0.00    +0.000 A 
ATOM     28  C   UNL     1      -0.299  10.221  19.553  0.00  0.00    +0.000 A 
ATOM     29  C   UNL     1      -1.205  11.280  19.652  0.00  0.00    +0.000 A 
ATOM     30  C   UNL     1      -0.778  12.613  19.533  0.00  0.00    +0.000 A 
ATOM     31  C   UNL     1       0.567  12.800  19.213  0.00  0.00    +0.000 A 
ATOM     32  C   UNL     1       3.335  14.667  17.826  0.00  0.00    +0.000 C 
ENDBRANCH  17  20
ENDBRANCH   1  17
TORSDOF 6
ENDMDL
MODEL 9
REMARK VINA RESULT:      -7.0      1.779      2.427
REMARK  Name = 
REMARK  7 active torsions:
REMARK  status: ('A' for Active; 'I' for Inactive)
REMARK    1  A    between atoms: C_1  and  C_2
REMARK    2  A    between atoms: C_3  and  C_4
REMARK    3  A    between atoms: C_10  and  N_11
REMARK    4  A    between atoms: C_10  and  C_28
REMARK    5  A    between atoms: N_11  and  S_12
REMARK    6  A    between atoms: S_12  and  N_15
REMARK    7  A    between atoms: C_28  and  O_30
REMARK                            x       y       z     vdW  Elec       q    Type
REMARK                         _______ _______ _______ _____ _____    ______ ____
ROOT
ATOM      1  N   UNL     1       3.617   5.931  19.634  0.00  0.00    +0.000 NA
ATOM      2  H   UNL     1       3.836   6.855  19.235  0.00  0.00    +0.000 HD
ENDROOT
BRANCH   1   6
ATOM      3  C   UNL     1       3.676   2.587  17.323  0.00  0.00    +0.000 C 
ATOM      4  C   UNL     1       3.303   4.009  17.665  0.00  0.00    +0.000 C 
ATOM      5  C   UNL     1       4.095   5.173  17.096  0.00  0.00    +0.000 C 
ATOM      6  C   UNL     1       4.144   4.856  18.612  0.00  0.00    +0.000 C 
BRANCH   5   7
ATOM      7  C   UNL     1       5.228   4.940  16.079  0.00  0.00    +0.000 A 
ATOM      8  C   UNL     1       5.018   4.215  14.884  0.00  0.00    +0.000 A 
ATOM      9  C   UNL     1       6.030   4.009  13.930  0.00  0.00    +0.000 A 
ATOM     10  C   UNL     1       7.294   4.545  14.140  0.00  0.00    +0.000 A 
ATOM     11  C   UNL     1       7.531   5.285  15.293  0.00  0.00    +0.000 A 
ATOM     12  C   UNL     1       6.511   5.490  16.237  0.00  0.00    +0.000 A 
ENDBRANCH   5   7
BRANCH   6  13
ATOM     13  C   UNL     1       5.322   4.153  19.280  0.00  0.00    +0.000 C 
ATOM     14  O   UNL     1       5.343   2.982  19.635  0.00  0.00    +0.000 OA
BRANCH  13  15
ATOM     15  O   UNL     1       6.388   4.982  19.434  0.00  0.00    +0.000 OA
ATOM     16  H   UNL     1       6.098   5.751  19.967  0.00  0.00    +0.000 HD
ENDBRANCH  13  15
ENDBRANCH   6  13
ENDBRANCH   1   6
BRANCH   1  17
ATOM     17  S   UNL     1       2.008   5.946  20.126  0.00  0.00    +0.000 S 
ATOM     18  O   UNL     1       1.233   5.496  19.002  0.00  0.00    +0.000 OA
ATOM     19  O   UNL     1       1.952   5.298  21.413  0.00  0.00    +0.000 OA
BRANCH  17  20
ATOM     20  N   UNL     1       1.662   7.577  20.354  0.00  0.00    +0.000 NA
ATOM     21  C   UNL     1       0.781   8.089  21.456  0.00  0.00    +0.000 C 
ATOM     22  C   UNL     1       1.075   9.598  21.816  0.00  0.00    +0.000 C 
ATOM     23  N   UNL     1       1.094  10.452  20.609  0.00  0.00    +0.000 N 
ATOM     24  C   UNL     1       0.999   9.710  19.438  0.00  0.00    +0.000 A 
ATOM     25  N   UNL     1      -0.249   9.839  19.000  0.00  0.00    +0.000 NA
ATOM     26  C   UNL     1      -0.726  10.988  19.611  0.00  0.00    +0.000 A 
ATOM     27  C   UNL     1      -1.969  11.631  19.542  0.00  0.00    +0.000 A 
ATOM     28  C   UNL     1      -2.076  12.933  20.056  0.00  0.00    +0.000 A 
ATOM     29  C   UNL     1      -0.967  13.571  20.617  0.00  0.00    +0.000 A 
ATOM     30  C   UNL     1       0.226  12.872  20.859  0.00  0.00    +0.000 A 
ATOM     31  C   UNL     1       0.263  11.549  20.416  0.00  0.00    +0.000 A 
ATOM     32  C   UNL     1       1.953   8.560  19.286  0.00  0.00    +0.000 C 
ENDBRANCH  17  20
ENDBRANCH   1  17
TORSDOF 6
ENDMDL
