MODEL 1
REMARK VINA RESULT:      -8.6      0.000      0.000
REMARK  Name = 
REMARK  9 active torsions:
REMARK  status: ('A' for Active; 'I' for Inactive)
REMARK    1  A    between atoms: C_1  and  C_2
REMARK    2  A    between atoms: C_6  and  C_7
REMARK    3  A    between atoms: C_8  and  C_9
REMARK    4  A    between atoms: C_14  and  O_15
REMARK    5  A    between atoms: O_15  and  C_16
REMARK    6  A    between atoms: C_19  and  C_20
REMARK    7  A    between atoms: N_22  and  C_23
REMARK    8  A    between atoms: C_23  and  C_24
REMARK    9  A    between atoms: C_24  and  N_25
REMARK                            x       y       z     vdW  Elec       q    Type
REMARK                         _______ _______ _______ _____ _____    ______ ____
ROOT
ATOM      1  O   UNL     1       8.065   9.456  17.756  0.00  0.00    +0.000 OA
ENDROOT
BRANCH   1   7
ATOM      2  C   UNL     1      11.314  14.163  19.502  0.00  0.00    +0.000 C 
ATOM      3  C   UNL     1      12.329  13.670  18.453  0.00  0.00    +0.000 C 
ATOM      4  C   UNL     1      11.690  12.602  17.569  0.00  0.00    +0.000 C 
ATOM      5  C   UNL     1      10.813  11.703  18.387  0.00  0.00    +0.000 A 
ATOM      6  C   UNL     1       9.987  10.763  17.770  0.00  0.00    +0.000 A 
ATOM      7  C   UNL     1       9.031  10.062  18.517  0.00  0.00    +0.000 A 
ATOM      8  C   UNL     1       9.036  10.154  19.907  0.00  0.00    +0.000 A 
ATOM      9  C   UNL     1       9.935  11.011  20.538  0.00  0.00    +0.000 A 
ATOM     10  C   UNL     1      10.696  11.884  19.763  0.00  0.00    +0.000 A 
ATOM     11  O   UNL     1      11.143  13.023  20.398  0.00  0.00    +0.000 OA
BRANCH   2  19
ATOM     12  C   UNL     1      11.031  15.876  16.853  0.00  0.00    +0.000 C 
ATOM     13  C   UNL     1       9.923  15.692  17.861  0.00  0.00    +0.000 A 
ATOM     14  C   UNL     1       8.744  16.413  17.549  0.00  0.00    +0.000 A 
ATOM     15  C   UNL     1       7.641  16.410  18.368  0.00  0.00    +0.000 A 
ATOM     16  C   UNL     1       7.689  15.681  19.537  0.00  0.00    +0.000 A 
ATOM     17  C   UNL     1       8.837  14.955  19.905  0.00  0.00    +0.000 A 
ATOM     18  C   UNL     1       8.697  14.243  21.232  0.00  0.00    +0.000 C 
ATOM     19  C   UNL     1      10.001  14.908  19.064  0.00  0.00    +0.000 A 
ENDBRANCH   2  19
ENDBRANCH   1   7
BRANCH   1  20
ATOM     20  C   UNL     1       7.668   8.193  17.876  0.00  0.00    +0.000 A 
ATOM     21  N   UNL     1       8.268   7.280  18.608  0.00  0.00    +0.000 NA
ATOM     22  C   UNL     1       7.689   6.048  18.371  0.00  0.00    +0.000 A 
ATOM     23  C   UNL     1       6.652   6.034  17.458  0.00  0.00    +0.000 A 
ATOM     24  S   UNL     1       6.346   7.634  16.937  0.00  0.00    +0.000 S 
BRANCH  23  25
ATOM     25  C   UNL     1       5.920   4.883  16.975  0.00  0.00    +0.000 C 
ATOM     26  O   UNL     1       6.357   4.138  16.103  0.00  0.00    +0.000 OA
ATOM     27  N   UNL     1       4.681   4.666  17.550  0.00  0.00    +0.000 N 
ATOM     28  H   UNL     1       4.370   5.284  18.294  0.00  0.00    +0.000 HD
BRANCH  27  29
ATOM     29  C   UNL     1       3.870   3.516  17.208  0.00  0.00    +0.000 C 
BRANCH  29  30
ATOM     30  C   UNL     1       3.661   2.538  18.367  0.00  0.00    +0.000 C 
BRANCH  30  31
ATOM     31  N   UNL     1       2.658   2.943  19.335  0.00  0.00    +0.000 N 
ATOM     32  C   UNL     1       2.769   2.719  20.761  0.00  0.00    +0.000 C 
ATOM     33  C   UNL     1       1.687   3.638  21.316  0.00  0.00    +0.000 C 
ATOM     34  N   UNL     1       0.771   3.770  20.211  0.00  0.00    +0.000 N 
ATOM     35  C   UNL     1       1.414   3.471  19.016  0.00  0.00    +0.000 C 
ATOM     36  O   UNL     1       0.964   3.667  17.900  0.00  0.00    +0.000 OA
ATOM     37  H   UNL     1      -0.043   4.370  20.193  0.00  0.00    +0.000 HD
ENDBRANCH  30  31
ENDBRANCH  29  30
ENDBRANCH  27  29
ENDBRANCH  23  25
ENDBRANCH   1  20
TORSDOF 7
ENDMDL
MODEL 2
REMARK VINA RESULT:      -8.2      1.084      1.206
REMARK  Name = 
REMARK  9 active torsions:
REMARK  status: ('A' for Active; 'I' for Inactive)
REMARK    1  A    between atoms: C_1  and  C_2
REMARK    2  A    between atoms: C_6  and  C_7
REMARK    3  A    between atoms: C_8  and  C_9
REMARK    4  A    between atoms: C_14  and  O_15
REMARK    5  A    between atoms: O_15  and  C_16
REMARK    6  A    between atoms: C_19  and  C_20
REMARK    7  A    between atoms: N_22  and  C_23
REMARK    8  A    between atoms: C_23  and  C_24
REMARK    9  A    between atoms: C_24  and  N_25
REMARK                            x       y       z     vdW  Elec       q    Type
REMARK                         _______ _______ _______ _____ _____    ______ ____
ROOT
ATOM      1  O   UNL     1       8.322   9.767  17.857  0.00  0.00    +0.000 OA
ENDROOT
BRANCH   1   7
ATOM      2  C   UNL     1      11.312  14.636  19.620  0.00  0.00    +0.000 C 
ATOM      3  C   UNL     1      12.333  14.225  18.541  0.00  0.00    +0.000 C 
ATOM      4  C   UNL     1      11.742  13.134  17.652  0.00  0.00    +0.000 C 
ATOM      5  C   UNL     1      10.939  12.169  18.471  0.00  0.00    +0.000 A 
ATOM      6  C   UNL     1      10.160  11.190  17.854  0.00  0.00    +0.000 A 
ATOM      7  C   UNL     1       9.266  10.418  18.608  0.00  0.00    +0.000 A 
ATOM      8  C   UNL     1       9.295  10.488  19.999  0.00  0.00    +0.000 A 
ATOM      9  C   UNL     1      10.152  11.388  20.627  0.00  0.00    +0.000 A 
ATOM     10  C   UNL     1      10.842  12.319  19.852  0.00  0.00    +0.000 A 
ATOM     11  O   UNL     1      11.232  13.473  20.498  0.00  0.00    +0.000 OA
BRANCH   2  19
ATOM     12  C   UNL     1      10.843  16.298  16.965  0.00  0.00    +0.000 C 
ATOM     13  C   UNL     1       9.784  16.069  18.015  0.00  0.00    +0.000 A 
ATOM     14  C   UNL     1       8.558  16.723  17.739  0.00  0.00    +0.000 A 
ATOM     15  C   UNL     1       7.487  16.673  18.598  0.00  0.00    +0.000 A 
ATOM     16  C   UNL     1       7.616  15.962  19.772  0.00  0.00    +0.000 A 
ATOM     17  C   UNL     1       8.813  15.302  20.105  0.00  0.00    +0.000 A 
ATOM     18  C   UNL     1       8.759  14.600  21.444  0.00  0.00    +0.000 C 
ATOM     19  C   UNL     1       9.947  15.306  19.223  0.00  0.00    +0.000 A 
ENDBRANCH   2  19
ENDBRANCH   1   7
BRANCH   1  20
ATOM     20  C   UNL     1       7.944   8.503  18.020  0.00  0.00    +0.000 A 
ATOM     21  N   UNL     1       8.485   7.658  18.869  0.00  0.00    +0.000 NA
ATOM     22  C   UNL     1       7.961   6.396  18.659  0.00  0.00    +0.000 A 
ATOM     23  C   UNL     1       7.025   6.292  17.648  0.00  0.00    +0.000 A 
ATOM     24  S   UNL     1       6.739   7.846  16.992  0.00  0.00    +0.000 S 
BRANCH  23  25
ATOM     25  C   UNL     1       6.373   5.092  17.172  0.00  0.00    +0.000 C 
ATOM     26  O   UNL     1       6.946   4.257  16.480  0.00  0.00    +0.000 OA
ATOM     27  N   UNL     1       5.048   4.934  17.537  0.00  0.00    +0.000 N 
ATOM     28  H   UNL     1       4.620   5.630  18.141  0.00  0.00    +0.000 HD
BRANCH  27  29
ATOM     29  C   UNL     1       4.293   3.750  17.185  0.00  0.00    +0.000 C 
BRANCH  29  30
ATOM     30  C   UNL     1       2.843   3.771  17.675  0.00  0.00    +0.000 C 
BRANCH  30  31
ATOM     31  N   UNL     1       2.641   4.419  18.958  0.00  0.00    +0.000 N 
ATOM     32  C   UNL     1       2.263   5.807  19.116  0.00  0.00    +0.000 C 
ATOM     33  C   UNL     1       1.829   5.858  20.576  0.00  0.00    +0.000 C 
ATOM     34  N   UNL     1       2.543   4.756  21.168  0.00  0.00    +0.000 N 
ATOM     35  C   UNL     1       2.909   3.839  20.191  0.00  0.00    +0.000 C 
ATOM     36  O   UNL     1       3.358   2.725  20.395  0.00  0.00    +0.000 OA
ATOM     37  H   UNL     1       2.446   4.440  22.125  0.00  0.00    +0.000 HD
ENDBRANCH  30  31
ENDBRANCH  29  30
ENDBRANCH  27  29
ENDBRANCH  23  25
ENDBRANCH   1  20
TORSDOF 7
ENDMDL
MODEL 3
REMARK VINA RESULT:      -8.2      0.855      1.726
REMARK  Name = 
REMARK  9 active torsions:
REMARK  status: ('A' for Active; 'I' for Inactive)
REMARK    1  A    between atoms: C_1  and  C_2
REMARK    2  A    between atoms: C_6  and  C_7
REMARK    3  A    between atoms: C_8  and  C_9
REMARK    4  A    between atoms: C_14  and  O_15
REMARK    5  A    between atoms: O_15  and  C_16
REMARK    6  A    between atoms: C_19  and  C_20
REMARK    7  A    between atoms: N_22  and  C_23
REMARK    8  A    between atoms: C_23  and  C_24
REMARK    9  A    between atoms: C_24  and  N_25
REMARK                            x       y       z     vdW  Elec       q    Type
REMARK                         _______ _______ _______ _____ _____    ______ ____
ROOT
ATOM      1  O   UNL     1       8.258   9.659  17.740  0.00  0.00    +0.000 OA
ENDROOT
BRANCH   1   7
ATOM      2  C   UNL     1      11.348  14.438  19.579  0.00  0.00    +0.000 C 
ATOM      3  C   UNL     1      12.333  14.053  18.458  0.00  0.00    +0.000 C 
ATOM      4  C   UNL     1      11.706  12.999  17.550  0.00  0.00    +0.000 C 
ATOM      5  C   UNL     1      10.917  12.014  18.359  0.00  0.00    +0.000 A 
ATOM      6  C   UNL     1      10.110  11.063  17.733  0.00  0.00    +0.000 A 
ATOM      7  C   UNL     1       9.230  10.276  18.486  0.00  0.00    +0.000 A 
ATOM      8  C   UNL     1       9.300  10.297  19.877  0.00  0.00    +0.000 A 
ATOM      9  C   UNL     1      10.184  11.168  20.510  0.00  0.00    +0.000 A 
ATOM     10  C   UNL     1      10.861  12.119  19.747  0.00  0.00    +0.000 A 
ATOM     11  O   UNL     1      11.281  13.246  20.420  0.00  0.00    +0.000 OA
BRANCH   2  19
ATOM     12  C   UNL     1       8.742  14.201  21.362  0.00  0.00    +0.000 C 
ATOM     13  C   UNL     1       8.814  14.982  20.073  0.00  0.00    +0.000 A 
ATOM     14  C   UNL     1       7.579  15.560  19.688  0.00  0.00    +0.000 A 
ATOM     15  C   UNL     1       7.431  16.270  18.521  0.00  0.00    +0.000 A 
ATOM     16  C   UNL     1       8.525  16.419  17.696  0.00  0.00    +0.000 A 
ATOM     17  C   UNL     1       9.774  15.858  18.021  0.00  0.00    +0.000 A 
ATOM     18  C   UNL     1      10.837  16.114  16.976  0.00  0.00    +0.000 C 
ATOM     19  C   UNL     1       9.979  15.133  19.244  0.00  0.00    +0.000 A 
ENDBRANCH   2  19
ENDBRANCH   1   7
BRANCH   1  20
ATOM     20  C   UNL     1       7.828   8.413  17.914  0.00  0.00    +0.000 A 
ATOM     21  N   UNL     1       8.453   7.490  18.610  0.00  0.00    +0.000 NA
ATOM     22  C   UNL     1       7.812   6.276  18.443  0.00  0.00    +0.000 A 
ATOM     23  C   UNL     1       6.703   6.288  17.618  0.00  0.00    +0.000 A 
ATOM     24  S   UNL     1       6.413   7.891  17.096  0.00  0.00    +0.000 S 
BRANCH  23  25
ATOM     25  C   UNL     1       5.893   5.158  17.217  0.00  0.00    +0.000 C 
ATOM     26  O   UNL     1       5.729   4.845  16.042  0.00  0.00    +0.000 OA
ATOM     27  N   UNL     1       5.298   4.444  18.240  0.00  0.00    +0.000 N 
ATOM     28  H   UNL     1       5.487   4.713  19.201  0.00  0.00    +0.000 HD
BRANCH  27  29
ATOM     29  C   UNL     1       4.514   3.253  17.986  0.00  0.00    +0.000 C 
BRANCH  29  30
ATOM     30  C   UNL     1       3.005   3.504  17.931  0.00  0.00    +0.000 C 
BRANCH  30  31
ATOM     31  N   UNL     1       2.352   3.596  19.224  0.00  0.00    +0.000 N 
ATOM     32  C   UNL     1       1.551   2.540  19.806  0.00  0.00    +0.000 C 
ATOM     33  C   UNL     1       1.437   2.986  21.258  0.00  0.00    +0.000 C 
ATOM     34  N   UNL     1       1.630   4.412  21.179  0.00  0.00    +0.000 N 
ATOM     35  C   UNL     1       2.297   4.742  20.006  0.00  0.00    +0.000 C 
ATOM     36  O   UNL     1       2.765   5.835  19.739  0.00  0.00    +0.000 OA
ATOM     37  H   UNL     1       1.688   5.041  21.969  0.00  0.00    +0.000 HD
ENDBRANCH  30  31
ENDBRANCH  29  30
ENDBRANCH  27  29
ENDBRANCH  23  25
ENDBRANCH   1  20
TORSDOF 7
ENDMDL
MODEL 4
REMARK VINA RESULT:      -8.0      1.726      2.809
REMARK  Name = 
REMARK  9 active torsions:
REMARK  status: ('A' for Active; 'I' for Inactive)
REMARK    1  A    between atoms: C_1  and  C_2
REMARK    2  A    between atoms: C_6  and  C_7
REMARK    3  A    between atoms: C_8  and  C_9
REMARK    4  A    between atoms: C_14  and  O_15
REMARK    5  A    between atoms: O_15  and  C_16
REMARK    6  A    between atoms: C_19  and  C_20
REMARK    7  A    between atoms: N_22  and  C_23
REMARK    8  A    between atoms: C_23  and  C_24
REMARK    9  A    between atoms: C_24  and  N_25
REMARK                            x       y       z     vdW  Elec       q    Type
REMARK                         _______ _______ _______ _____ _____    ______ ____
ROOT
ATOM      1  O   UNL     1       8.968   9.223  18.788  0.00  0.00    +0.000 OA
ENDROOT
BRANCH   1   7
ATOM      2  C   UNL     1       8.889  15.188  18.375  0.00  0.00    +0.000 C 
ATOM      3  C   UNL     1       7.648  14.967  17.489  0.00  0.00    +0.000 C 
ATOM      4  C   UNL     1       7.178  13.519  17.599  0.00  0.00    +0.000 C 
ATOM      5  C   UNL     1       8.353  12.591  17.658  0.00  0.00    +0.000 A 
ATOM      6  C   UNL     1       8.175  11.235  17.937  0.00  0.00    +0.000 A 
ATOM      7  C   UNL     1       9.282  10.412  18.182  0.00  0.00    +0.000 A 
ATOM      8  C   UNL     1      10.568  10.895  17.951  0.00  0.00    +0.000 A 
ATOM      9  C   UNL     1      10.748  12.221  17.564  0.00  0.00    +0.000 A 
ATOM     10  C   UNL     1       9.653  13.085  17.577  0.00  0.00    +0.000 A 
ATOM     11  O   UNL     1       9.943  14.426  17.711  0.00  0.00    +0.000 OA
BRANCH   2  19
ATOM     12  C   UNL     1       6.231  15.559  20.055  0.00  0.00    +0.000 C 
ATOM     13  C   UNL     1       7.574  15.236  20.662  0.00  0.00    +0.000 A 
ATOM     14  C   UNL     1       7.559  15.174  22.077  0.00  0.00    +0.000 A 
ATOM     15  C   UNL     1       8.694  14.937  22.816  0.00  0.00    +0.000 A 
ATOM     16  C   UNL     1       9.888  14.760  22.151  0.00  0.00    +0.000 A 
ATOM     17  C   UNL     1       9.966  14.823  20.747  0.00  0.00    +0.000 A 
ATOM     18  C   UNL     1      11.368  14.626  20.215  0.00  0.00    +0.000 C 
ATOM     19  C   UNL     1       8.800  15.040  19.936  0.00  0.00    +0.000 A 
ENDBRANCH   2  19
ENDBRANCH   1   7
BRANCH   1  20
ATOM     20  C   UNL     1       8.197   8.272  18.268  0.00  0.00    +0.000 A 
ATOM     21  N   UNL     1       7.410   8.426  17.226  0.00  0.00    +0.000 NA
ATOM     22  C   UNL     1       6.638   7.291  17.063  0.00  0.00    +0.000 A 
ATOM     23  C   UNL     1       6.844   6.283  17.985  0.00  0.00    +0.000 A 
ATOM     24  S   UNL     1       8.102   6.747  19.046  0.00  0.00    +0.000 S 
BRANCH  23  25
ATOM     25  C   UNL     1       6.131   5.028  18.091  0.00  0.00    +0.000 C 
ATOM     26  O   UNL     1       6.311   4.240  19.014  0.00  0.00    +0.000 OA
ATOM     27  N   UNL     1       5.229   4.755  17.079  0.00  0.00    +0.000 N 
ATOM     28  H   UNL     1       5.082   5.449  16.352  0.00  0.00    +0.000 HD
BRANCH  27  29
ATOM     29  C   UNL     1       4.401   3.567  17.093  0.00  0.00    +0.000 C 
BRANCH  29  30
ATOM     30  C   UNL     1       2.946   3.829  17.491  0.00  0.00    +0.000 C 
BRANCH  30  31
ATOM     31  N   UNL     1       2.681   3.757  18.917  0.00  0.00    +0.000 N 
ATOM     32  C   UNL     1       2.187   2.576  19.592  0.00  0.00    +0.000 C 
ATOM     33  C   UNL     1       2.446   2.911  21.056  0.00  0.00    +0.000 C 
ATOM     34  N   UNL     1       2.463   4.352  21.063  0.00  0.00    +0.000 N 
ATOM     35  C   UNL     1       2.735   4.836  19.790  0.00  0.00    +0.000 C 
ATOM     36  O   UNL     1       2.996   5.993  19.510  0.00  0.00    +0.000 OA
ATOM     37  H   UNL     1       2.679   4.932  21.864  0.00  0.00    +0.000 HD
ENDBRANCH  30  31
ENDBRANCH  29  30
ENDBRANCH  27  29
ENDBRANCH  23  25
ENDBRANCH   1  20
TORSDOF 7
ENDMDL
MODEL 5
REMARK VINA RESULT:      -7.9      0.868      1.731
REMARK  Name = 
REMARK  9 active torsions:
REMARK  status: ('A' for Active; 'I' for Inactive)
REMARK    1  A    between atoms: C_1  and  C_2
REMARK    2  A    between atoms: C_6  and  C_7
REMARK    3  A    between atoms: C_8  and  C_9
REMARK    4  A    between atoms: C_14  and  O_15
REMARK    5  A    between atoms: O_15  and  C_16
REMARK    6  A    between atoms: C_19  and  C_20
REMARK    7  A    between atoms: N_22  and  C_23
REMARK    8  A    between atoms: C_23  and  C_24
REMARK    9  A    between atoms: C_24  and  N_25
REMARK                            x       y       z     vdW  Elec       q    Type
REMARK                         _______ _______ _______ _____ _____    ______ ____
ROOT
ATOM      1  O   UNL     1       8.302   9.324  17.660  0.00  0.00    +0.000 OA
ENDROOT
BRANCH   1   7
ATOM      2  C   UNL     1      10.668  14.312  19.958  0.00  0.00    +0.000 C 
ATOM      3  C   UNL     1      11.796  14.078  18.935  0.00  0.00    +0.000 C 
ATOM      4  C   UNL     1      11.378  13.004  17.934  0.00  0.00    +0.000 C 
ATOM      5  C   UNL     1      10.621  11.911  18.626  0.00  0.00    +0.000 A 
ATOM      6  C   UNL     1       9.986  10.910  17.889  0.00  0.00    +0.000 A 
ATOM      7  C   UNL     1       9.123  10.005  18.522  0.00  0.00    +0.000 A 
ATOM      8  C   UNL     1       9.051   9.976  19.912  0.00  0.00    +0.000 A 
ATOM      9  C   UNL     1       9.769  10.905  20.661  0.00  0.00    +0.000 A 
ATOM     10  C   UNL     1      10.415  11.951  20.002  0.00  0.00    +0.000 A 
ATOM     11  O   UNL     1      10.643  13.086  20.750  0.00  0.00    +0.000 OA
BRANCH   2  19
ATOM     12  C   UNL     1       7.946  13.792  21.491  0.00  0.00    +0.000 C 
ATOM     13  C   UNL     1       8.058  14.599  20.221  0.00  0.00    +0.000 A 
ATOM     14  C   UNL     1       6.813  15.061  19.729  0.00  0.00    +0.000 A 
ATOM     15  C   UNL     1       6.702  15.775  18.560  0.00  0.00    +0.000 A 
ATOM     16  C   UNL     1       7.847  16.045  17.841  0.00  0.00    +0.000 A 
ATOM     17  C   UNL     1       9.110  15.601  18.275  0.00  0.00    +0.000 A 
ATOM     18  C   UNL     1      10.234  15.978  17.335  0.00  0.00    +0.000 C 
ATOM     19  C   UNL     1       9.274  14.877  19.505  0.00  0.00    +0.000 A 
ENDBRANCH   2  19
ENDBRANCH   1   7
BRANCH   1  20
ATOM     20  C   UNL     1       7.686   8.177  17.927  0.00  0.00    +0.000 A 
ATOM     21  N   UNL     1       8.238   7.147  18.530  0.00  0.00    +0.000 NA
ATOM     22  C   UNL     1       7.368   6.074  18.495  0.00  0.00    +0.000 A 
ATOM     23  C   UNL     1       6.160   6.296  17.863  0.00  0.00    +0.000 A 
ATOM     24  S   UNL     1       6.085   7.930  17.362  0.00  0.00    +0.000 S 
BRANCH  23  25
ATOM     25  C   UNL     1       5.103   5.338  17.622  0.00  0.00    +0.000 C 
ATOM     26  O   UNL     1       4.047   5.640  17.075  0.00  0.00    +0.000 OA
ATOM     27  N   UNL     1       5.344   4.047  18.054  0.00  0.00    +0.000 N 
ATOM     28  H   UNL     1       6.245   3.828  18.470  0.00  0.00    +0.000 HD
BRANCH  27  29
ATOM     29  C   UNL     1       4.400   2.973  17.821  0.00  0.00    +0.000 C 
BRANCH  29  30
ATOM     30  C   UNL     1       4.068   2.157  19.073  0.00  0.00    +0.000 C 
BRANCH  30  31
ATOM     31  N   UNL     1       2.838   2.539  19.742  0.00  0.00    +0.000 N 
ATOM     32  C   UNL     1       2.731   2.787  21.165  0.00  0.00    +0.000 C 
ATOM     33  C   UNL     1       1.386   3.495  21.267  0.00  0.00    +0.000 C 
ATOM     34  N   UNL     1       0.685   3.038  20.095  0.00  0.00    +0.000 N 
ATOM     35  C   UNL     1       1.587   2.587  19.140  0.00  0.00    +0.000 C 
ATOM     36  O   UNL     1       1.320   2.312  17.983  0.00  0.00    +0.000 OA
ATOM     37  H   UNL     1      -0.227   3.358  19.794  0.00  0.00    +0.000 HD
ENDBRANCH  30  31
ENDBRANCH  29  30
ENDBRANCH  27  29
ENDBRANCH  23  25
ENDBRANCH   1  20
TORSDOF 7
ENDMDL
MODEL 6
REMARK VINA RESULT:      -7.8      9.960     12.632
REMARK  Name = 
REMARK  9 active torsions:
REMARK  status: ('A' for Active; 'I' for Inactive)
REMARK    1  A    between atoms: C_1  and  C_2
REMARK    2  A    between atoms: C_6  and  C_7
REMARK    3  A    between atoms: C_8  and  C_9
REMARK    4  A    between atoms: C_14  and  O_15
REMARK    5  A    between atoms: O_15  and  C_16
REMARK    6  A    between atoms: C_19  and  C_20
REMARK    7  A    between atoms: N_22  and  C_23
REMARK    8  A    between atoms: C_23  and  C_24
REMARK    9  A    between atoms: C_24  and  N_25
REMARK                            x       y       z     vdW  Elec       q    Type
REMARK                         _______ _______ _______ _____ _____    ______ ____
ROOT
ATOM      1  O   UNL     1      -2.017  12.233  18.691  0.00  0.00    +0.000 OA
ENDROOT
BRANCH   1   7
ATOM      2  C   UNL     1      -7.833  13.431  19.398  0.00  0.00    +0.000 C 
ATOM      3  C   UNL     1      -7.624  12.890  20.826  0.00  0.00    +0.000 C 
ATOM      4  C   UNL     1      -6.133  12.742  21.115  0.00  0.00    +0.000 C 
ATOM      5  C   UNL     1      -5.413  12.234  19.903  0.00  0.00    +0.000 A 
ATOM      6  C   UNL     1      -4.018  12.187  19.872  0.00  0.00    +0.000 A 
ATOM      7  C   UNL     1      -3.346  11.897  18.677  0.00  0.00    +0.000 A 
ATOM      8  C   UNL     1      -4.066  11.461  17.567  0.00  0.00    +0.000 A 
ATOM      9  C   UNL     1      -5.456  11.400  17.627  0.00  0.00    +0.000 A 
ATOM     10  C   UNL     1      -6.110  11.935  18.735  0.00  0.00    +0.000 A 
ATOM     11  O   UNL     1      -7.416  12.330  18.534  0.00  0.00    +0.000 OA
BRANCH   2  19
ATOM     12  C   UNL     1      -7.394  15.807  21.445  0.00  0.00    +0.000 C 
ATOM     13  C   UNL     1      -7.158  15.919  19.959  0.00  0.00    +0.000 A 
ATOM     14  C   UNL     1      -6.777  17.218  19.540  0.00  0.00    +0.000 A 
ATOM     15  C   UNL     1      -6.562  17.532  18.219  0.00  0.00    +0.000 A 
ATOM     16  C   UNL     1      -6.729  16.545  17.271  0.00  0.00    +0.000 A 
ATOM     17  C   UNL     1      -7.118  15.240  17.627  0.00  0.00    +0.000 A 
ATOM     18  C   UNL     1      -7.269  14.314  16.441  0.00  0.00    +0.000 C 
ATOM     19  C   UNL     1      -7.325  14.863  18.998  0.00  0.00    +0.000 A 
ENDBRANCH   2  19
ENDBRANCH   1   7
BRANCH   1  20
ATOM     20  C   UNL     1      -1.016  11.407  18.976  0.00  0.00    +0.000 A 
ATOM     21  N   UNL     1      -0.243  11.496  20.036  0.00  0.00    +0.000 NA
ATOM     22  C   UNL     1       0.789  10.582  19.931  0.00  0.00    +0.000 A 
ATOM     23  C   UNL     1       0.793   9.805  18.788  0.00  0.00    +0.000 A 
ATOM     24  S   UNL     1      -0.588  10.185  17.852  0.00  0.00    +0.000 S 
BRANCH  23  25
ATOM     25  C   UNL     1       1.784   8.829  18.391  0.00  0.00    +0.000 C 
ATOM     26  O   UNL     1       2.350   8.865  17.303  0.00  0.00    +0.000 OA
ATOM     27  N   UNL     1       2.059   7.834  19.312  0.00  0.00    +0.000 N 
ATOM     28  H   UNL     1       1.595   7.860  20.215  0.00  0.00    +0.000 HD
BRANCH  27  29
ATOM     29  C   UNL     1       3.075   6.830  19.072  0.00  0.00    +0.000 C 
BRANCH  29  30
ATOM     30  C   UNL     1       2.511   5.450  18.724  0.00  0.00    +0.000 C 
BRANCH  30  31
ATOM     31  N   UNL     1       3.340   4.330  19.133  0.00  0.00    +0.000 N 
ATOM     32  C   UNL     1       3.107   3.540  20.324  0.00  0.00    +0.000 C 
ATOM     33  C   UNL     1       3.988   2.322  20.078  0.00  0.00    +0.000 C 
ATOM     34  N   UNL     1       4.992   2.820  19.172  0.00  0.00    +0.000 N 
ATOM     35  C   UNL     1       4.528   3.956  18.520  0.00  0.00    +0.000 C 
ATOM     36  O   UNL     1       5.065   4.497  17.569  0.00  0.00    +0.000 OA
ATOM     37  H   UNL     1       5.715   2.265  18.734  0.00  0.00    +0.000 HD
ENDBRANCH  30  31
ENDBRANCH  29  30
ENDBRANCH  27  29
ENDBRANCH  23  25
ENDBRANCH   1  20
TORSDOF 7
ENDMDL
MODEL 7
REMARK VINA RESULT:      -7.8      6.139      7.639
REMARK  Name = 
REMARK  9 active torsions:
REMARK  status: ('A' for Active; 'I' for Inactive)
REMARK    1  A    between atoms: C_1  and  C_2
REMARK    2  A    between atoms: C_6  and  C_7
REMARK    3  A    between atoms: C_8  and  C_9
REMARK    4  A    between atoms: C_14  and  O_15
REMARK    5  A    between atoms: O_15  and  C_16
REMARK    6  A    between atoms: C_19  and  C_20
REMARK    7  A    between atoms: N_22  and  C_23
REMARK    8  A    between atoms: C_23  and  C_24
REMARK    9  A    between atoms: C_24  and  N_25
REMARK                            x       y       z     vdW  Elec       q    Type
REMARK                         _______ _______ _______ _____ _____    ______ ____
ROOT
ATOM      1  O   UNL     1       0.228  10.955  19.257  0.00  0.00    +0.000 OA
ENDROOT
BRANCH   1   7
ATOM      2  C   UNL     1       0.963  16.390  21.641  0.00  0.00    +0.000 C 
ATOM      3  C   UNL     1       2.376  15.887  21.995  0.00  0.00    +0.000 C 
ATOM      4  C   UNL     1       2.662  14.578  21.264  0.00  0.00    +0.000 C 
ATOM      5  C   UNL     1       1.437  13.715  21.238  0.00  0.00    +0.000 A 
ATOM      6  C   UNL     1       1.406  12.548  20.473  0.00  0.00    +0.000 A 
ATOM      7  C   UNL     1       0.205  11.849  20.297  0.00  0.00    +0.000 A 
ATOM      8  C   UNL     1      -0.917  12.203  21.043  0.00  0.00    +0.000 A 
ATOM      9  C   UNL     1      -0.860  13.304  21.894  0.00  0.00    +0.000 A 
ATOM     10  C   UNL     1       0.262  14.131  21.858  0.00  0.00    +0.000 A 
ATOM     11  O   UNL     1       0.070  15.428  22.282  0.00  0.00    +0.000 OA
BRANCH   2  19
ATOM     12  C   UNL     1       3.086  17.246  19.453  0.00  0.00    +0.000 C 
ATOM     13  C   UNL     1       1.596  17.205  19.213  0.00  0.00    +0.000 A 
ATOM     14  C   UNL     1       1.216  17.650  17.923  0.00  0.00    +0.000 A 
ATOM     15  C   UNL     1      -0.099  17.730  17.530  0.00  0.00    +0.000 A 
ATOM     16  C   UNL     1      -1.079  17.368  18.429  0.00  0.00    +0.000 A 
ATOM     17  C   UNL     1      -0.761  16.930  19.728  0.00  0.00    +0.000 A 
ATOM     18  C   UNL     1      -1.977  16.603  20.566  0.00  0.00    +0.000 C 
ATOM     19  C   UNL     1       0.600  16.804  20.170  0.00  0.00    +0.000 A 
ENDBRANCH   2  19
ENDBRANCH   1   7
BRANCH   1  20
ATOM     20  C   UNL     1       0.838   9.774  19.269  0.00  0.00    +0.000 A 
ATOM     21  N   UNL     1       0.902   8.969  20.307  0.00  0.00    +0.000 NA
ATOM     22  C   UNL     1       1.746   7.914  20.018  0.00  0.00    +0.000 A 
ATOM     23  C   UNL     1       2.320   7.926  18.761  0.00  0.00    +0.000 A 
ATOM     24  S   UNL     1       1.719   9.268  17.887  0.00  0.00    +0.000 S 
BRANCH  23  25
ATOM     25  C   UNL     1       3.286   6.992  18.225  0.00  0.00    +0.000 C 
ATOM     26  O   UNL     1       3.972   7.241  17.239  0.00  0.00    +0.000 OA
ATOM     27  N   UNL     1       3.393   5.782  18.887  0.00  0.00    +0.000 N 
ATOM     28  H   UNL     1       2.834   5.628  19.721  0.00  0.00    +0.000 HD
BRANCH  27  29
ATOM     29  C   UNL     1       4.365   4.781  18.499  0.00  0.00    +0.000 C 
BRANCH  29  30
ATOM     30  C   UNL     1       3.834   3.346  18.562  0.00  0.00    +0.000 C 
BRANCH  30  31
ATOM     31  N   UNL     1       2.718   3.146  19.468  0.00  0.00    +0.000 N 
ATOM     32  C   UNL     1       2.859   2.769  20.859  0.00  0.00    +0.000 C 
ATOM     33  C   UNL     1       1.471   3.063  21.413  0.00  0.00    +0.000 C 
ATOM     34  N   UNL     1       0.628   2.975  20.248  0.00  0.00    +0.000 N 
ATOM     35  C   UNL     1       1.381   3.157  19.095  0.00  0.00    +0.000 C 
ATOM     36  O   UNL     1       0.934   3.321  17.974  0.00  0.00    +0.000 OA
ATOM     37  H   UNL     1      -0.363   3.181  20.224  0.00  0.00    +0.000 HD
ENDBRANCH  30  31
ENDBRANCH  29  30
ENDBRANCH  27  29
ENDBRANCH  23  25
ENDBRANCH   1  20
TORSDOF 7
ENDMDL
MODEL 8
REMARK VINA RESULT:      -7.8      1.388      2.209
REMARK  Name = 
REMARK  9 active torsions:
REMARK  status: ('A' for Active; 'I' for Inactive)
REMARK    1  A    between atoms: C_1  and  C_2
REMARK    2  A    between atoms: C_6  and  C_7
REMARK    3  A    between atoms: C_8  and  C_9
REMARK    4  A    between atoms: C_14  and  O_15
REMARK    5  A    between atoms: O_15  and  C_16
REMARK    6  A    between atoms: C_19  and  C_20
REMARK    7  A    between atoms: N_22  and  C_23
REMARK    8  A    between atoms: C_23  and  C_24
REMARK    9  A    between atoms: C_24  and  N_25
REMARK                            x       y       z     vdW  Elec       q    Type
REMARK                         _______ _______ _______ _____ _____    ______ ____
ROOT
ATOM      1  O   UNL     1       7.956   9.337  17.776  0.00  0.00    +0.000 OA
ENDROOT
BRANCH   1   7
ATOM      2  C   UNL     1      10.021  14.549  19.855  0.00  0.00    +0.000 C 
ATOM      3  C   UNL     1      10.792  14.611  18.523  0.00  0.00    +0.000 C 
ATOM      4  C   UNL     1      10.274  13.539  17.568  0.00  0.00    +0.000 C 
ATOM      5  C   UNL     1       9.975  12.275  18.316  0.00  0.00    +0.000 A 
ATOM      6  C   UNL     1       9.324  11.213  17.685  0.00  0.00    +0.000 A 
ATOM      7  C   UNL     1       8.875  10.115  18.430  0.00  0.00    +0.000 A 
ATOM      8  C   UNL     1       9.250   9.986  19.766  0.00  0.00    +0.000 A 
ATOM      9  C   UNL     1       9.995  10.994  20.374  0.00  0.00    +0.000 A 
ATOM     10  C   UNL     1      10.209  12.187  19.686  0.00  0.00    +0.000 A 
ATOM     11  O   UNL     1      10.460  13.297  20.464  0.00  0.00    +0.000 OA
BRANCH   2  19
ATOM     12  C   UNL     1       8.093  13.577  22.171  0.00  0.00    +0.000 C 
ATOM     13  C   UNL     1       7.637  14.369  20.970  0.00  0.00    +0.000 A 
ATOM     14  C   UNL     1       6.238  14.591  20.933  0.00  0.00    +0.000 A 
ATOM     15  C   UNL     1       5.625  15.253  19.897  0.00  0.00    +0.000 A 
ATOM     16  C   UNL     1       6.403  15.710  18.854  0.00  0.00    +0.000 A 
ATOM     17  C   UNL     1       7.796  15.508  18.831  0.00  0.00    +0.000 A 
ATOM     18  C   UNL     1       8.462  16.063  17.592  0.00  0.00    +0.000 C 
ATOM     19  C   UNL     1       8.480  14.847  19.908  0.00  0.00    +0.000 A 
ENDBRANCH   2  19
ENDBRANCH   1   7
BRANCH   1  20
ATOM     20  C   UNL     1       7.603   8.103  18.123  0.00  0.00    +0.000 A 
ATOM     21  N   UNL     1       8.406   7.214  18.665  0.00  0.00    +0.000 NA
ATOM     22  C   UNL     1       7.757   5.996  18.742  0.00  0.00    +0.000 A 
ATOM     23  C   UNL     1       6.464   5.969  18.256  0.00  0.00    +0.000 A 
ATOM     24  S   UNL     1       6.024   7.544  17.755  0.00  0.00    +0.000 S 
BRANCH  23  25
ATOM     25  C   UNL     1       5.587   4.823  18.150  0.00  0.00    +0.000 C 
ATOM     26  O   UNL     1       5.723   3.819  18.842  0.00  0.00    +0.000 OA
ATOM     27  N   UNL     1       4.577   4.916  17.210  0.00  0.00    +0.000 N 
ATOM     28  H   UNL     1       4.475   5.778  16.682  0.00  0.00    +0.000 HD
BRANCH  27  29
ATOM     29  C   UNL     1       3.588   3.871  17.043  0.00  0.00    +0.000 C 
BRANCH  29  30
ATOM     30  C   UNL     1       2.205   4.233  17.588  0.00  0.00    +0.000 C 
BRANCH  30  31
ATOM     31  N   UNL     1       2.147   4.433  19.025  0.00  0.00    +0.000 N 
ATOM     32  C   UNL     1       1.669   3.441  19.965  0.00  0.00    +0.000 C 
ATOM     33  C   UNL     1       2.165   3.994  21.295  0.00  0.00    +0.000 C 
ATOM     34  N   UNL     1       2.295   5.405  21.036  0.00  0.00    +0.000 N 
ATOM     35  C   UNL     1       2.413   5.634  19.670  0.00  0.00    +0.000 C 
ATOM     36  O   UNL     1       2.719   6.693  19.152  0.00  0.00    +0.000 OA
ATOM     37  H   UNL     1       2.671   6.088  21.681  0.00  0.00    +0.000 HD
ENDBRANCH  30  31
ENDBRANCH  29  30
ENDBRANCH  27  29
ENDBRANCH  23  25
ENDBRANCH   1  20
TORSDOF 7
ENDMDL
MODEL 9
REMARK VINA RESULT:      -7.7      9.546     12.324
REMARK  Name = 
REMARK  9 active torsions:
REMARK  status: ('A' for Active; 'I' for Inactive)
REMARK    1  A    between atoms: C_1  and  C_2
REMARK    2  A    between atoms: C_6  and  C_7
REMARK    3  A    between atoms: C_8  and  C_9
REMARK    4  A    between atoms: C_14  and  O_15
REMARK    5  A    between atoms: O_15  and  C_16
REMARK    6  A    between atoms: C_19  and  C_20
REMARK    7  A    between atoms: N_22  and  C_23
REMARK    8  A    between atoms: C_23  and  C_24
REMARK    9  A    between atoms: C_24  and  N_25
REMARK                            x       y       z     vdW  Elec       q    Type
REMARK                         _______ _______ _______ _____ _____    ______ ____
ROOT
ATOM      1  O   UNL     1      -1.021  12.529  22.261  0.00  0.00    +0.000 OA
ENDROOT
BRANCH   1   7
ATOM      2  C   UNL     1      -6.689  14.434  22.285  0.00  0.00    +0.000 C 
ATOM      3  C   UNL     1      -6.068  15.830  22.488  0.00  0.00    +0.000 C 
ATOM      4  C   UNL     1      -4.563  15.773  22.242  0.00  0.00    +0.000 C 
ATOM      5  C   UNL     1      -3.990  14.503  22.794  0.00  0.00    +0.000 A 
ATOM      6  C   UNL     1      -2.666  14.148  22.532  0.00  0.00    +0.000 A 
ATOM      7  C   UNL     1      -2.192  12.877  22.883  0.00  0.00    +0.000 A 
ATOM      8  C   UNL     1      -2.979  12.038  23.669  0.00  0.00    +0.000 A 
ATOM      9  C   UNL     1      -4.265  12.434  24.027  0.00  0.00    +0.000 A 
ATOM     10  C   UNL     1      -4.803  13.585  23.454  0.00  0.00    +0.000 A 
ATOM     11  O   UNL     1      -6.179  13.650  23.406  0.00  0.00    +0.000 OA
BRANCH   2  19
ATOM     12  C   UNL     1      -6.086  15.936  19.562  0.00  0.00    +0.000 C 
ATOM     13  C   UNL     1      -6.401  14.463  19.662  0.00  0.00    +0.000 A 
ATOM     14  C   UNL     1      -6.467  13.809  18.407  0.00  0.00    +0.000 A 
ATOM     15  C   UNL     1      -6.785  12.478  18.286  0.00  0.00    +0.000 A 
ATOM     16  C   UNL     1      -7.055  11.758  19.431  0.00  0.00    +0.000 A 
ATOM     17  C   UNL     1      -7.017  12.357  20.704  0.00  0.00    +0.000 A 
ATOM     18  C   UNL     1      -7.365  11.405  21.826  0.00  0.00    +0.000 C 
ATOM     19  C   UNL     1      -6.660  13.738  20.877  0.00  0.00    +0.000 A 
ENDBRANCH   2  19
ENDBRANCH   1   7
BRANCH   1  20
ATOM     20  C   UNL     1      -0.538  11.295  22.160  0.00  0.00    +0.000 A 
ATOM     21  N   UNL     1      -0.260  10.508  23.176  0.00  0.00    +0.000 NA
ATOM     22  C   UNL     1       0.373   9.369  22.715  0.00  0.00    +0.000 A 
ATOM     23  C   UNL     1       0.573   9.300  21.350  0.00  0.00    +0.000 A 
ATOM     24  S   UNL     1      -0.126  10.677  20.614  0.00  0.00    +0.000 S 
BRANCH  23  25
ATOM     25  C   UNL     1       1.264   8.265  20.613  0.00  0.00    +0.000 C 
ATOM     26  O   UNL     1       1.709   8.440  19.483  0.00  0.00    +0.000 OA
ATOM     27  N   UNL     1       1.394   7.046  21.254  0.00  0.00    +0.000 N 
ATOM     28  H   UNL     1       1.045   6.951  22.203  0.00  0.00    +0.000 HD
BRANCH  27  29
ATOM     29  C   UNL     1       2.120   5.942  20.660  0.00  0.00    +0.000 C 
BRANCH  29  30
ATOM     30  C   UNL     1       1.219   4.834  20.109  0.00  0.00    +0.000 C 
BRANCH  30  31
ATOM     31  N   UNL     1       1.921   3.747  19.450  0.00  0.00    +0.000 N 
ATOM     32  C   UNL     1       3.338   3.758  19.153  0.00  0.00    +0.000 C 
ATOM     33  C   UNL     1       3.609   2.293  18.831  0.00  0.00    +0.000 C 
ATOM     34  N   UNL     1       2.320   1.806  18.410  0.00  0.00    +0.000 N 
ATOM     35  C   UNL     1       1.312   2.625  18.903  0.00  0.00    +0.000 C 
ATOM     36  O   UNL     1       0.119   2.379  18.875  0.00  0.00    +0.000 OA
ATOM     37  H   UNL     1       2.102   0.845  18.181  0.00  0.00    +0.000 HD
ENDBRANCH  30  31
ENDBRANCH  29  30
ENDBRANCH  27  29
ENDBRANCH  23  25
ENDBRANCH   1  20
TORSDOF 7
ENDMDL
