MODEL 1
REMARK VINA RESULT:      -8.5      0.000      0.000
REMARK  Name = 
REMARK  6 active torsions:
REMARK  status: ('A' for Active; 'I' for Inactive)
REMARK    1  A    between atoms: N_1  and  S_2
REMARK    2  A    between atoms: S_2  and  N_5
REMARK    3  A    between atoms: N_5  and  C_6
REMARK    4  A    between atoms: C_9  and  N_10
REMARK    5  A    between atoms: C_12  and  C_13
REMARK    6  A    between atoms: C_18  and  C_19
REMARK                            x       y       z     vdW  Elec       q    Type
REMARK                         _______ _______ _______ _____ _____    ______ ____
ROOT
ATOM      1  N   UNL     1       2.733   5.535  19.496  0.00  0.00    +0.000 N 
ATOM      2  N   UNL     1       2.204   4.943  20.600  0.00  0.00    +0.000 NA
ATOM      3  C   UNL     1       2.480   3.636  20.466  0.00  0.00    +0.000 A 
ATOM      4  C   UNL     1       3.326   3.420  19.352  0.00  0.00    +0.000 A 
ATOM      5  C   UNL     1       3.569   4.665  18.789  0.00  0.00    +0.000 A 
ENDROOT
BRANCH   5   6
ATOM      6  C   UNL     1       4.525   5.020  17.724  0.00  0.00    +0.000 A 
ATOM      7  C   UNL     1       5.584   5.900  17.982  0.00  0.00    +0.000 A 
ATOM      8  C   UNL     1       6.557   6.158  17.009  0.00  0.00    +0.000 A 
ATOM      9  C   UNL     1       6.513   5.514  15.766  0.00  0.00    +0.000 A 
ATOM     10  C   UNL     1       7.548   5.650  14.825  0.00  0.00    +0.000 A 
ATOM     11  C   UNL     1       7.500   4.964  13.610  0.00  0.00    +0.000 A 
ATOM     12  C   UNL     1       6.404   4.163  13.304  0.00  0.00    +0.000 A 
ATOM     13  C   UNL     1       5.359   4.034  14.220  0.00  0.00    +0.000 A 
ATOM     14  C   UNL     1       5.412   4.689  15.460  0.00  0.00    +0.000 A 
ATOM     15  C   UNL     1       4.407   4.504  16.422  0.00  0.00    +0.000 A 
ENDBRANCH   5   6
BRANCH   1  19
ATOM     16  C   UNL     1       1.576   9.484  18.578  0.00  0.00    +0.000 A 
ATOM     17  C   UNL     1       2.105   8.661  17.586  0.00  0.00    +0.000 A 
ATOM     18  C   UNL     1       2.544   7.372  17.910  0.00  0.00    +0.000 A 
ATOM     19  C   UNL     1       2.391   6.889  19.219  0.00  0.00    +0.000 A 
ATOM     20  C   UNL     1       1.867   7.725  20.211  0.00  0.00    +0.000 A 
ATOM     21  C   UNL     1       1.451   9.016  19.889  0.00  0.00    +0.000 A 
BRANCH  16  22
ATOM     22  N   UNL     1       1.097  10.790  18.238  0.00  0.00    +0.000 N 
ATOM     23  H   UNL     1       1.597  11.510  18.762  0.00  0.00    +0.000 HD
BRANCH  22  24
ATOM     24  S   UNL     1      -0.535  11.034  18.544  0.00  0.00    +0.000 S 
ATOM     25  O   UNL     1      -0.724  11.369  19.930  0.00  0.00    +0.000 OA
ATOM     26  O   UNL     1      -1.329  10.059  17.843  0.00  0.00    +0.000 OA
BRANCH  24  27
ATOM     27  N   UNL     1      -0.682  12.453  17.676  0.00  0.00    +0.000 NA
ATOM     28  H   UNL     1       0.240  12.880  17.580  0.00  0.00    +0.000 HD
ATOM     29  H   UNL     1      -1.314  13.079  18.178  0.00  0.00    +0.000 HD
ENDBRANCH  24  27
ENDBRANCH  22  24
ENDBRANCH  16  22
ENDBRANCH   1  19
BRANCH   3  30
ATOM     30  C   UNL     1       1.982   2.579  21.414  0.00  0.00    +0.000 C 
ATOM     31  F   UNL     1       1.061   3.030  22.305  0.00  0.00    +0.000 F 
ATOM     32  F   UNL     1       1.406   1.543  20.746  0.00  0.00    +0.000 F 
ATOM     33  F   UNL     1       3.000   2.044  22.142  0.00  0.00    +0.000 F 
ENDBRANCH   3  30
TORSDOF 6
ENDMDL
MODEL 2
REMARK VINA RESULT:      -8.1      5.353      7.524
REMARK  Name = 
REMARK  6 active torsions:
REMARK  status: ('A' for Active; 'I' for Inactive)
REMARK    1  A    between atoms: N_1  and  S_2
REMARK    2  A    between atoms: S_2  and  N_5
REMARK    3  A    between atoms: N_5  and  C_6
REMARK    4  A    between atoms: C_9  and  N_10
REMARK    5  A    between atoms: C_12  and  C_13
REMARK    6  A    between atoms: C_18  and  C_19
REMARK                            x       y       z     vdW  Elec       q    Type
REMARK                         _______ _______ _______ _____ _____    ______ ____
ROOT
ATOM      1  N   UNL     1       6.170   5.511  16.072  0.00  0.00    +0.000 N 
ATOM      2  N   UNL     1       6.573   5.428  14.777  0.00  0.00    +0.000 NA
ATOM      3  C   UNL     1       5.973   4.329  14.291  0.00  0.00    +0.000 A 
ATOM      4  C   UNL     1       5.060   3.804  15.236  0.00  0.00    +0.000 A 
ATOM      5  C   UNL     1       5.117   4.632  16.348  0.00  0.00    +0.000 A 
ENDROOT
BRANCH   5   6
ATOM      6  C   UNL     1       4.244   4.635  17.536  0.00  0.00    +0.000 A 
ATOM      7  C   UNL     1       3.228   5.591  17.669  0.00  0.00    +0.000 A 
ATOM      8  C   UNL     1       2.326   5.536  18.739  0.00  0.00    +0.000 A 
ATOM      9  C   UNL     1       2.396   4.502  19.681  0.00  0.00    +0.000 A 
ATOM     10  C   UNL     1       1.424   4.346  20.683  0.00  0.00    +0.000 A 
ATOM     11  C   UNL     1       1.495   3.282  21.584  0.00  0.00    +0.000 A 
ATOM     12  C   UNL     1       2.554   2.382  21.519  0.00  0.00    +0.000 A 
ATOM     13  C   UNL     1       3.539   2.536  20.542  0.00  0.00    +0.000 A 
ATOM     14  C   UNL     1       3.460   3.579  19.607  0.00  0.00    +0.000 A 
ATOM     15  C   UNL     1       4.398   3.698  18.571  0.00  0.00    +0.000 A 
ENDBRANCH   5   6
BRANCH   1  19
ATOM     16  C   UNL     1       8.287   8.177  18.560  0.00  0.00    +0.000 A 
ATOM     17  C   UNL     1       8.304   6.809  18.826  0.00  0.00    +0.000 A 
ATOM     18  C   UNL     1       7.550   5.936  18.033  0.00  0.00    +0.000 A 
ATOM     19  C   UNL     1       6.831   6.432  16.934  0.00  0.00    +0.000 A 
ATOM     20  C   UNL     1       6.812   7.808  16.680  0.00  0.00    +0.000 A 
ATOM     21  C   UNL     1       7.546   8.677  17.485  0.00  0.00    +0.000 A 
BRANCH  16  22
ATOM     22  N   UNL     1       9.084   9.065  19.351  0.00  0.00    +0.000 N 
ATOM     23  H   UNL     1       8.675   9.197  20.276  0.00  0.00    +0.000 HD
BRANCH  22  24
ATOM     24  S   UNL     1       9.274  10.599  18.696  0.00  0.00    +0.000 S 
ATOM     25  O   UNL     1       8.032  11.035  18.116  0.00  0.00    +0.000 OA
ATOM     26  O   UNL     1      10.548  10.710  18.034  0.00  0.00    +0.000 OA
BRANCH  24  27
ATOM     27  N   UNL     1       9.442  11.406  20.149  0.00  0.00    +0.000 NA
ATOM     28  H   UNL     1      10.376  11.233  20.519  0.00  0.00    +0.000 HD
ATOM     29  H   UNL     1       8.731  11.063  20.797  0.00  0.00    +0.000 HD
ENDBRANCH  24  27
ENDBRANCH  22  24
ENDBRANCH  16  22
ENDBRANCH   1  19
BRANCH   3  30
ATOM     30  C   UNL     1       6.224   3.787  12.909  0.00  0.00    +0.000 C 
ATOM     31  F   UNL     1       7.182   4.459  12.220  0.00  0.00    +0.000 F 
ATOM     32  F   UNL     1       6.613   2.484  12.950  0.00  0.00    +0.000 F 
ATOM     33  F   UNL     1       5.096   3.824  12.148  0.00  0.00    +0.000 F 
ENDBRANCH   3  30
TORSDOF 6
ENDMDL
MODEL 3
REMARK VINA RESULT:      -8.1      1.067      1.433
REMARK  Name = 
REMARK  6 active torsions:
REMARK  status: ('A' for Active; 'I' for Inactive)
REMARK    1  A    between atoms: N_1  and  S_2
REMARK    2  A    between atoms: S_2  and  N_5
REMARK    3  A    between atoms: N_5  and  C_6
REMARK    4  A    between atoms: C_9  and  N_10
REMARK    5  A    between atoms: C_12  and  C_13
REMARK    6  A    between atoms: C_18  and  C_19
REMARK                            x       y       z     vdW  Elec       q    Type
REMARK                         _______ _______ _______ _____ _____    ______ ____
ROOT
ATOM      1  N   UNL     1       2.838   5.569  19.480  0.00  0.00    +0.000 N 
ATOM      2  N   UNL     1       2.350   5.002  20.615  0.00  0.00    +0.000 NA
ATOM      3  C   UNL     1       2.680   3.702  20.530  0.00  0.00    +0.000 A 
ATOM      4  C   UNL     1       3.518   3.476  19.412  0.00  0.00    +0.000 A 
ATOM      5  C   UNL     1       3.701   4.706  18.796  0.00  0.00    +0.000 A 
ENDROOT
BRANCH   5   6
ATOM      6  C   UNL     1       4.625   5.056  17.702  0.00  0.00    +0.000 A 
ATOM      7  C   UNL     1       5.678   5.954  17.920  0.00  0.00    +0.000 A 
ATOM      8  C   UNL     1       6.624   6.209  16.919  0.00  0.00    +0.000 A 
ATOM      9  C   UNL     1       6.559   5.544  15.688  0.00  0.00    +0.000 A 
ATOM     10  C   UNL     1       7.568   5.679  14.720  0.00  0.00    +0.000 A 
ATOM     11  C   UNL     1       7.500   4.973  13.518  0.00  0.00    +0.000 A 
ATOM     12  C   UNL     1       6.408   4.152  13.252  0.00  0.00    +0.000 A 
ATOM     13  C   UNL     1       5.387   4.025  14.195  0.00  0.00    +0.000 A 
ATOM     14  C   UNL     1       5.462   4.700  15.423  0.00  0.00    +0.000 A 
ATOM     15  C   UNL     1       4.483   4.517  16.411  0.00  0.00    +0.000 A 
ENDBRANCH   5   6
BRANCH   1  19
ATOM     16  C   UNL     1       1.507   9.425  18.414  0.00  0.00    +0.000 A 
ATOM     17  C   UNL     1       2.100   8.601  17.460  0.00  0.00    +0.000 A 
ATOM     18  C   UNL     1       2.595   7.346  17.834  0.00  0.00    +0.000 A 
ATOM     19  C   UNL     1       2.435   6.895  19.153  0.00  0.00    +0.000 A 
ATOM     20  C   UNL     1       1.847   7.733  20.107  0.00  0.00    +0.000 A 
ATOM     21  C   UNL     1       1.374   8.990  19.736  0.00  0.00    +0.000 A 
BRANCH  16  22
ATOM     22  N   UNL     1       0.972  10.694  18.024  0.00  0.00    +0.000 N 
ATOM     23  H   UNL     1       1.020  10.816  17.012  0.00  0.00    +0.000 HD
BRANCH  22  24
ATOM     24  S   UNL     1       1.758  12.017  18.695  0.00  0.00    +0.000 S 
ATOM     25  O   UNL     1       3.015  12.223  18.027  0.00  0.00    +0.000 OA
ATOM     26  O   UNL     1       1.604  12.021  20.127  0.00  0.00    +0.000 OA
BRANCH  24  27
ATOM     27  N   UNL     1       0.705  13.177  18.118  0.00  0.00    +0.000 NA
ATOM     28  H   UNL     1       1.216  13.817  17.510  0.00  0.00    +0.000 HD
ATOM     29  H   UNL     1       0.307  13.682  18.913  0.00  0.00    +0.000 HD
ENDBRANCH  24  27
ENDBRANCH  22  24
ENDBRANCH  16  22
ENDBRANCH   1  19
BRANCH   3  30
ATOM     30  C   UNL     1       2.240   2.666  21.528  0.00  0.00    +0.000 C 
ATOM     31  F   UNL     1       3.264   1.966  22.082  0.00  0.00    +0.000 F 
ATOM     32  F   UNL     1       1.549   3.229  22.557  0.00  0.00    +0.000 F 
ATOM     33  F   UNL     1       1.403   1.753  20.963  0.00  0.00    +0.000 F 
ENDBRANCH   3  30
TORSDOF 6
ENDMDL
MODEL 4
REMARK VINA RESULT:      -8.0      0.599      1.140
REMARK  Name = 
REMARK  6 active torsions:
REMARK  status: ('A' for Active; 'I' for Inactive)
REMARK    1  A    between atoms: N_1  and  S_2
REMARK    2  A    between atoms: S_2  and  N_5
REMARK    3  A    between atoms: N_5  and  C_6
REMARK    4  A    between atoms: C_9  and  N_10
REMARK    5  A    between atoms: C_12  and  C_13
REMARK    6  A    between atoms: C_18  and  C_19
REMARK                            x       y       z     vdW  Elec       q    Type
REMARK                         _______ _______ _______ _____ _____    ______ ____
ROOT
ATOM      1  N   UNL     1       2.692   5.504  19.458  0.00  0.00    +0.000 N 
ATOM      2  N   UNL     1       2.173   4.923  20.572  0.00  0.00    +0.000 NA
ATOM      3  C   UNL     1       2.494   3.622  20.472  0.00  0.00    +0.000 A 
ATOM      4  C   UNL     1       3.355   3.408  19.370  0.00  0.00    +0.000 A 
ATOM      5  C   UNL     1       3.562   4.646  18.779  0.00  0.00    +0.000 A 
ENDROOT
BRANCH   5   6
ATOM      6  C   UNL     1       4.513   5.006  17.711  0.00  0.00    +0.000 A 
ATOM      7  C   UNL     1       5.557   5.906  17.963  0.00  0.00    +0.000 A 
ATOM      8  C   UNL     1       6.528   6.171  16.989  0.00  0.00    +0.000 A 
ATOM      9  C   UNL     1       6.498   5.514  15.753  0.00  0.00    +0.000 A 
ATOM     10  C   UNL     1       7.532   5.658  14.813  0.00  0.00    +0.000 A 
ATOM     11  C   UNL     1       7.498   4.959  13.604  0.00  0.00    +0.000 A 
ATOM     12  C   UNL     1       6.416   4.136  13.305  0.00  0.00    +0.000 A 
ATOM     13  C   UNL     1       5.372   4.000  14.219  0.00  0.00    +0.000 A 
ATOM     14  C   UNL     1       5.411   4.667  15.453  0.00  0.00    +0.000 A 
ATOM     15  C   UNL     1       4.408   4.475  16.414  0.00  0.00    +0.000 A 
ENDBRANCH   5   6
BRANCH   1  19
ATOM     16  C   UNL     1       1.699   9.517  18.623  0.00  0.00    +0.000 A 
ATOM     17  C   UNL     1       1.554   9.014  19.914  0.00  0.00    +0.000 A 
ATOM     18  C   UNL     1       1.827   7.665  20.173  0.00  0.00    +0.000 A 
ATOM     19  C   UNL     1       2.307   6.840  19.144  0.00  0.00    +0.000 A 
ATOM     20  C   UNL     1       2.440   7.349  17.848  0.00  0.00    +0.000 A 
ATOM     21  C   UNL     1       2.147   8.687  17.591  0.00  0.00    +0.000 A 
BRANCH  16  22
ATOM     22  N   UNL     1       1.451  10.903  18.367  0.00  0.00    +0.000 N 
ATOM     23  H   UNL     1       2.053  11.494  18.941  0.00  0.00    +0.000 HD
BRANCH  22  24
ATOM     24  S   UNL     1      -0.124  11.397  18.674  0.00  0.00    +0.000 S 
ATOM     25  O   UNL     1      -0.301  12.755  18.237  0.00  0.00    +0.000 OA
ATOM     26  O   UNL     1      -0.564  10.906  19.954  0.00  0.00    +0.000 OA
BRANCH  24  27
ATOM     27  N   UNL     1      -0.855  10.419  17.534  0.00  0.00    +0.000 NA
ATOM     28  H   UNL     1      -0.226  10.311  16.738  0.00  0.00    +0.000 HD
ATOM     29  H   UNL     1      -1.730  10.857  17.241  0.00  0.00    +0.000 HD
ENDBRANCH  24  27
ENDBRANCH  22  24
ENDBRANCH  16  22
ENDBRANCH   1  19
BRANCH   3  30
ATOM     30  C   UNL     1       2.023   2.574  21.443  0.00  0.00    +0.000 C 
ATOM     31  F   UNL     1       1.079   3.014  22.314  0.00  0.00    +0.000 F 
ATOM     32  F   UNL     1       1.490   1.501  20.797  0.00  0.00    +0.000 F 
ATOM     33  F   UNL     1       3.053   2.092  22.193  0.00  0.00    +0.000 F 
ENDBRANCH   3  30
TORSDOF 6
ENDMDL
MODEL 5
REMARK VINA RESULT:      -8.0      4.213      6.981
REMARK  Name = 
REMARK  6 active torsions:
REMARK  status: ('A' for Active; 'I' for Inactive)
REMARK    1  A    between atoms: N_1  and  S_2
REMARK    2  A    between atoms: S_2  and  N_5
REMARK    3  A    between atoms: N_5  and  C_6
REMARK    4  A    between atoms: C_9  and  N_10
REMARK    5  A    between atoms: C_12  and  C_13
REMARK    6  A    between atoms: C_18  and  C_19
REMARK                            x       y       z     vdW  Elec       q    Type
REMARK                         _______ _______ _______ _____ _____    ______ ____
ROOT
ATOM      1  N   UNL     1       2.926   4.918  19.046  0.00  0.00    +0.000 N 
ATOM      2  N   UNL     1       2.732   3.634  19.448  0.00  0.00    +0.000 NA
ATOM      3  C   UNL     1       2.118   3.726  20.639  0.00  0.00    +0.000 A 
ATOM      4  C   UNL     1       1.779   5.071  20.918  0.00  0.00    +0.000 A 
ATOM      5  C   UNL     1       2.213   5.825  19.837  0.00  0.00    +0.000 A 
ENDROOT
BRANCH   5   6
ATOM      6  C   UNL     1       1.950   7.246  19.543  0.00  0.00    +0.000 A 
ATOM      7  C   UNL     1       2.049   7.731  18.233  0.00  0.00    +0.000 A 
ATOM      8  C   UNL     1       1.697   9.052  17.927  0.00  0.00    +0.000 A 
ATOM      9  C   UNL     1       1.202   9.907  18.920  0.00  0.00    +0.000 A 
ATOM     10  C   UNL     1       0.715  11.189  18.617  0.00  0.00    +0.000 A 
ATOM     11  C   UNL     1       0.190  12.007  19.619  0.00  0.00    +0.000 A 
ATOM     12  C   UNL     1       0.176  11.570  20.940  0.00  0.00    +0.000 A 
ATOM     13  C   UNL     1       0.676  10.307  21.260  0.00  0.00    +0.000 A 
ATOM     14  C   UNL     1       1.172   9.461  20.257  0.00  0.00    +0.000 A 
ATOM     15  C   UNL     1       1.603   8.159  20.554  0.00  0.00    +0.000 A 
ENDBRANCH   5   6
BRANCH   1  19
ATOM     16  C   UNL     1       5.303   5.664  15.644  0.00  0.00    +0.000 A 
ATOM     17  C   UNL     1       4.577   4.479  15.744  0.00  0.00    +0.000 A 
ATOM     18  C   UNL     1       3.838   4.210  16.903  0.00  0.00    +0.000 A 
ATOM     19  C   UNL     1       3.779   5.162  17.932  0.00  0.00    +0.000 A 
ATOM     20  C   UNL     1       4.519   6.345  17.828  0.00  0.00    +0.000 A 
ATOM     21  C   UNL     1       5.270   6.600  16.682  0.00  0.00    +0.000 A 
BRANCH  16  22
ATOM     22  N   UNL     1       6.031   5.954  14.446  0.00  0.00    +0.000 N 
ATOM     23  H   UNL     1       5.461   5.774  13.619  0.00  0.00    +0.000 HD
BRANCH  22  24
ATOM     24  S   UNL     1       7.437   5.056  14.253  0.00  0.00    +0.000 S 
ATOM     25  O   UNL     1       7.857   4.534  15.525  0.00  0.00    +0.000 OA
ATOM     26  O   UNL     1       8.325   5.705  13.324  0.00  0.00    +0.000 OA
BRANCH  24  27
ATOM     27  N   UNL     1       6.741   3.791  13.413  0.00  0.00    +0.000 NA
ATOM     28  H   UNL     1       6.995   2.913  13.866  0.00  0.00    +0.000 HD
ATOM     29  H   UNL     1       7.085   3.810  12.451  0.00  0.00    +0.000 HD
ENDBRANCH  24  27
ENDBRANCH  22  24
ENDBRANCH  16  22
ENDBRANCH   1  19
BRANCH   3  30
ATOM     30  C   UNL     1       1.806   2.538  21.507  0.00  0.00    +0.000 C 
ATOM     31  F   UNL     1       0.828   2.766  22.422  0.00  0.00    +0.000 F 
ATOM     32  F   UNL     1       1.406   1.470  20.764  0.00  0.00    +0.000 F 
ATOM     33  F   UNL     1       2.903   2.127  22.202  0.00  0.00    +0.000 F 
ENDBRANCH   3  30
TORSDOF 6
ENDMDL
MODEL 6
REMARK VINA RESULT:      -7.9      5.524      8.767
REMARK  Name = 
REMARK  6 active torsions:
REMARK  status: ('A' for Active; 'I' for Inactive)
REMARK    1  A    between atoms: N_1  and  S_2
REMARK    2  A    between atoms: S_2  and  N_5
REMARK    3  A    between atoms: N_5  and  C_6
REMARK    4  A    between atoms: C_9  and  N_10
REMARK    5  A    between atoms: C_12  and  C_13
REMARK    6  A    between atoms: C_18  and  C_19
REMARK                            x       y       z     vdW  Elec       q    Type
REMARK                         _______ _______ _______ _____ _____    ______ ____
ROOT
ATOM      1  N   UNL     1      -0.422  10.671  18.749  0.00  0.00    +0.000 N 
ATOM      2  N   UNL     1      -1.599  10.303  18.177  0.00  0.00    +0.000 NA
ATOM      3  C   UNL     1      -2.406  11.368  18.316  0.00  0.00    +0.000 A 
ATOM      4  C   UNL     1      -1.686  12.471  18.835  0.00  0.00    +0.000 A 
ATOM      5  C   UNL     1      -0.379  12.043  19.017  0.00  0.00    +0.000 A 
ENDROOT
BRANCH   5   6
ATOM      6  C   UNL     1       0.810  12.845  19.363  0.00  0.00    +0.000 A 
ATOM      7  C   UNL     1       1.277  12.890  20.683  0.00  0.00    +0.000 A 
ATOM      8  C   UNL     1       2.465  13.559  21.002  0.00  0.00    +0.000 A 
ATOM      9  C   UNL     1       3.233  14.168  20.001  0.00  0.00    +0.000 A 
ATOM     10  C   UNL     1       4.493  14.726  20.272  0.00  0.00    +0.000 A 
ATOM     11  C   UNL     1       5.257  15.291  19.249  0.00  0.00    +0.000 A 
ATOM     12  C   UNL     1       4.758  15.337  17.950  0.00  0.00    +0.000 A 
ATOM     13  C   UNL     1       3.499  14.805  17.670  0.00  0.00    +0.000 A 
ATOM     14  C   UNL     1       2.737  14.201  18.682  0.00  0.00    +0.000 A 
ATOM     15  C   UNL     1       1.506  13.592  18.398  0.00  0.00    +0.000 A 
ENDBRANCH   5   6
BRANCH   1  19
ATOM     16  C   UNL     1       2.358   7.585  19.474  0.00  0.00    +0.000 A 
ATOM     17  C   UNL     1       1.577   8.081  20.515  0.00  0.00    +0.000 A 
ATOM     18  C   UNL     1       0.699   9.147  20.281  0.00  0.00    +0.000 A 
ATOM     19  C   UNL     1       0.563   9.670  18.986  0.00  0.00    +0.000 A 
ATOM     20  C   UNL     1       1.358   9.172  17.948  0.00  0.00    +0.000 A 
ATOM     21  C   UNL     1       2.246   8.125  18.189  0.00  0.00    +0.000 A 
BRANCH  16  22
ATOM     22  N   UNL     1       3.231   6.474  19.706  0.00  0.00    +0.000 N 
ATOM     23  H   UNL     1       3.964   6.431  18.998  0.00  0.00    +0.000 HD
BRANCH  22  24
ATOM     24  S   UNL     1       2.470   4.977  19.688  0.00  0.00    +0.000 S 
ATOM     25  O   UNL     1       1.792   4.794  18.433  0.00  0.00    +0.000 OA
ATOM     26  O   UNL     1       1.872   4.701  20.968  0.00  0.00    +0.000 OA
BRANCH  24  27
ATOM     27  N   UNL     1       3.863   4.057  19.626  0.00  0.00    +0.000 NA
ATOM     28  H   UNL     1       4.504   4.376  20.353  0.00  0.00    +0.000 HD
ATOM     29  H   UNL     1       4.287   4.168  18.703  0.00  0.00    +0.000 HD
ENDBRANCH  24  27
ENDBRANCH  22  24
ENDBRANCH  16  22
ENDBRANCH   1  19
BRANCH   3  30
ATOM     30  C   UNL     1      -3.857  11.369  17.919  0.00  0.00    +0.000 C 
ATOM     31  F   UNL     1      -4.088  11.867  16.676  0.00  0.00    +0.000 F 
ATOM     32  F   UNL     1      -4.379  10.112  17.939  0.00  0.00    +0.000 F 
ATOM     33  F   UNL     1      -4.609  12.107  18.781  0.00  0.00    +0.000 F 
ENDBRANCH   3  30
TORSDOF 6
ENDMDL
MODEL 7
REMARK VINA RESULT:      -7.9      5.302      7.099
REMARK  Name = 
REMARK  6 active torsions:
REMARK  status: ('A' for Active; 'I' for Inactive)
REMARK    1  A    between atoms: N_1  and  S_2
REMARK    2  A    between atoms: S_2  and  N_5
REMARK    3  A    between atoms: N_5  and  C_6
REMARK    4  A    between atoms: C_9  and  N_10
REMARK    5  A    between atoms: C_12  and  C_13
REMARK    6  A    between atoms: C_18  and  C_19
REMARK                            x       y       z     vdW  Elec       q    Type
REMARK                         _______ _______ _______ _____ _____    ______ ____
ROOT
ATOM      1  N   UNL     1       5.445   4.104  15.730  0.00  0.00    +0.000 N 
ATOM      2  N   UNL     1       5.395   3.303  14.632  0.00  0.00    +0.000 NA
ATOM      3  C   UNL     1       6.151   3.921  13.710  0.00  0.00    +0.000 A 
ATOM      4  C   UNL     1       6.811   5.037  14.278  0.00  0.00    +0.000 A 
ATOM      5  C   UNL     1       6.430   5.090  15.611  0.00  0.00    +0.000 A 
ENDROOT
BRANCH   5   6
ATOM      6  C   UNL     1       6.964   5.946  16.686  0.00  0.00    +0.000 A 
ATOM      7  C   UNL     1       7.484   5.378  17.856  0.00  0.00    +0.000 A 
ATOM      8  C   UNL     1       8.092   6.175  18.834  0.00  0.00    +0.000 A 
ATOM      9  C   UNL     1       8.226   7.557  18.647  0.00  0.00    +0.000 A 
ATOM     10  C   UNL     1       8.949   8.358  19.546  0.00  0.00    +0.000 A 
ATOM     11  C   UNL     1       9.102   9.727  19.315  0.00  0.00    +0.000 A 
ATOM     12  C   UNL     1       8.507  10.318  18.204  0.00  0.00    +0.000 A 
ATOM     13  C   UNL     1       7.768   9.538  17.315  0.00  0.00    +0.000 A 
ATOM     14  C   UNL     1       7.637   8.156  17.515  0.00  0.00    +0.000 A 
ATOM     15  C   UNL     1       6.965   7.348  16.585  0.00  0.00    +0.000 A 
ENDBRANCH   5   6
BRANCH   1  19
ATOM     16  C   UNL     1       2.630   3.394  18.789  0.00  0.00    +0.000 A 
ATOM     17  C   UNL     1       2.891   4.696  18.366  0.00  0.00    +0.000 A 
ATOM     18  C   UNL     1       3.871   4.930  17.393  0.00  0.00    +0.000 A 
ATOM     19  C   UNL     1       4.541   3.849  16.801  0.00  0.00    +0.000 A 
ATOM     20  C   UNL     1       4.280   2.546  17.238  0.00  0.00    +0.000 A 
ATOM     21  C   UNL     1       3.320   2.318  18.221  0.00  0.00    +0.000 A 
BRANCH  16  22
ATOM     22  N   UNL     1       1.606   3.153  19.760  0.00  0.00    +0.000 N 
ATOM     23  H   UNL     1       0.911   3.900  19.751  0.00  0.00    +0.000 HD
BRANCH  22  24
ATOM     24  S   UNL     1       2.159   3.043  21.341  0.00  0.00    +0.000 S 
ATOM     25  O   UNL     1       3.467   2.446  21.356  0.00  0.00    +0.000 OA
ATOM     26  O   UNL     1       1.090   2.649  22.221  0.00  0.00    +0.000 OA
BRANCH  24  27
ATOM     27  N   UNL     1       2.370   4.682  21.583  0.00  0.00    +0.000 NA
ATOM     28  H   UNL     1       1.960   5.189  20.798  0.00  0.00    +0.000 HD
ATOM     29  H   UNL     1       3.371   4.877  21.650  0.00  0.00    +0.000 HD
ENDBRANCH  24  27
ENDBRANCH  22  24
ENDBRANCH  16  22
ENDBRANCH   1  19
BRANCH   3  30
ATOM     30  C   UNL     1       6.292   3.439  12.292  0.00  0.00    +0.000 C 
ATOM     31  F   UNL     1       6.694   2.146  12.187  0.00  0.00    +0.000 F 
ATOM     32  F   UNL     1       5.117   3.540  11.613  0.00  0.00    +0.000 F 
ATOM     33  F   UNL     1       7.196   4.186  11.600  0.00  0.00    +0.000 F 
ENDBRANCH   3  30
TORSDOF 6
ENDMDL
MODEL 8
REMARK VINA RESULT:      -7.9      5.449      8.990
REMARK  Name = 
REMARK  6 active torsions:
REMARK  status: ('A' for Active; 'I' for Inactive)
REMARK    1  A    between atoms: N_1  and  S_2
REMARK    2  A    between atoms: S_2  and  N_5
REMARK    3  A    between atoms: N_5  and  C_6
REMARK    4  A    between atoms: C_9  and  N_10
REMARK    5  A    between atoms: C_12  and  C_13
REMARK    6  A    between atoms: C_18  and  C_19
REMARK                            x       y       z     vdW  Elec       q    Type
REMARK                         _______ _______ _______ _____ _____    ______ ____
ROOT
ATOM      1  N   UNL     1      -0.142  10.493  18.575  0.00  0.00    +0.000 N 
ATOM      2  N   UNL     1      -1.334  10.138  18.025  0.00  0.00    +0.000 NA
ATOM      3  C   UNL     1      -2.100  11.239  18.105  0.00  0.00    +0.000 A 
ATOM      4  C   UNL     1      -1.337  12.341  18.561  0.00  0.00    +0.000 A 
ATOM      5  C   UNL     1      -0.047  11.875  18.766  0.00  0.00    +0.000 A 
ENDROOT
BRANCH   5   6
ATOM      6  C   UNL     1       1.172  12.649  19.066  0.00  0.00    +0.000 A 
ATOM      7  C   UNL     1       2.153  12.840  18.085  0.00  0.00    +0.000 A 
ATOM      8  C   UNL     1       3.260  13.663  18.326  0.00  0.00    +0.000 A 
ATOM      9  C   UNL     1       3.393  14.343  19.544  0.00  0.00    +0.000 A 
ATOM     10  C   UNL     1       4.419  15.277  19.761  0.00  0.00    +0.000 A 
ATOM     11  C   UNL     1       4.505  15.973  20.968  0.00  0.00    +0.000 A 
ATOM     12  C   UNL     1       3.590  15.719  21.986  0.00  0.00    +0.000 A 
ATOM     13  C   UNL     1       2.578  14.778  21.793  0.00  0.00    +0.000 A 
ATOM     14  C   UNL     1       2.458  14.100  20.570  0.00  0.00    +0.000 A 
ATOM     15  C   UNL     1       1.398  13.211  20.334  0.00  0.00    +0.000 A 
ENDBRANCH   5   6
BRANCH   1  19
ATOM     16  C   UNL     1       2.522   7.347  19.460  0.00  0.00    +0.000 A 
ATOM     17  C   UNL     1       1.721   7.888  20.463  0.00  0.00    +0.000 A 
ATOM     18  C   UNL     1       0.883   8.973  20.177  0.00  0.00    +0.000 A 
ATOM     19  C   UNL     1       0.805   9.470  18.867  0.00  0.00    +0.000 A 
ATOM     20  C   UNL     1       1.620   8.927  17.867  0.00  0.00    +0.000 A 
ATOM     21  C   UNL     1       2.468   7.861  18.161  0.00  0.00    +0.000 A 
BRANCH  16  22
ATOM     22  N   UNL     1       3.354   6.217  19.746  0.00  0.00    +0.000 N 
ATOM     23  H   UNL     1       4.027   6.060  18.995  0.00  0.00    +0.000 HD
BRANCH  22  24
ATOM     24  S   UNL     1       2.522   4.772  19.942  0.00  0.00    +0.000 S 
ATOM     25  O   UNL     1       1.578   4.608  18.869  0.00  0.00    +0.000 OA
ATOM     26  O   UNL     1       2.199   4.562  21.329  0.00  0.00    +0.000 OA
BRANCH  24  27
ATOM     27  N   UNL     1       3.812   3.764  19.614  0.00  0.00    +0.000 NA
ATOM     28  H   UNL     1       3.578   3.175  18.813  0.00  0.00    +0.000 HD
ATOM     29  H   UNL     1       3.995   3.189  20.438  0.00  0.00    +0.000 HD
ENDBRANCH  24  27
ENDBRANCH  22  24
ENDBRANCH  16  22
ENDBRANCH   1  19
BRANCH   3  30
ATOM     30  C   UNL     1      -3.551  11.272  17.709  0.00  0.00    +0.000 C 
ATOM     31  F   UNL     1      -4.301  12.139  18.438  0.00  0.00    +0.000 F 
ATOM     32  F   UNL     1      -3.702  11.626  16.403  0.00  0.00    +0.000 F 
ATOM     33  F   UNL     1      -4.131  10.047  17.840  0.00  0.00    +0.000 F 
ENDBRANCH   3  30
TORSDOF 6
ENDMDL
MODEL 9
REMARK VINA RESULT:      -7.9      4.261      7.012
REMARK  Name = 
REMARK  6 active torsions:
REMARK  status: ('A' for Active; 'I' for Inactive)
REMARK    1  A    between atoms: N_1  and  S_2
REMARK    2  A    between atoms: S_2  and  N_5
REMARK    3  A    between atoms: N_5  and  C_6
REMARK    4  A    between atoms: C_9  and  N_10
REMARK    5  A    between atoms: C_12  and  C_13
REMARK    6  A    between atoms: C_18  and  C_19
REMARK                            x       y       z     vdW  Elec       q    Type
REMARK                         _______ _______ _______ _____ _____    ______ ____
ROOT
ATOM      1  N   UNL     1       2.968   4.967  19.052  0.00  0.00    +0.000 N 
ATOM      2  N   UNL     1       2.792   3.674  19.434  0.00  0.00    +0.000 NA
ATOM      3  C   UNL     1       2.161   3.739  20.617  0.00  0.00    +0.000 A 
ATOM      4  C   UNL     1       1.794   5.074  20.910  0.00  0.00    +0.000 A 
ATOM      5  C   UNL     1       2.229   5.850  19.845  0.00  0.00    +0.000 A 
ENDROOT
BRANCH   5   6
ATOM      6  C   UNL     1       1.944   7.270  19.567  0.00  0.00    +0.000 A 
ATOM      7  C   UNL     1       2.028   7.770  18.261  0.00  0.00    +0.000 A 
ATOM      8  C   UNL     1       1.656   9.088  17.971  0.00  0.00    +0.000 A 
ATOM      9  C   UNL     1       1.156   9.927  18.975  0.00  0.00    +0.000 A 
ATOM     10  C   UNL     1       0.649  11.205  18.687  0.00  0.00    +0.000 A 
ATOM     11  C   UNL     1       0.118  12.005  19.700  0.00  0.00    +0.000 A 
ATOM     12  C   UNL     1       0.119  11.555  21.018  0.00  0.00    +0.000 A 
ATOM     13  C   UNL     1       0.638  10.296  21.322  0.00  0.00    +0.000 A 
ATOM     14  C   UNL     1       1.140   9.467  20.308  0.00  0.00    +0.000 A 
ATOM     15  C   UNL     1       1.591   8.168  20.589  0.00  0.00    +0.000 A 
ENDBRANCH   5   6
BRANCH   1  19
ATOM     16  C   UNL     1       5.376   5.808  15.694  0.00  0.00    +0.000 A 
ATOM     17  C   UNL     1       4.639   4.627  15.748  0.00  0.00    +0.000 A 
ATOM     18  C   UNL     1       3.890   4.325  16.892  0.00  0.00    +0.000 A 
ATOM     19  C   UNL     1       3.832   5.241  17.953  0.00  0.00    +0.000 A 
ATOM     20  C   UNL     1       4.583   6.421  17.895  0.00  0.00    +0.000 A 
ATOM     21  C   UNL     1       5.344   6.708  16.764  0.00  0.00    +0.000 A 
BRANCH  16  22
ATOM     22  N   UNL     1       6.116   6.132  14.512  0.00  0.00    +0.000 N 
ATOM     23  H   UNL     1       5.496   6.227  13.707  0.00  0.00    +0.000 HD
BRANCH  22  24
ATOM     24  S   UNL     1       7.273   4.994  14.082  0.00  0.00    +0.000 S 
ATOM     25  O   UNL     1       8.399   5.653  13.477  0.00  0.00    +0.000 OA
ATOM     26  O   UNL     1       6.645   3.820  13.534  0.00  0.00    +0.000 OA
BRANCH  24  27
ATOM     27  N   UNL     1       7.726   4.587  15.638  0.00  0.00    +0.000 NA
ATOM     28  H   UNL     1       7.346   3.668  15.864  0.00  0.00    +0.000 HD
ATOM     29  H   UNL     1       7.360   5.292  16.279  0.00  0.00    +0.000 HD
ENDBRANCH  24  27
ENDBRANCH  22  24
ENDBRANCH  16  22
ENDBRANCH   1  19
BRANCH   3  30
ATOM     30  C   UNL     1       1.860   2.534  21.466  0.00  0.00    +0.000 C 
ATOM     31  F   UNL     1       2.920   2.091  22.191  0.00  0.00    +0.000 F 
ATOM     32  F   UNL     1       0.858   2.787  22.352  0.00  0.00    +0.000 F 
ATOM     33  F   UNL     1       1.439   1.484  20.708  0.00  0.00    +0.000 F 
ENDBRANCH   3  30
TORSDOF 6
ENDMDL
