MODEL 1
REMARK VINA RESULT:      -8.2      0.000      0.000
REMARK  Name = 
REMARK  8 active torsions:
REMARK  status: ('A' for Active; 'I' for Inactive)
REMARK    1  A    between atoms: C_2  and  C_4
REMARK    2  A    between atoms: C_4  and  O_5
REMARK    3  A    between atoms: O_5  and  C_6
REMARK    4  A    between atoms: C_6  and  C_8
REMARK    5  A    between atoms: C_10  and  O_11
REMARK    6  A    between atoms: C_16  and  S_17
REMARK    7  A    between atoms: S_17  and  N_20
REMARK    8  A    between atoms: N_20  and  C_21
REMARK                            x       y       z     vdW  Elec       q    Type
REMARK                         _______ _______ _______ _____ _____    ______ ____
ROOT
ATOM      1  C   UNL     1       2.467   5.987  20.105  0.00  0.00    +0.000 A 
ATOM      2  C   UNL     1       1.827   5.178  21.047  0.00  0.00    +0.000 A 
ATOM      3  C   UNL     1       2.250   3.873  21.152  0.00  0.00    +0.000 A 
ATOM      4  N   UNL     1       3.221   3.332  20.399  0.00  0.00    +0.000 NA
ATOM      5  C   UNL     1       3.847   4.106  19.504  0.00  0.00    +0.000 A 
ATOM      6  C   UNL     1       4.845   3.537  18.715  0.00  0.00    +0.000 A 
ATOM      7  C   UNL     1       5.546   4.271  17.753  0.00  0.00    +0.000 A 
ATOM      8  C   UNL     1       5.249   5.618  17.583  0.00  0.00    +0.000 A 
ATOM      9  C   UNL     1       4.270   6.219  18.378  0.00  0.00    +0.000 A 
ATOM     10  C   UNL     1       3.526   5.467  19.317  0.00  0.00    +0.000 A 
ENDROOT
BRANCH   8  11
ATOM     11  S   UNL     1       6.137   6.619  16.410  0.00  0.00    +0.000 S 
ATOM     12  O   UNL     1       5.205   7.037  15.384  0.00  0.00    +0.000 OA
ATOM     13  O   UNL     1       6.902   7.581  17.171  0.00  0.00    +0.000 OA
BRANCH  11  14
ATOM     14  N   UNL     1       7.259   5.545  15.745  0.00  0.00    +0.000 N 
ATOM     15  H   UNL     1       7.762   5.028  16.464  0.00  0.00    +0.000 HD
BRANCH  14  16
ATOM     16  C   UNL     1       6.951   4.862  14.539  0.00  0.00    +0.000 A 
ATOM     17  C   UNL     1       7.682   5.119  13.376  0.00  0.00    +0.000 A 
ATOM     18  C   UNL     1       7.376   4.433  12.198  0.00  0.00    +0.000 A 
ATOM     19  C   UNL     1       6.326   3.521  12.189  0.00  0.00    +0.000 A 
ATOM     20  F   UNL     1       6.031   2.861  11.061  0.00  0.00    +0.000 F 
ATOM     21  C   UNL     1       5.582   3.276  13.337  0.00  0.00    +0.000 A 
ATOM     22  C   UNL     1       5.897   3.944  14.520  0.00  0.00    +0.000 A 
ENDBRANCH  14  16
ENDBRANCH  11  14
ENDBRANCH   8  11
BRANCH   1  23
ATOM     23  C   UNL     1       1.954   7.367  19.877  0.00  0.00    +0.000 C 
ATOM     24  O   UNL     1       1.994   7.949  18.805  0.00  0.00    +0.000 OA
BRANCH  23  25
ATOM     25  O   UNL     1       1.443   7.881  21.020  0.00  0.00    +0.000 OA
BRANCH  25  26
ATOM     26  C   UNL     1       0.511   8.947  20.812  0.00  0.00    +0.000 C 
BRANCH  26  28
ATOM     27  N   UNL     1       0.447  11.310  21.449  0.00  0.00    +0.000 N 
ATOM     28  C   UNL     1       0.638  10.028  21.881  0.00  0.00    +0.000 C 
ATOM     29  O   UNL     1       0.906   9.788  23.054  0.00  0.00    +0.000 OA
ATOM     30  H   UNL     1       0.640  12.053  22.107  0.00  0.00    +0.000 HD
ATOM     31  H   UNL     1       0.512  11.531  20.457  0.00  0.00    +0.000 HD
ENDBRANCH  26  28
ENDBRANCH  25  26
ENDBRANCH  23  25
ENDBRANCH   1  23
BRANCH   3  32
ATOM     32  O   UNL     1       1.664   3.010  22.028  0.00  0.00    +0.000 OA
ATOM     33  H   UNL     1       0.758   2.832  21.737  0.00  0.00    +0.000 HD
ENDBRANCH   3  32
TORSDOF 8
ENDMDL
MODEL 2
REMARK VINA RESULT:      -8.2      4.307      8.264
REMARK  Name = 
REMARK  8 active torsions:
REMARK  status: ('A' for Active; 'I' for Inactive)
REMARK    1  A    between atoms: C_2  and  C_4
REMARK    2  A    between atoms: C_4  and  O_5
REMARK    3  A    between atoms: O_5  and  C_6
REMARK    4  A    between atoms: C_6  and  C_8
REMARK    5  A    between atoms: C_10  and  O_11
REMARK    6  A    between atoms: C_16  and  S_17
REMARK    7  A    between atoms: S_17  and  N_20
REMARK    8  A    between atoms: N_20  and  C_21
REMARK                            x       y       z     vdW  Elec       q    Type
REMARK                         _______ _______ _______ _____ _____    ______ ____
ROOT
ATOM      1  C   UNL     1       2.900   5.436  19.576  0.00  0.00    +0.000 A 
ATOM      2  C   UNL     1       3.779   4.682  18.796  0.00  0.00    +0.000 A 
ATOM      3  C   UNL     1       4.313   5.285  17.681  0.00  0.00    +0.000 A 
ATOM      4  N   UNL     1       4.029   6.539  17.293  0.00  0.00    +0.000 NA
ATOM      5  C   UNL     1       3.197   7.271  18.043  0.00  0.00    +0.000 A 
ATOM      6  C   UNL     1       2.894   8.567  17.630  0.00  0.00    +0.000 A 
ATOM      7  C   UNL     1       2.032   9.399  18.350  0.00  0.00    +0.000 A 
ATOM      8  C   UNL     1       1.465   8.926  19.527  0.00  0.00    +0.000 A 
ATOM      9  C   UNL     1       1.770   7.639  19.977  0.00  0.00    +0.000 A 
ATOM     10  C   UNL     1       2.604   6.779  19.225  0.00  0.00    +0.000 A 
ENDROOT
BRANCH   8  11
ATOM     11  S   UNL     1       0.397   9.950  20.515  0.00  0.00    +0.000 S 
ATOM     12  O   UNL     1      -0.748   9.155  20.906  0.00  0.00    +0.000 OA
ATOM     13  O   UNL     1       1.232  10.605  21.498  0.00  0.00    +0.000 OA
BRANCH  11  14
ATOM     14  N   UNL     1      -0.098  11.156  19.440  0.00  0.00    +0.000 N 
ATOM     15  H   UNL     1       0.679  11.520  18.894  0.00  0.00    +0.000 HD
BRANCH  14  16
ATOM     16  C   UNL     1      -1.360  11.051  18.797  0.00  0.00    +0.000 A 
ATOM     17  C   UNL     1      -1.532  10.176  17.721  0.00  0.00    +0.000 A 
ATOM     18  C   UNL     1      -2.781  10.073  17.102  0.00  0.00    +0.000 A 
ATOM     19  C   UNL     1      -3.833  10.866  17.547  0.00  0.00    +0.000 A 
ATOM     20  F   UNL     1      -5.031  10.769  16.956  0.00  0.00    +0.000 F 
ATOM     21  C   UNL     1      -3.663  11.754  18.603  0.00  0.00    +0.000 A 
ATOM     22  C   UNL     1      -2.423  11.845  19.236  0.00  0.00    +0.000 A 
ENDBRANCH  14  16
ENDBRANCH  11  14
ENDBRANCH   8  11
BRANCH   1  23
ATOM     23  C   UNL     1       2.207   4.778  20.718  0.00  0.00    +0.000 C 
ATOM     24  O   UNL     1       2.730   4.537  21.795  0.00  0.00    +0.000 OA
BRANCH  23  25
ATOM     25  O   UNL     1       0.926   4.484  20.395  0.00  0.00    +0.000 OA
BRANCH  25  26
ATOM     26  C   UNL     1       0.678   3.086  20.219  0.00  0.00    +0.000 C 
BRANCH  26  28
ATOM     27  N   UNL     1       1.740   1.441  18.750  0.00  0.00    +0.000 N 
ATOM     28  C   UNL     1       1.049   2.617  18.815  0.00  0.00    +0.000 C 
ATOM     29  O   UNL     1       0.768   3.244  17.799  0.00  0.00    +0.000 OA
ATOM     30  H   UNL     1       2.102   1.166  17.846  0.00  0.00    +0.000 HD
ATOM     31  H   UNL     1       2.214   1.079  19.575  0.00  0.00    +0.000 HD
ENDBRANCH  26  28
ENDBRANCH  25  26
ENDBRANCH  23  25
ENDBRANCH   1  23
BRANCH   3  32
ATOM     32  O   UNL     1       5.161   4.613  16.853  0.00  0.00    +0.000 OA
ATOM     33  H   UNL     1       4.835   3.710  16.733  0.00  0.00    +0.000 HD
ENDBRANCH   3  32
TORSDOF 8
ENDMDL
MODEL 3
REMARK VINA RESULT:      -8.2      3.303      5.433
REMARK  Name = 
REMARK  8 active torsions:
REMARK  status: ('A' for Active; 'I' for Inactive)
REMARK    1  A    between atoms: C_2  and  C_4
REMARK    2  A    between atoms: C_4  and  O_5
REMARK    3  A    between atoms: O_5  and  C_6
REMARK    4  A    between atoms: C_6  and  C_8
REMARK    5  A    between atoms: C_10  and  O_11
REMARK    6  A    between atoms: C_16  and  S_17
REMARK    7  A    between atoms: S_17  and  N_20
REMARK    8  A    between atoms: N_20  and  C_21
REMARK                            x       y       z     vdW  Elec       q    Type
REMARK                         _______ _______ _______ _____ _____    ______ ____
ROOT
ATOM      1  C   UNL     1       1.863   5.963  20.307  0.00  0.00    +0.000 A 
ATOM      2  C   UNL     1       1.187   7.011  20.935  0.00  0.00    +0.000 A 
ATOM      3  C   UNL     1       1.296   8.262  20.372  0.00  0.00    +0.000 A 
ATOM      4  N   UNL     1       2.020   8.534  19.274  0.00  0.00    +0.000 NA
ATOM      5  C   UNL     1       2.660   7.532  18.661  0.00  0.00    +0.000 A 
ATOM      6  C   UNL     1       3.421   7.820  17.530  0.00  0.00    +0.000 A 
ATOM      7  C   UNL     1       4.125   6.836  16.831  0.00  0.00    +0.000 A 
ATOM      8  C   UNL     1       4.055   5.518  17.268  0.00  0.00    +0.000 A 
ATOM      9  C   UNL     1       3.279   5.196  18.384  0.00  0.00    +0.000 A 
ATOM     10  C   UNL     1       2.606   6.198  19.121  0.00  0.00    +0.000 A 
ENDROOT
BRANCH   8  11
ATOM     11  S   UNL     1       4.887   4.210  16.395  0.00  0.00    +0.000 S 
ATOM     12  O   UNL     1       4.139   2.988  16.603  0.00  0.00    +0.000 OA
ATOM     13  O   UNL     1       5.171   4.703  15.066  0.00  0.00    +0.000 OA
BRANCH  11  14
ATOM     14  N   UNL     1       6.378   4.096  17.183  0.00  0.00    +0.000 N 
ATOM     15  H   UNL     1       6.962   3.363  16.787  0.00  0.00    +0.000 HD
BRANCH  14  16
ATOM     16  C   UNL     1       7.024   5.275  17.641  0.00  0.00    +0.000 A 
ATOM     17  C   UNL     1       7.490   5.358  18.956  0.00  0.00    +0.000 A 
ATOM     18  C   UNL     1       8.133   6.519  19.392  0.00  0.00    +0.000 A 
ATOM     19  C   UNL     1       8.277   7.592  18.518  0.00  0.00    +0.000 A 
ATOM     20  F   UNL     1       8.894   8.706  18.934  0.00  0.00    +0.000 F 
ATOM     21  C   UNL     1       7.797   7.524  17.216  0.00  0.00    +0.000 A 
ATOM     22  C   UNL     1       7.172   6.358  16.771  0.00  0.00    +0.000 A 
ENDBRANCH  14  16
ENDBRANCH  11  14
ENDBRANCH   8  11
BRANCH   1  23
ATOM     23  C   UNL     1       1.869   4.622  20.955  0.00  0.00    +0.000 C 
ATOM     24  O   UNL     1       2.604   4.304  21.877  0.00  0.00    +0.000 OA
BRANCH  23  25
ATOM     25  O   UNL     1       0.951   3.809  20.380  0.00  0.00    +0.000 OA
BRANCH  25  26
ATOM     26  C   UNL     1       1.284   2.419  20.444  0.00  0.00    +0.000 C 
BRANCH  26  28
ATOM     27  N   UNL     1       1.844   1.794  18.145  0.00  0.00    +0.000 N 
ATOM     28  C   UNL     1       2.328   2.037  19.399  0.00  0.00    +0.000 C 
ATOM     29  O   UNL     1       3.525   1.935  19.648  0.00  0.00    +0.000 OA
ATOM     30  H   UNL     1       2.494   1.425  17.462  0.00  0.00    +0.000 HD
ATOM     31  H   UNL     1       0.855   1.598  18.007  0.00  0.00    +0.000 HD
ENDBRANCH  26  28
ENDBRANCH  25  26
ENDBRANCH  23  25
ENDBRANCH   1  23
BRANCH   3  32
ATOM     32  O   UNL     1       0.688   9.344  20.934  0.00  0.00    +0.000 OA
ATOM     33  H   UNL     1      -0.130   9.057  21.364  0.00  0.00    +0.000 HD
ENDBRANCH   3  32
TORSDOF 8
ENDMDL
MODEL 4
REMARK VINA RESULT:      -8.2      1.157      1.283
REMARK  Name = 
REMARK  8 active torsions:
REMARK  status: ('A' for Active; 'I' for Inactive)
REMARK    1  A    between atoms: C_2  and  C_4
REMARK    2  A    between atoms: C_4  and  O_5
REMARK    3  A    between atoms: O_5  and  C_6
REMARK    4  A    between atoms: C_6  and  C_8
REMARK    5  A    between atoms: C_10  and  O_11
REMARK    6  A    between atoms: C_16  and  S_17
REMARK    7  A    between atoms: S_17  and  N_20
REMARK    8  A    between atoms: N_20  and  C_21
REMARK                            x       y       z     vdW  Elec       q    Type
REMARK                         _______ _______ _______ _____ _____    ______ ____
ROOT
ATOM      1  C   UNL     1       2.404   5.832  19.611  0.00  0.00    +0.000 A 
ATOM      2  C   UNL     1       1.355   5.175  20.257  0.00  0.00    +0.000 A 
ATOM      3  C   UNL     1       1.425   3.804  20.346  0.00  0.00    +0.000 A 
ATOM      4  N   UNL     1       2.425   3.066  19.838  0.00  0.00    +0.000 NA
ATOM      5  C   UNL     1       3.440   3.690  19.228  0.00  0.00    +0.000 A 
ATOM      6  C   UNL     1       4.469   2.920  18.691  0.00  0.00    +0.000 A 
ATOM      7  C   UNL     1       5.564   3.489  18.033  0.00  0.00    +0.000 A 
ATOM      8  C   UNL     1       5.639   4.873  17.922  0.00  0.00    +0.000 A 
ATOM      9  C   UNL     1       4.633   5.670  18.473  0.00  0.00    +0.000 A 
ATOM     10  C   UNL     1       3.501   5.094  19.095  0.00  0.00    +0.000 A 
ENDROOT
BRANCH   8  11
ATOM     11  S   UNL     1       7.029   5.662  17.141  0.00  0.00    +0.000 S 
ATOM     12  O   UNL     1       7.377   6.830  17.924  0.00  0.00    +0.000 OA
ATOM     13  O   UNL     1       7.998   4.627  16.858  0.00  0.00    +0.000 OA
BRANCH  11  14
ATOM     14  N   UNL     1       6.414   6.153  15.645  0.00  0.00    +0.000 N 
ATOM     15  H   UNL     1       6.613   7.133  15.456  0.00  0.00    +0.000 HD
BRANCH  14  16
ATOM     16  C   UNL     1       6.438   5.254  14.545  0.00  0.00    +0.000 A 
ATOM     17  C   UNL     1       7.491   5.290  13.628  0.00  0.00    +0.000 A 
ATOM     18  C   UNL     1       7.508   4.395  12.556  0.00  0.00    +0.000 A 
ATOM     19  C   UNL     1       6.460   3.494  12.397  0.00  0.00    +0.000 A 
ATOM     20  F   UNL     1       6.475   2.634  11.371  0.00  0.00    +0.000 F 
ATOM     21  C   UNL     1       5.399   3.468  13.295  0.00  0.00    +0.000 A 
ATOM     22  C   UNL     1       5.388   4.347  14.378  0.00  0.00    +0.000 A 
ENDBRANCH  14  16
ENDBRANCH  11  14
ENDBRANCH   8  11
BRANCH   1  23
ATOM     23  C   UNL     1       2.303   7.301  19.387  0.00  0.00    +0.000 C 
ATOM     24  O   UNL     1       2.566   7.859  18.333  0.00  0.00    +0.000 OA
BRANCH  23  25
ATOM     25  O   UNL     1       1.881   7.927  20.511  0.00  0.00    +0.000 OA
BRANCH  25  26
ATOM     26  C   UNL     1       1.090   9.093  20.264  0.00  0.00    +0.000 C 
BRANCH  26  28
ATOM     27  N   UNL     1       0.683   9.247  22.673  0.00  0.00    +0.000 N 
ATOM     28  C   UNL     1       0.921   9.942  21.522  0.00  0.00    +0.000 C 
ATOM     29  O   UNL     1       0.978  11.167  21.520  0.00  0.00    +0.000 OA
ATOM     30  H   UNL     1       0.450   9.786  23.498  0.00  0.00    +0.000 HD
ATOM     31  H   UNL     1       0.355   8.284  22.633  0.00  0.00    +0.000 HD
ENDBRANCH  26  28
ENDBRANCH  25  26
ENDBRANCH  23  25
ENDBRANCH   1  23
BRANCH   3  32
ATOM     32  O   UNL     1       0.433   3.084  20.939  0.00  0.00    +0.000 OA
ATOM     33  H   UNL     1      -0.402   3.261  20.483  0.00  0.00    +0.000 HD
ENDBRANCH   3  32
TORSDOF 8
ENDMDL
MODEL 5
REMARK VINA RESULT:      -8.2      0.816      1.215
REMARK  Name = 
REMARK  8 active torsions:
REMARK  status: ('A' for Active; 'I' for Inactive)
REMARK    1  A    between atoms: C_2  and  C_4
REMARK    2  A    between atoms: C_4  and  O_5
REMARK    3  A    between atoms: O_5  and  C_6
REMARK    4  A    between atoms: C_6  and  C_8
REMARK    5  A    between atoms: C_10  and  O_11
REMARK    6  A    between atoms: C_16  and  S_17
REMARK    7  A    between atoms: S_17  and  N_20
REMARK    8  A    between atoms: N_20  and  C_21
REMARK                            x       y       z     vdW  Elec       q    Type
REMARK                         _______ _______ _______ _____ _____    ______ ____
ROOT
ATOM      1  C   UNL     1       2.335   5.864  20.011  0.00  0.00    +0.000 A 
ATOM      2  C   UNL     1       1.450   5.091  20.765  0.00  0.00    +0.000 A 
ATOM      3  C   UNL     1       1.722   3.748  20.879  0.00  0.00    +0.000 A 
ATOM      4  N   UNL     1       2.770   3.139  20.300  0.00  0.00    +0.000 NA
ATOM      5  C   UNL     1       3.628   3.876  19.587  0.00  0.00    +0.000 A 
ATOM      6  C   UNL     1       4.706   3.239  18.977  0.00  0.00    +0.000 A 
ATOM      7  C   UNL     1       5.649   3.931  18.210  0.00  0.00    +0.000 A 
ATOM      8  C   UNL     1       5.516   5.307  18.060  0.00  0.00    +0.000 A 
ATOM      9  C   UNL     1       4.459   5.975  18.681  0.00  0.00    +0.000 A 
ATOM     10  C   UNL     1       3.477   5.269  19.416  0.00  0.00    +0.000 A 
ENDROOT
BRANCH   8  11
ATOM     11  S   UNL     1       6.707   6.254  17.137  0.00  0.00    +0.000 S 
ATOM     12  O   UNL     1       5.982   7.116  16.227  0.00  0.00    +0.000 OA
ATOM     13  O   UNL     1       7.651   6.789  18.092  0.00  0.00    +0.000 OA
BRANCH  11  14
ATOM     14  N   UNL     1       7.544   5.082  16.254  0.00  0.00    +0.000 N 
ATOM     15  H   UNL     1       7.932   4.359  16.855  0.00  0.00    +0.000 HD
BRANCH  14  16
ATOM     16  C   UNL     1       7.064   4.686  14.977  0.00  0.00    +0.000 A 
ATOM     17  C   UNL     1       5.960   3.835  14.872  0.00  0.00    +0.000 A 
ATOM     18  C   UNL     1       5.491   3.460  13.611  0.00  0.00    +0.000 A 
ATOM     19  C   UNL     1       6.145   3.917  12.472  0.00  0.00    +0.000 A 
ATOM     20  F   UNL     1       5.696   3.560  11.262  0.00  0.00    +0.000 F 
ATOM     21  C   UNL     1       7.256   4.747  12.570  0.00  0.00    +0.000 A 
ATOM     22  C   UNL     1       7.716   5.140  13.827  0.00  0.00    +0.000 A 
ENDBRANCH  14  16
ENDBRANCH  11  14
ENDBRANCH   8  11
BRANCH   1  23
ATOM     23  C   UNL     1       2.007   7.296  19.763  0.00  0.00    +0.000 C 
ATOM     24  O   UNL     1       2.010   7.824  18.663  0.00  0.00    +0.000 OA
BRANCH  23  25
ATOM     25  O   UNL     1       1.707   7.925  20.925  0.00  0.00    +0.000 OA
BRANCH  25  26
ATOM     26  C   UNL     1       1.089   9.204  20.750  0.00  0.00    +0.000 C 
BRANCH  26  28
ATOM     27  N   UNL     1      -0.673  10.593  21.727  0.00  0.00    +0.000 N 
ATOM     28  C   UNL     1      -0.205   9.322  21.549  0.00  0.00    +0.000 C 
ATOM     29  O   UNL     1      -0.795   8.357  22.023  0.00  0.00    +0.000 OA
ATOM     30  H   UNL     1      -1.462  10.712  22.350  0.00  0.00    +0.000 HD
ATOM     31  H   UNL     1      -0.055  11.390  21.592  0.00  0.00    +0.000 HD
ENDBRANCH  26  28
ENDBRANCH  25  26
ENDBRANCH  23  25
ENDBRANCH   1  23
BRANCH   3  32
ATOM     32  O   UNL     1       0.898   2.917  21.577  0.00  0.00    +0.000 OA
ATOM     33  H   UNL     1       0.035   2.888  21.139  0.00  0.00    +0.000 HD
ENDBRANCH   3  32
TORSDOF 8
ENDMDL
MODEL 6
REMARK VINA RESULT:      -8.1      1.239      1.880
REMARK  Name = 
REMARK  8 active torsions:
REMARK  status: ('A' for Active; 'I' for Inactive)
REMARK    1  A    between atoms: C_2  and  C_4
REMARK    2  A    between atoms: C_4  and  O_5
REMARK    3  A    between atoms: O_5  and  C_6
REMARK    4  A    between atoms: C_6  and  C_8
REMARK    5  A    between atoms: C_10  and  O_11
REMARK    6  A    between atoms: C_16  and  S_17
REMARK    7  A    between atoms: S_17  and  N_20
REMARK    8  A    between atoms: N_20  and  C_21
REMARK                            x       y       z     vdW  Elec       q    Type
REMARK                         _______ _______ _______ _____ _____    ______ ____
ROOT
ATOM      1  C   UNL     1       2.352   5.900  20.027  0.00  0.00    +0.000 A 
ATOM      2  C   UNL     1       1.464   5.127  20.778  0.00  0.00    +0.000 A 
ATOM      3  C   UNL     1       1.738   3.784  20.898  0.00  0.00    +0.000 A 
ATOM      4  N   UNL     1       2.790   3.175  20.327  0.00  0.00    +0.000 NA
ATOM      5  C   UNL     1       3.651   3.912  19.616  0.00  0.00    +0.000 A 
ATOM      6  C   UNL     1       4.734   3.275  19.014  0.00  0.00    +0.000 A 
ATOM      7  C   UNL     1       5.679   3.966  18.250  0.00  0.00    +0.000 A 
ATOM      8  C   UNL     1       5.545   5.341  18.095  0.00  0.00    +0.000 A 
ATOM      9  C   UNL     1       4.483   6.009  18.708  0.00  0.00    +0.000 A 
ATOM     10  C   UNL     1       3.499   5.304  19.440  0.00  0.00    +0.000 A 
ENDROOT
BRANCH   8  11
ATOM     11  S   UNL     1       6.739   6.288  17.176  0.00  0.00    +0.000 S 
ATOM     12  O   UNL     1       6.019   7.145  16.259  0.00  0.00    +0.000 OA
ATOM     13  O   UNL     1       7.677   6.828  18.135  0.00  0.00    +0.000 OA
BRANCH  11  14
ATOM     14  N   UNL     1       7.584   5.114  16.302  0.00  0.00    +0.000 N 
ATOM     15  H   UNL     1       7.960   4.387  16.907  0.00  0.00    +0.000 HD
BRANCH  14  16
ATOM     16  C   UNL     1       7.122   4.725  15.017  0.00  0.00    +0.000 A 
ATOM     17  C   UNL     1       6.013   3.884  14.892  0.00  0.00    +0.000 A 
ATOM     18  C   UNL     1       5.561   3.515  13.622  0.00  0.00    +0.000 A 
ATOM     19  C   UNL     1       6.239   3.968  12.495  0.00  0.00    +0.000 A 
ATOM     20  F   UNL     1       5.807   3.617  11.277  0.00  0.00    +0.000 F 
ATOM     21  C   UNL     1       7.355   4.788  12.613  0.00  0.00    +0.000 A 
ATOM     22  C   UNL     1       7.798   5.174  13.879  0.00  0.00    +0.000 A 
ENDBRANCH  14  16
ENDBRANCH  11  14
ENDBRANCH   8  11
BRANCH   1  23
ATOM     23  C   UNL     1       2.023   7.330  19.773  0.00  0.00    +0.000 C 
ATOM     24  O   UNL     1       1.918   8.179  20.644  0.00  0.00    +0.000 OA
BRANCH  23  25
ATOM     25  O   UNL     1       1.856   7.554  18.448  0.00  0.00    +0.000 OA
BRANCH  25  26
ATOM     26  C   UNL     1       2.118   8.902  18.049  0.00  0.00    +0.000 C 
BRANCH  26  28
ATOM     27  N   UNL     1       1.088  10.770  19.250  0.00  0.00    +0.000 N 
ATOM     28  C   UNL     1       0.916   9.810  18.294  0.00  0.00    +0.000 C 
ATOM     29  O   UNL     1      -0.148   9.695  17.695  0.00  0.00    +0.000 OA
ATOM     30  H   UNL     1       0.273  11.308  19.517  0.00  0.00    +0.000 HD
ATOM     31  H   UNL     1       1.839  10.686  19.932  0.00  0.00    +0.000 HD
ENDBRANCH  26  28
ENDBRANCH  25  26
ENDBRANCH  23  25
ENDBRANCH   1  23
BRANCH   3  32
ATOM     32  O   UNL     1       0.911   2.955  21.594  0.00  0.00    +0.000 OA
ATOM     33  H   UNL     1       0.031   2.976  21.190  0.00  0.00    +0.000 HD
ENDBRANCH   3  32
TORSDOF 8
ENDMDL
MODEL 7
REMARK VINA RESULT:      -8.1      3.253      5.361
REMARK  Name = 
REMARK  8 active torsions:
REMARK  status: ('A' for Active; 'I' for Inactive)
REMARK    1  A    between atoms: C_2  and  C_4
REMARK    2  A    between atoms: C_4  and  O_5
REMARK    3  A    between atoms: O_5  and  C_6
REMARK    4  A    between atoms: C_6  and  C_8
REMARK    5  A    between atoms: C_10  and  O_11
REMARK    6  A    between atoms: C_16  and  S_17
REMARK    7  A    between atoms: S_17  and  N_20
REMARK    8  A    between atoms: N_20  and  C_21
REMARK                            x       y       z     vdW  Elec       q    Type
REMARK                         _______ _______ _______ _____ _____    ______ ____
ROOT
ATOM      1  C   UNL     1       1.707   5.717  20.296  0.00  0.00    +0.000 A 
ATOM      2  C   UNL     1       1.061   6.723  21.017  0.00  0.00    +0.000 A 
ATOM      3  C   UNL     1       1.246   8.020  20.598  0.00  0.00    +0.000 A 
ATOM      4  N   UNL     1       2.016   8.374  19.556  0.00  0.00    +0.000 NA
ATOM      5  C   UNL     1       2.628   7.413  18.854  0.00  0.00    +0.000 A 
ATOM      6  C   UNL     1       3.437   7.784  17.782  0.00  0.00    +0.000 A 
ATOM      7  C   UNL     1       4.117   6.847  16.998  0.00  0.00    +0.000 A 
ATOM      8  C   UNL     1       3.971   5.495  17.286  0.00  0.00    +0.000 A 
ATOM      9  C   UNL     1       3.147   5.093  18.339  0.00  0.00    +0.000 A 
ATOM     10  C   UNL     1       2.498   6.042  19.164  0.00  0.00    +0.000 A 
ENDROOT
BRANCH   8  11
ATOM     11  S   UNL     1       4.769   4.249  16.297  0.00  0.00    +0.000 S 
ATOM     12  O   UNL     1       4.038   3.010  16.465  0.00  0.00    +0.000 OA
ATOM     13  O   UNL     1       4.989   4.824  14.989  0.00  0.00    +0.000 OA
BRANCH  11  14
ATOM     14  N   UNL     1       6.296   4.100  17.008  0.00  0.00    +0.000 N 
ATOM     15  H   UNL     1       6.867   3.401  16.537  0.00  0.00    +0.000 HD
BRANCH  14  16
ATOM     16  C   UNL     1       6.953   5.254  17.512  0.00  0.00    +0.000 A 
ATOM     17  C   UNL     1       7.165   6.362  16.687  0.00  0.00    +0.000 A 
ATOM     18  C   UNL     1       7.803   7.495  17.197  0.00  0.00    +0.000 A 
ATOM     19  C   UNL     1       8.248   7.496  18.515  0.00  0.00    +0.000 A 
ATOM     20  F   UNL     1       8.860   8.581  19.006  0.00  0.00    +0.000 F 
ATOM     21  C   UNL     1       8.060   6.389  19.334  0.00  0.00    +0.000 A 
ATOM     22  C   UNL     1       7.404   5.264  18.834  0.00  0.00    +0.000 A 
ENDBRANCH  14  16
ENDBRANCH  11  14
ENDBRANCH   8  11
BRANCH   1  23
ATOM     23  C   UNL     1       1.630   4.315  20.793  0.00  0.00    +0.000 C 
ATOM     24  O   UNL     1       0.668   3.580  20.639  0.00  0.00    +0.000 OA
BRANCH  23  25
ATOM     25  O   UNL     1       2.771   3.974  21.439  0.00  0.00    +0.000 OA
BRANCH  25  26
ATOM     26  C   UNL     1       3.144   2.603  21.272  0.00  0.00    +0.000 C 
BRANCH  26  28
ATOM     27  N   UNL     1       3.363   1.675  19.018  0.00  0.00    +0.000 N 
ATOM     28  C   UNL     1       3.973   2.390  20.009  0.00  0.00    +0.000 C 
ATOM     29  O   UNL     1       5.118   2.811  19.875  0.00  0.00    +0.000 OA
ATOM     30  H   UNL     1       3.929   1.417  18.218  0.00  0.00    +0.000 HD
ATOM     31  H   UNL     1       2.554   1.094  19.228  0.00  0.00    +0.000 HD
ENDBRANCH  26  28
ENDBRANCH  25  26
ENDBRANCH  23  25
ENDBRANCH   1  23
BRANCH   3  32
ATOM     32  O   UNL     1       0.671   9.064  21.258  0.00  0.00    +0.000 OA
ATOM     33  H   UNL     1      -0.112   9.354  20.768  0.00  0.00    +0.000 HD
ENDBRANCH   3  32
TORSDOF 8
ENDMDL
MODEL 8
REMARK VINA RESULT:      -8.0      4.168      8.372
REMARK  Name = 
REMARK  8 active torsions:
REMARK  status: ('A' for Active; 'I' for Inactive)
REMARK    1  A    between atoms: C_2  and  C_4
REMARK    2  A    between atoms: C_4  and  O_5
REMARK    3  A    between atoms: O_5  and  C_6
REMARK    4  A    between atoms: C_6  and  C_8
REMARK    5  A    between atoms: C_10  and  O_11
REMARK    6  A    between atoms: C_16  and  S_17
REMARK    7  A    between atoms: S_17  and  N_20
REMARK    8  A    between atoms: N_20  and  C_21
REMARK                            x       y       z     vdW  Elec       q    Type
REMARK                         _______ _______ _______ _____ _____    ______ ____
ROOT
ATOM      1  C   UNL     1       4.995   5.909  17.718  0.00  0.00    +0.000 A 
ATOM      2  C   UNL     1       5.485   4.647  18.063  0.00  0.00    +0.000 A 
ATOM      3  C   UNL     1       4.840   3.972  19.073  0.00  0.00    +0.000 A 
ATOM      4  N   UNL     1       3.786   4.456  19.750  0.00  0.00    +0.000 NA
ATOM      5  C   UNL     1       3.304   5.659  19.416  0.00  0.00    +0.000 A 
ATOM      6  C   UNL     1       2.220   6.164  20.130  0.00  0.00    +0.000 A 
ATOM      7  C   UNL     1       1.656   7.413  19.851  0.00  0.00    +0.000 A 
ATOM      8  C   UNL     1       2.185   8.175  18.816  0.00  0.00    +0.000 A 
ATOM      9  C   UNL     1       3.257   7.682  18.068  0.00  0.00    +0.000 A 
ATOM     10  C   UNL     1       3.859   6.441  18.380  0.00  0.00    +0.000 A 
ENDROOT
BRANCH   8  11
ATOM     11  S   UNL     1       1.485   9.751  18.377  0.00  0.00    +0.000 S 
ATOM     12  O   UNL     1       1.084  10.416  19.599  0.00  0.00    +0.000 OA
ATOM     13  O   UNL     1       2.397  10.373  17.443  0.00  0.00    +0.000 OA
BRANCH  11  14
ATOM     14  N   UNL     1       0.109   9.337  17.487  0.00  0.00    +0.000 N 
ATOM     15  H   UNL     1       0.029   8.330  17.358  0.00  0.00    +0.000 HD
BRANCH  14  16
ATOM     16  C   UNL     1      -1.092  10.074  17.663  0.00  0.00    +0.000 A 
ATOM     17  C   UNL     1      -1.254  10.902  18.777  0.00  0.00    +0.000 A 
ATOM     18  C   UNL     1      -2.436  11.630  18.934  0.00  0.00    +0.000 A 
ATOM     19  C   UNL     1      -3.451  11.500  17.993  0.00  0.00    +0.000 A 
ATOM     20  F   UNL     1      -4.585  12.198  18.141  0.00  0.00    +0.000 F 
ATOM     21  C   UNL     1      -3.305  10.662  16.894  0.00  0.00    +0.000 A 
ATOM     22  C   UNL     1      -2.118   9.949  16.723  0.00  0.00    +0.000 A 
ENDBRANCH  14  16
ENDBRANCH  11  14
ENDBRANCH   8  11
BRANCH   1  23
ATOM     23  C   UNL     1       5.743   6.720  16.717  0.00  0.00    +0.000 C 
ATOM     24  O   UNL     1       6.644   7.496  16.992  0.00  0.00    +0.000 OA
BRANCH  23  25
ATOM     25  O   UNL     1       5.282   6.477  15.466  0.00  0.00    +0.000 OA
BRANCH  25  26
ATOM     26  C   UNL     1       5.292   5.094  15.102  0.00  0.00    +0.000 C 
BRANCH  26  28
ATOM     27  N   UNL     1       6.475   3.594  13.572  0.00  0.00    +0.000 N 
ATOM     28  C   UNL     1       6.562   4.716  14.345  0.00  0.00    +0.000 C 
ATOM     29  O   UNL     1       7.607   5.354  14.422  0.00  0.00    +0.000 OA
ATOM     30  H   UNL     1       7.331   3.253  13.153  0.00  0.00    +0.000 HD
ATOM     31  H   UNL     1       5.727   2.921  13.728  0.00  0.00    +0.000 HD
ENDBRANCH  26  28
ENDBRANCH  25  26
ENDBRANCH  23  25
ENDBRANCH   1  23
BRANCH   3  32
ATOM     32  O   UNL     1       5.266   2.746  19.488  0.00  0.00    +0.000 OA
ATOM     33  H   UNL     1       5.029   2.087  18.820  0.00  0.00    +0.000 HD
ENDBRANCH   3  32
TORSDOF 8
ENDMDL
MODEL 9
REMARK VINA RESULT:      -8.0      3.946      7.949
REMARK  Name = 
REMARK  8 active torsions:
REMARK  status: ('A' for Active; 'I' for Inactive)
REMARK    1  A    between atoms: C_2  and  C_4
REMARK    2  A    between atoms: C_4  and  O_5
REMARK    3  A    between atoms: O_5  and  C_6
REMARK    4  A    between atoms: C_6  and  C_8
REMARK    5  A    between atoms: C_10  and  O_11
REMARK    6  A    between atoms: C_16  and  S_17
REMARK    7  A    between atoms: S_17  and  N_20
REMARK    8  A    between atoms: N_20  and  C_21
REMARK                            x       y       z     vdW  Elec       q    Type
REMARK                         _______ _______ _______ _____ _____    ______ ____
ROOT
ATOM      1  C   UNL     1       3.958   5.228  17.932  0.00  0.00    +0.000 A 
ATOM      2  C   UNL     1       4.291   3.938  17.511  0.00  0.00    +0.000 A 
ATOM      3  C   UNL     1       3.646   2.887  18.121  0.00  0.00    +0.000 A 
ATOM      4  N   UNL     1       2.735   3.027  19.099  0.00  0.00    +0.000 NA
ATOM      5  C   UNL     1       2.403   4.260  19.497  0.00  0.00    +0.000 A 
ATOM      6  C   UNL     1       1.469   4.401  20.521  0.00  0.00    +0.000 A 
ATOM      7  C   UNL     1       1.068   5.651  21.002  0.00  0.00    +0.000 A 
ATOM      8  C   UNL     1       1.608   6.797  20.432  0.00  0.00    +0.000 A 
ATOM      9  C   UNL     1       2.529   6.686  19.387  0.00  0.00    +0.000 A 
ATOM     10  C   UNL     1       2.972   5.422  18.933  0.00  0.00    +0.000 A 
ENDROOT
BRANCH   8  11
ATOM     11  S   UNL     1       1.105   8.419  20.964  0.00  0.00    +0.000 S 
ATOM     12  O   UNL     1      -0.275   8.339  21.396  0.00  0.00    +0.000 OA
ATOM     13  O   UNL     1       2.142   8.916  21.840  0.00  0.00    +0.000 OA
BRANCH  11  14
ATOM     14  N   UNL     1       1.199   9.344  19.553  0.00  0.00    +0.000 N 
ATOM     15  H   UNL     1       1.827   8.929  18.868  0.00  0.00    +0.000 HD
BRANCH  14  16
ATOM     16  C   UNL     1       0.039  10.003  19.065  0.00  0.00    +0.000 A 
ATOM     17  C   UNL     1      -0.543   9.605  17.858  0.00  0.00    +0.000 A 
ATOM     18  C   UNL     1      -1.689  10.255  17.393  0.00  0.00    +0.000 A 
ATOM     19  C   UNL     1      -2.222  11.311  18.124  0.00  0.00    +0.000 A 
ATOM     20  F   UNL     1      -3.321  11.935  17.680  0.00  0.00    +0.000 F 
ATOM     21  C   UNL     1      -1.636  11.726  19.314  0.00  0.00    +0.000 A 
ATOM     22  C   UNL     1      -0.503  11.067  19.792  0.00  0.00    +0.000 A 
ENDBRANCH  14  16
ENDBRANCH  11  14
ENDBRANCH   8  11
BRANCH   1  23
ATOM     23  C   UNL     1       4.724   6.382  17.383  0.00  0.00    +0.000 C 
ATOM     24  O   UNL     1       4.347   7.081  16.455  0.00  0.00    +0.000 OA
BRANCH  23  25
ATOM     25  O   UNL     1       5.890   6.543  18.052  0.00  0.00    +0.000 OA
BRANCH  25  26
ATOM     26  C   UNL     1       7.051   6.479  17.219  0.00  0.00    +0.000 C 
BRANCH  26  28
ATOM     27  N   UNL     1       7.759   4.353  18.207  0.00  0.00    +0.000 N 
ATOM     28  C   UNL     1       7.548   5.046  17.049  0.00  0.00    +0.000 C 
ATOM     29  O   UNL     1       7.763   4.533  15.955  0.00  0.00    +0.000 OA
ATOM     30  H   UNL     1       8.198   3.445  18.129  0.00  0.00    +0.000 HD
ATOM     31  H   UNL     1       7.858   4.850  19.090  0.00  0.00    +0.000 HD
ENDBRANCH  26  28
ENDBRANCH  25  26
ENDBRANCH  23  25
ENDBRANCH   1  23
BRANCH   3  32
ATOM     32  O   UNL     1       3.927   1.597  17.788  0.00  0.00    +0.000 OA
ATOM     33  H   UNL     1       3.554   1.009  18.461  0.00  0.00    +0.000 HD
ENDBRANCH   3  32
TORSDOF 8
ENDMDL
