MODEL 1
REMARK VINA RESULT:      -8.1      0.000      0.000
REMARK  Name = 
REMARK  8 active torsions:
REMARK  status: ('A' for Active; 'I' for Inactive)
REMARK    1  A    between atoms: O_1  and  C_2
REMARK    2  A    between atoms: C_2  and  C_3
REMARK    3  A    between atoms: C_2  and  C_17
REMARK    4  A    between atoms: C_2  and  C_23
REMARK    5  A    between atoms: C_3  and  C_4
REMARK    6  A    between atoms: N_6  and  C_7
REMARK    7  A    between atoms: C_7  and  C_8
REMARK    8  A    between atoms: C_17  and  N_18
REMARK                            x       y       z     vdW  Elec       q    Type
REMARK                         _______ _______ _______ _____ _____    ______ ____
ROOT
ATOM      1  C   UNL     1       3.524   4.737  18.286  0.00  0.00    +0.000 C 
ENDROOT
BRANCH   1   2
ATOM      2  C   UNL     1       4.684   4.874  17.299  0.00  0.00    +0.000 A 
ATOM      3  C   UNL     1       4.517   4.627  15.923  0.00  0.00    +0.000 A 
ATOM      4  C   UNL     1       5.613   4.644  15.054  0.00  0.00    +0.000 A 
ATOM      5  C   UNL     1       6.882   4.913  15.549  0.00  0.00    +0.000 A 
ATOM      6  F   UNL     1       7.933   4.898  14.718  0.00  0.00    +0.000 F 
ATOM      7  C   UNL     1       7.077   5.188  16.893  0.00  0.00    +0.000 A 
ATOM      8  C   UNL     1       5.982   5.172  17.749  0.00  0.00    +0.000 A 
ATOM      9  F   UNL     1       6.194   5.417  19.050  0.00  0.00    +0.000 F 
ENDBRANCH   1   2
BRANCH   1  10
ATOM     10  O   UNL     1       2.278   4.568  17.575  0.00  0.00    +0.000 OA
ATOM     11  H   UNL     1       2.458   4.216  16.687  0.00  0.00    +0.000 HD
ENDBRANCH   1  10
BRANCH   1  12
ATOM     12  C   UNL     1       3.376   5.928  19.280  0.00  0.00    +0.000 C 
BRANCH  12  13
ATOM     13  C   UNL     1       2.703   7.173  18.808  0.00  0.00    +0.000 A 
ATOM     14  C   UNL     1       1.874   8.009  19.535  0.00  0.00    +0.000 A 
ATOM     15  N   UNL     1       1.682   9.084  18.717  0.00  0.00    +0.000 N 
ATOM     16  N   UNL     1       2.312   8.910  17.539  0.00  0.00    +0.000 NA
ATOM     17  N   UNL     1       2.941   7.742  17.588  0.00  0.00    +0.000 NA
BRANCH  15  18
ATOM     18  C   UNL     1       1.118  10.376  19.077  0.00  0.00    +0.000 C 
BRANCH  18  19
ATOM     19  C   UNL     1      -0.351  10.504  18.756  0.00  0.00    +0.000 A 
ATOM     20  C   UNL     1      -0.910   9.834  17.656  0.00  0.00    +0.000 A 
ATOM     21  C   UNL     1      -2.245  10.034  17.301  0.00  0.00    +0.000 A 
ATOM     22  C   UNL     1      -3.041  10.910  18.037  0.00  0.00    +0.000 A 
ATOM     23  C   UNL     1      -2.500  11.573  19.135  0.00  0.00    +0.000 A 
ATOM     24 BR   UNL     1      -3.574  12.771  20.128  0.00  0.00    +0.000 Br
ATOM     25  C   UNL     1      -1.166  11.377  19.500  0.00  0.00    +0.000 A 
ENDBRANCH  18  19
ENDBRANCH  15  18
ENDBRANCH  12  13
ENDBRANCH   1  12
BRANCH   1  26
ATOM     26  C   UNL     1       3.717   3.462  19.164  0.00  0.00    +0.000 C 
BRANCH  26  27
ATOM     27  N   UNL     1       2.695   3.219  20.162  0.00  0.00    +0.000 N 
ATOM     28  C   UNL     1       2.859   2.907  21.476  0.00  0.00    +0.000 A 
ATOM     29  N   UNL     1       1.695   2.609  22.006  0.00  0.00    +0.000 NA
ATOM     30  C   UNL     1       0.836   2.746  20.954  0.00  0.00    +0.000 A 
ATOM     31  N   UNL     1       1.404   3.097  19.797  0.00  0.00    +0.000 NA
ENDBRANCH  26  27
ENDBRANCH   1  26
TORSDOF 8
ENDMDL
MODEL 2
REMARK VINA RESULT:      -8.0      3.016      5.211
REMARK  Name = 
REMARK  8 active torsions:
REMARK  status: ('A' for Active; 'I' for Inactive)
REMARK    1  A    between atoms: O_1  and  C_2
REMARK    2  A    between atoms: C_2  and  C_3
REMARK    3  A    between atoms: C_2  and  C_17
REMARK    4  A    between atoms: C_2  and  C_23
REMARK    5  A    between atoms: C_3  and  C_4
REMARK    6  A    between atoms: N_6  and  C_7
REMARK    7  A    between atoms: C_7  and  C_8
REMARK    8  A    between atoms: C_17  and  N_18
REMARK                            x       y       z     vdW  Elec       q    Type
REMARK                         _______ _______ _______ _____ _____    ______ ____
ROOT
ATOM      1  C   UNL     1       5.729   4.850  16.374  0.00  0.00    +0.000 C 
ENDROOT
BRANCH   1   2
ATOM      2  C   UNL     1       6.526   5.899  17.151  0.00  0.00    +0.000 A 
ATOM      3  C   UNL     1       6.440   7.270  16.845  0.00  0.00    +0.000 A 
ATOM      4  C   UNL     1       7.262   8.201  17.488  0.00  0.00    +0.000 A 
ATOM      5  C   UNL     1       8.172   7.772  18.446  0.00  0.00    +0.000 A 
ATOM      6  F   UNL     1       8.979   8.663  19.037  0.00  0.00    +0.000 F 
ATOM      7  C   UNL     1       8.263   6.433  18.791  0.00  0.00    +0.000 A 
ATOM      8  C   UNL     1       7.440   5.515  18.149  0.00  0.00    +0.000 A 
ATOM      9  F   UNL     1       7.558   4.222  18.480  0.00  0.00    +0.000 F 
ENDBRANCH   1   2
BRANCH   1  10
ATOM     10  O   UNL     1       4.842   5.493  15.432  0.00  0.00    +0.000 OA
ATOM     11  H   UNL     1       3.959   5.582  15.828  0.00  0.00    +0.000 HD
ENDBRANCH   1  10
BRANCH   1  12
ATOM     12  C   UNL     1       4.896   3.879  17.264  0.00  0.00    +0.000 C 
BRANCH  12  13
ATOM     13  C   UNL     1       3.759   4.432  18.055  0.00  0.00    +0.000 A 
ATOM     14  C   UNL     1       3.824   5.161  19.228  0.00  0.00    +0.000 A 
ATOM     15  N   UNL     1       2.543   5.580  19.435  0.00  0.00    +0.000 N 
ATOM     16  N   UNL     1       1.722   5.104  18.478  0.00  0.00    +0.000 NA
ATOM     17  N   UNL     1       2.460   4.401  17.628  0.00  0.00    +0.000 NA
BRANCH  15  18
ATOM     18  C   UNL     1       2.087   6.599  20.368  0.00  0.00    +0.000 C 
BRANCH  18  19
ATOM     19  C   UNL     1       1.746   7.912  19.708  0.00  0.00    +0.000 A 
ATOM     20  C   UNL     1       2.232   8.224  18.428  0.00  0.00    +0.000 A 
ATOM     21  C   UNL     1       2.000   9.479  17.862  0.00  0.00    +0.000 A 
ATOM     22  C   UNL     1       1.283  10.443  18.568  0.00  0.00    +0.000 A 
ATOM     23  C   UNL     1       0.788  10.142  19.833  0.00  0.00    +0.000 A 
ATOM     24 BR   UNL     1      -0.176  11.452  20.798  0.00  0.00    +0.000 Br
ATOM     25  C   UNL     1       1.012   8.888  20.407  0.00  0.00    +0.000 A 
ENDBRANCH  18  19
ENDBRANCH  15  18
ENDBRANCH  12  13
ENDBRANCH   1  12
BRANCH   1  26
ATOM     26  C   UNL     1       6.695   3.953  15.541  0.00  0.00    +0.000 C 
BRANCH  26  27
ATOM     27  N   UNL     1       6.922   4.366  14.172  0.00  0.00    +0.000 N 
ATOM     28  C   UNL     1       6.540   3.736  13.028  0.00  0.00    +0.000 A 
ATOM     29  N   UNL     1       7.071   4.344  11.992  0.00  0.00    +0.000 NA
ATOM     30  C   UNL     1       7.790   5.352  12.565  0.00  0.00    +0.000 A 
ATOM     31  N   UNL     1       7.748   5.395  13.899  0.00  0.00    +0.000 NA
ENDBRANCH  26  27
ENDBRANCH   1  26
TORSDOF 8
ENDMDL
MODEL 3
REMARK VINA RESULT:      -7.9      3.109      4.456
REMARK  Name = 
REMARK  8 active torsions:
REMARK  status: ('A' for Active; 'I' for Inactive)
REMARK    1  A    between atoms: O_1  and  C_2
REMARK    2  A    between atoms: C_2  and  C_3
REMARK    3  A    between atoms: C_2  and  C_17
REMARK    4  A    between atoms: C_2  and  C_23
REMARK    5  A    between atoms: C_3  and  C_4
REMARK    6  A    between atoms: N_6  and  C_7
REMARK    7  A    between atoms: C_7  and  C_8
REMARK    8  A    between atoms: C_17  and  N_18
REMARK                            x       y       z     vdW  Elec       q    Type
REMARK                         _______ _______ _______ _____ _____    ______ ____
ROOT
ATOM      1  C   UNL     1       3.147   6.410  18.350  0.00  0.00    +0.000 C 
ENDROOT
BRANCH   1   2
ATOM      2  C   UNL     1       2.547   5.014  18.515  0.00  0.00    +0.000 A 
ATOM      3  C   UNL     1       2.780   3.992  17.574  0.00  0.00    +0.000 A 
ATOM      4  C   UNL     1       2.129   2.759  17.679  0.00  0.00    +0.000 A 
ATOM      5  C   UNL     1       1.246   2.531  18.726  0.00  0.00    +0.000 A 
ATOM      6  F   UNL     1       0.602   1.360  18.805  0.00  0.00    +0.000 F 
ATOM      7  C   UNL     1       1.015   3.505  19.685  0.00  0.00    +0.000 A 
ATOM      8  C   UNL     1       1.667   4.727  19.575  0.00  0.00    +0.000 A 
ATOM      9  F   UNL     1       1.413   5.665  20.498  0.00  0.00    +0.000 F 
ENDBRANCH   1   2
BRANCH   1  10
ATOM     10  O   UNL     1       3.638   6.896  19.619  0.00  0.00    +0.000 OA
ATOM     11  H   UNL     1       3.163   7.709  19.860  0.00  0.00    +0.000 HD
ENDBRANCH   1  10
BRANCH   1  12
ATOM     12  C   UNL     1       2.172   7.468  17.752  0.00  0.00    +0.000 C 
BRANCH  12  13
ATOM     13  C   UNL     1       1.823   8.664  18.572  0.00  0.00    +0.000 A 
ATOM     14  C   UNL     1       1.748   9.980  18.152  0.00  0.00    +0.000 A 
ATOM     15  N   UNL     1       1.216  10.643  19.218  0.00  0.00    +0.000 N 
ATOM     16  N   UNL     1       1.014   9.804  20.254  0.00  0.00    +0.000 NA
ATOM     17  N   UNL     1       1.383   8.589  19.864  0.00  0.00    +0.000 NA
BRANCH  15  18
ATOM     18  C   UNL     1       0.671  11.992  19.237  0.00  0.00    +0.000 C 
BRANCH  18  19
ATOM     19  C   UNL     1      -0.829  12.040  19.080  0.00  0.00    +0.000 A 
ATOM     20  C   UNL     1      -1.648  12.508  20.119  0.00  0.00    +0.000 A 
ATOM     21  C   UNL     1      -3.039  12.456  20.010  0.00  0.00    +0.000 A 
ATOM     22  C   UNL     1      -3.633  11.930  18.864  0.00  0.00    +0.000 A 
ATOM     23  C   UNL     1      -2.830  11.471  17.824  0.00  0.00    +0.000 A 
ATOM     24 BR   UNL     1      -3.632  10.746  16.272  0.00  0.00    +0.000 Br
ATOM     25  C   UNL     1      -1.437  11.522  17.921  0.00  0.00    +0.000 A 
ENDBRANCH  18  19
ENDBRANCH  15  18
ENDBRANCH  12  13
ENDBRANCH   1  12
BRANCH   1  26
ATOM     26  C   UNL     1       4.371   6.356  17.386  0.00  0.00    +0.000 C 
BRANCH  26  27
ATOM     27  N   UNL     1       5.674   6.313  18.017  0.00  0.00    +0.000 N 
ATOM     28  C   UNL     1       6.811   6.962  17.646  0.00  0.00    +0.000 A 
ATOM     29  N   UNL     1       7.818   6.541  18.376  0.00  0.00    +0.000 NA
ATOM     30  C   UNL     1       7.237   5.610  19.187  0.00  0.00    +0.000 A 
ATOM     31  N   UNL     1       5.930   5.418  18.991  0.00  0.00    +0.000 NA
ENDBRANCH  26  27
ENDBRANCH   1  26
TORSDOF 8
ENDMDL
MODEL 4
REMARK VINA RESULT:      -7.9      2.712      4.625
REMARK  Name = 
REMARK  8 active torsions:
REMARK  status: ('A' for Active; 'I' for Inactive)
REMARK    1  A    between atoms: O_1  and  C_2
REMARK    2  A    between atoms: C_2  and  C_3
REMARK    3  A    between atoms: C_2  and  C_17
REMARK    4  A    between atoms: C_2  and  C_23
REMARK    5  A    between atoms: C_3  and  C_4
REMARK    6  A    between atoms: N_6  and  C_7
REMARK    7  A    between atoms: C_7  and  C_8
REMARK    8  A    between atoms: C_17  and  N_18
REMARK                            x       y       z     vdW  Elec       q    Type
REMARK                         _______ _______ _______ _____ _____    ______ ____
ROOT
ATOM      1  C   UNL     1       3.331   5.888  18.329  0.00  0.00    +0.000 C 
ENDROOT
BRANCH   1   2
ATOM      2  C   UNL     1       2.575   4.991  19.310  0.00  0.00    +0.000 A 
ATOM      3  C   UNL     1       2.945   4.900  20.666  0.00  0.00    +0.000 A 
ATOM      4  C   UNL     1       2.317   3.989  21.520  0.00  0.00    +0.000 A 
ATOM      5  C   UNL     1       1.312   3.164  21.032  0.00  0.00    +0.000 A 
ATOM      6  F   UNL     1       0.734   2.272  21.847  0.00  0.00    +0.000 F 
ATOM      7  C   UNL     1       0.905   3.247  19.710  0.00  0.00    +0.000 A 
ATOM      8  C   UNL     1       1.532   4.158  18.868  0.00  0.00    +0.000 A 
ATOM      9  F   UNL     1       1.140   4.207  17.587  0.00  0.00    +0.000 F 
ENDBRANCH   1   2
BRANCH   1  10
ATOM     10  O   UNL     1       4.405   6.577  19.007  0.00  0.00    +0.000 OA
ATOM     11  H   UNL     1       4.857   7.167  18.380  0.00  0.00    +0.000 HD
ENDBRANCH   1  10
BRANCH   1  12
ATOM     12  C   UNL     1       2.444   6.939  17.598  0.00  0.00    +0.000 C 
BRANCH  12  13
ATOM     13  C   UNL     1       2.026   8.163  18.340  0.00  0.00    +0.000 A 
ATOM     14  C   UNL     1       1.787   9.423  17.820  0.00  0.00    +0.000 A 
ATOM     15  N   UNL     1       1.258  10.122  18.865  0.00  0.00    +0.000 N 
ATOM     16  N   UNL     1       1.212   9.363  19.977  0.00  0.00    +0.000 NA
ATOM     17  N   UNL     1       1.679   8.160  19.662  0.00  0.00    +0.000 NA
BRANCH  15  18
ATOM     18  C   UNL     1       0.578  11.408  18.812  0.00  0.00    +0.000 C 
BRANCH  18  19
ATOM     19  C   UNL     1      -0.920  11.293  18.680  0.00  0.00    +0.000 A 
ATOM     20  C   UNL     1      -1.497  10.505  17.672  0.00  0.00    +0.000 A 
ATOM     21  C   UNL     1      -2.881  10.481  17.488  0.00  0.00    +0.000 A 
ATOM     22  C   UNL     1      -3.709  11.248  18.305  0.00  0.00    +0.000 A 
ATOM     23  C   UNL     1      -3.149  12.026  19.314  0.00  0.00    +0.000 A 
ATOM     24 BR   UNL     1      -4.269  13.077  20.417  0.00  0.00    +0.000 Br
ATOM     25  C   UNL     1      -1.766  12.054  19.509  0.00  0.00    +0.000 A 
ENDBRANCH  18  19
ENDBRANCH  15  18
ENDBRANCH  12  13
ENDBRANCH   1  12
BRANCH   1  26
ATOM     26  C   UNL     1       3.988   5.023  17.210  0.00  0.00    +0.000 C 
BRANCH  26  27
ATOM     27  N   UNL     1       5.408   5.222  17.007  0.00  0.00    +0.000 N 
ATOM     28  C   UNL     1       6.434   4.408  17.377  0.00  0.00    +0.000 A 
ATOM     29  N   UNL     1       7.578   5.013  17.156  0.00  0.00    +0.000 NA
ATOM     30  C   UNL     1       7.192   6.220  16.650  0.00  0.00    +0.000 A 
ATOM     31  N   UNL     1       5.873   6.404  16.559  0.00  0.00    +0.000 NA
ENDBRANCH  26  27
ENDBRANCH   1  26
TORSDOF 8
ENDMDL
MODEL 5
REMARK VINA RESULT:      -7.9      1.247      1.504
REMARK  Name = 
REMARK  8 active torsions:
REMARK  status: ('A' for Active; 'I' for Inactive)
REMARK    1  A    between atoms: O_1  and  C_2
REMARK    2  A    between atoms: C_2  and  C_3
REMARK    3  A    between atoms: C_2  and  C_17
REMARK    4  A    between atoms: C_2  and  C_23
REMARK    5  A    between atoms: C_3  and  C_4
REMARK    6  A    between atoms: N_6  and  C_7
REMARK    7  A    between atoms: C_7  and  C_8
REMARK    8  A    between atoms: C_17  and  N_18
REMARK                            x       y       z     vdW  Elec       q    Type
REMARK                         _______ _______ _______ _____ _____    ______ ____
ROOT
ATOM      1  C   UNL     1       3.475   5.451  18.406  0.00  0.00    +0.000 C 
ENDROOT
BRANCH   1   2
ATOM      2  C   UNL     1       4.647   5.318  17.433  0.00  0.00    +0.000 A 
ATOM      3  C   UNL     1       5.698   6.255  17.408  0.00  0.00    +0.000 A 
ATOM      4  C   UNL     1       6.699   6.183  16.435  0.00  0.00    +0.000 A 
ATOM      5  C   UNL     1       6.665   5.172  15.482  0.00  0.00    +0.000 A 
ATOM      6  F   UNL     1       7.609   5.125  14.534  0.00  0.00    +0.000 F 
ATOM      7  C   UNL     1       5.660   4.218  15.495  0.00  0.00    +0.000 A 
ATOM      8  C   UNL     1       4.670   4.295  16.468  0.00  0.00    +0.000 A 
ATOM      9  F   UNL     1       3.694   3.377  16.450  0.00  0.00    +0.000 F 
ENDBRANCH   1   2
BRANCH   1  10
ATOM     10  O   UNL     1       2.222   5.278  17.708  0.00  0.00    +0.000 OA
ATOM     11  H   UNL     1       2.098   4.338  17.495  0.00  0.00    +0.000 HD
ENDBRANCH   1  10
BRANCH   1  12
ATOM     12  C   UNL     1       3.432   6.798  19.187  0.00  0.00    +0.000 C 
BRANCH  12  13
ATOM     13  C   UNL     1       2.561   7.895  18.673  0.00  0.00    +0.000 A 
ATOM     14  C   UNL     1       1.589   8.594  19.367  0.00  0.00    +0.000 A 
ATOM     15  N   UNL     1       1.227   9.597  18.517  0.00  0.00    +0.000 N 
ATOM     16  N   UNL     1       1.895   9.504  17.350  0.00  0.00    +0.000 NA
ATOM     17  N   UNL     1       2.716   8.464  17.440  0.00  0.00    +0.000 NA
BRANCH  15  18
ATOM     18  C   UNL     1       0.442  10.781  18.833  0.00  0.00    +0.000 C 
BRANCH  18  19
ATOM     19  C   UNL     1      -1.011  10.664  18.444  0.00  0.00    +0.000 A 
ATOM     20  C   UNL     1      -1.404   9.870  17.355  0.00  0.00    +0.000 A 
ATOM     21  C   UNL     1      -2.734   9.844  16.934  0.00  0.00    +0.000 A 
ATOM     22  C   UNL     1      -3.692  10.615  17.591  0.00  0.00    +0.000 A 
ATOM     23  C   UNL     1      -3.315  11.399  18.678  0.00  0.00    +0.000 A 
ATOM     24 BR   UNL     1      -4.610  12.455  19.564  0.00  0.00    +0.000 Br
ATOM     25  C   UNL     1      -1.987  11.429  19.109  0.00  0.00    +0.000 A 
ENDBRANCH  18  19
ENDBRANCH  15  18
ENDBRANCH  12  13
ENDBRANCH   1  12
BRANCH   1  26
ATOM     26  C   UNL     1       3.547   4.327  19.486  0.00  0.00    +0.000 C 
BRANCH  26  27
ATOM     27  N   UNL     1       2.386   3.467  19.584  0.00  0.00    +0.000 N 
ATOM     28  C   UNL     1       2.222   2.214  19.079  0.00  0.00    +0.000 A 
ATOM     29  N   UNL     1       0.976   1.833  19.244  0.00  0.00    +0.000 NA
ATOM     30  C   UNL     1       0.405   2.911  19.854  0.00  0.00    +0.000 A 
ATOM     31  N   UNL     1       1.222   3.946  20.065  0.00  0.00    +0.000 NA
ENDBRANCH  26  27
ENDBRANCH   1  26
TORSDOF 8
ENDMDL
MODEL 6
REMARK VINA RESULT:      -7.8      3.370      5.501
REMARK  Name = 
REMARK  8 active torsions:
REMARK  status: ('A' for Active; 'I' for Inactive)
REMARK    1  A    between atoms: O_1  and  C_2
REMARK    2  A    between atoms: C_2  and  C_3
REMARK    3  A    between atoms: C_2  and  C_17
REMARK    4  A    between atoms: C_2  and  C_23
REMARK    5  A    between atoms: C_3  and  C_4
REMARK    6  A    between atoms: N_6  and  C_7
REMARK    7  A    between atoms: C_7  and  C_8
REMARK    8  A    between atoms: C_17  and  N_18
REMARK                            x       y       z     vdW  Elec       q    Type
REMARK                         _______ _______ _______ _____ _____    ______ ____
ROOT
ATOM      1  C   UNL     1       3.335   5.789  18.307  0.00  0.00    +0.000 C 
ENDROOT
BRANCH   1   2
ATOM      2  C   UNL     1       2.584   4.911  19.308  0.00  0.00    +0.000 A 
ATOM      3  C   UNL     1       2.968   4.834  20.660  0.00  0.00    +0.000 A 
ATOM      4  C   UNL     1       2.343   3.938  21.533  0.00  0.00    +0.000 A 
ATOM      5  C   UNL     1       1.325   3.116  21.067  0.00  0.00    +0.000 A 
ATOM      6  F   UNL     1       0.750   2.239  21.899  0.00  0.00    +0.000 F 
ATOM      7  C   UNL     1       0.903   3.186  19.749  0.00  0.00    +0.000 A 
ATOM      8  C   UNL     1       1.528   4.082  18.888  0.00  0.00    +0.000 A 
ATOM      9  F   UNL     1       1.122   4.119  17.611  0.00  0.00    +0.000 F 
ENDBRANCH   1   2
BRANCH   1  10
ATOM     10  O   UNL     1       4.430   6.469  18.961  0.00  0.00    +0.000 OA
ATOM     11  H   UNL     1       5.119   6.675  18.308  0.00  0.00    +0.000 HD
ENDBRANCH   1  10
BRANCH   1  12
ATOM     12  C   UNL     1       2.450   6.847  17.582  0.00  0.00    +0.000 C 
BRANCH  12  13
ATOM     13  C   UNL     1       2.081   8.094  18.313  0.00  0.00    +0.000 A 
ATOM     14  C   UNL     1       1.888   9.356  17.782  0.00  0.00    +0.000 A 
ATOM     15  N   UNL     1       1.389  10.085  18.821  0.00  0.00    +0.000 N 
ATOM     16  N   UNL     1       1.319   9.339  19.941  0.00  0.00    +0.000 NA
ATOM     17  N   UNL     1       1.740   8.117  19.637  0.00  0.00    +0.000 NA
BRANCH  15  18
ATOM     18  C   UNL     1       0.758  11.394  18.758  0.00  0.00    +0.000 C 
BRANCH  18  19
ATOM     19  C   UNL     1       1.609  12.503  19.327  0.00  0.00    +0.000 A 
ATOM     20  C   UNL     1       1.374  13.002  20.618  0.00  0.00    +0.000 A 
ATOM     21  C   UNL     1       2.095  14.094  21.103  0.00  0.00    +0.000 A 
ATOM     22  C   UNL     1       3.058  14.708  20.304  0.00  0.00    +0.000 A 
ATOM     23  C   UNL     1       3.305  14.216  19.026  0.00  0.00    +0.000 A 
ATOM     24 BR   UNL     1       4.603  15.055  17.935  0.00  0.00    +0.000 Br
ATOM     25  C   UNL     1       2.592  13.121  18.532  0.00  0.00    +0.000 A 
ENDBRANCH  18  19
ENDBRANCH  15  18
ENDBRANCH  12  13
ENDBRANCH   1  12
BRANCH   1  26
ATOM     26  C   UNL     1       3.961   4.906  17.184  0.00  0.00    +0.000 C 
BRANCH  26  27
ATOM     27  N   UNL     1       5.402   4.974  17.053  0.00  0.00    +0.000 N 
ATOM     28  C   UNL     1       6.132   5.373  15.976  0.00  0.00    +0.000 A 
ATOM     29  N   UNL     1       7.405   5.141  16.197  0.00  0.00    +0.000 NA
ATOM     30  C   UNL     1       7.403   4.581  17.441  0.00  0.00    +0.000 A 
ATOM     31  N   UNL     1       6.198   4.437  17.999  0.00  0.00    +0.000 NA
ENDBRANCH  26  27
ENDBRANCH   1  26
TORSDOF 8
ENDMDL
MODEL 7
REMARK VINA RESULT:      -7.7      3.044      4.197
REMARK  Name = 
REMARK  8 active torsions:
REMARK  status: ('A' for Active; 'I' for Inactive)
REMARK    1  A    between atoms: O_1  and  C_2
REMARK    2  A    between atoms: C_2  and  C_3
REMARK    3  A    between atoms: C_2  and  C_17
REMARK    4  A    between atoms: C_2  and  C_23
REMARK    5  A    between atoms: C_3  and  C_4
REMARK    6  A    between atoms: N_6  and  C_7
REMARK    7  A    between atoms: C_7  and  C_8
REMARK    8  A    between atoms: C_17  and  N_18
REMARK                            x       y       z     vdW  Elec       q    Type
REMARK                         _______ _______ _______ _____ _____    ______ ____
ROOT
ATOM      1  C   UNL     1       3.231   6.252  18.391  0.00  0.00    +0.000 C 
ENDROOT
BRANCH   1   2
ATOM      2  C   UNL     1       2.573   4.881  18.551  0.00  0.00    +0.000 A 
ATOM      3  C   UNL     1       2.801   3.839  17.633  0.00  0.00    +0.000 A 
ATOM      4  C   UNL     1       2.102   2.632  17.729  0.00  0.00    +0.000 A 
ATOM      5  C   UNL     1       1.174   2.451  18.747  0.00  0.00    +0.000 A 
ATOM      6  F   UNL     1       0.485   1.305  18.817  0.00  0.00    +0.000 F 
ATOM      7  C   UNL     1       0.945   3.446  19.684  0.00  0.00    +0.000 A 
ATOM      8  C   UNL     1       1.647   4.642  19.582  0.00  0.00    +0.000 A 
ATOM      9  F   UNL     1       1.395   5.600  20.485  0.00  0.00    +0.000 F 
ENDBRANCH   1   2
BRANCH   1  10
ATOM     10  O   UNL     1       3.667   6.750  19.675  0.00  0.00    +0.000 OA
ATOM     11  H   UNL     1       3.825   6.002  20.276  0.00  0.00    +0.000 HD
ENDBRANCH   1  10
BRANCH   1  12
ATOM     12  C   UNL     1       2.328   7.328  17.717  0.00  0.00    +0.000 C 
BRANCH  12  13
ATOM     13  C   UNL     1       1.902   8.510  18.521  0.00  0.00    +0.000 A 
ATOM     14  C   UNL     1       1.722   9.809  18.079  0.00  0.00    +0.000 A 
ATOM     15  N   UNL     1       1.156  10.450  19.141  0.00  0.00    +0.000 N 
ATOM     16  N   UNL     1       1.033   9.618  20.195  0.00  0.00    +0.000 NA
ATOM     17  N   UNL     1       1.487   8.427  19.821  0.00  0.00    +0.000 NA
BRANCH  15  18
ATOM     18  C   UNL     1       0.512  11.754  19.144  0.00  0.00    +0.000 C 
BRANCH  18  19
ATOM     19  C   UNL     1      -0.991  11.685  19.030  0.00  0.00    +0.000 A 
ATOM     20  C   UNL     1      -1.603  11.036  17.945  0.00  0.00    +0.000 A 
ATOM     21  C   UNL     1      -2.989  11.061  17.788  0.00  0.00    +0.000 A 
ATOM     22  C   UNL     1      -3.786  11.740  18.708  0.00  0.00    +0.000 A 
ATOM     23  C   UNL     1      -3.192  12.379  19.792  0.00  0.00    +0.000 A 
ATOM     24 BR   UNL     1      -4.269  13.311  21.036  0.00  0.00    +0.000 Br
ATOM     25  C   UNL     1      -1.805  12.357  19.960  0.00  0.00    +0.000 A 
ENDBRANCH  18  19
ENDBRANCH  15  18
ENDBRANCH  12  13
ENDBRANCH   1  12
BRANCH   1  26
ATOM     26  C   UNL     1       4.504   6.134  17.498  0.00  0.00    +0.000 C 
BRANCH  26  27
ATOM     27  N   UNL     1       5.749   5.893  18.198  0.00  0.00    +0.000 N 
ATOM     28  C   UNL     1       5.956   5.144  19.315  0.00  0.00    +0.000 A 
ATOM     29  N   UNL     1       7.192   5.303  19.729  0.00  0.00    +0.000 NA
ATOM     30  C   UNL     1       7.707   6.183  18.822  0.00  0.00    +0.000 A 
ATOM     31  N   UNL     1       6.856   6.591  17.877  0.00  0.00    +0.000 NA
ENDBRANCH  26  27
ENDBRANCH   1  26
TORSDOF 8
ENDMDL
MODEL 8
REMARK VINA RESULT:      -7.7      3.886      7.796
REMARK  Name = 
REMARK  8 active torsions:
REMARK  status: ('A' for Active; 'I' for Inactive)
REMARK    1  A    between atoms: O_1  and  C_2
REMARK    2  A    between atoms: C_2  and  C_3
REMARK    3  A    between atoms: C_2  and  C_17
REMARK    4  A    between atoms: C_2  and  C_23
REMARK    5  A    between atoms: C_3  and  C_4
REMARK    6  A    between atoms: N_6  and  C_7
REMARK    7  A    between atoms: C_7  and  C_8
REMARK    8  A    between atoms: C_17  and  N_18
REMARK                            x       y       z     vdW  Elec       q    Type
REMARK                         _______ _______ _______ _____ _____    ______ ____
ROOT
ATOM      1  C   UNL     1       2.558   6.187  19.295  0.00  0.00    +0.000 C 
ENDROOT
BRANCH   1   2
ATOM      2  C   UNL     1       1.930   7.521  19.699  0.00  0.00    +0.000 A 
ATOM      3  C   UNL     1       1.428   7.741  20.996  0.00  0.00    +0.000 A 
ATOM      4  C   UNL     1       0.754   8.924  21.313  0.00  0.00    +0.000 A 
ATOM      5  C   UNL     1       0.579   9.901  20.340  0.00  0.00    +0.000 A 
ATOM      6  F   UNL     1      -0.095  11.019  20.640  0.00  0.00    +0.000 F 
ATOM      7  C   UNL     1       1.084   9.728  19.062  0.00  0.00    +0.000 A 
ATOM      8  C   UNL     1       1.756   8.551  18.756  0.00  0.00    +0.000 A 
ATOM      9  F   UNL     1       2.217   8.392  17.507  0.00  0.00    +0.000 F 
ENDBRANCH   1   2
BRANCH   1  10
ATOM     10  O   UNL     1       3.766   5.953  20.052  0.00  0.00    +0.000 OA
ATOM     11  H   UNL     1       4.527   6.309  19.564  0.00  0.00    +0.000 HD
ENDBRANCH   1  10
BRANCH   1  12
ATOM     12  C   UNL     1       2.885   6.059  17.777  0.00  0.00    +0.000 C 
BRANCH  12  13
ATOM     13  C   UNL     1       4.312   5.940  17.360  0.00  0.00    +0.000 A 
ATOM     14  C   UNL     1       5.035   4.779  17.150  0.00  0.00    +0.000 A 
ATOM     15  N   UNL     1       6.210   5.209  16.609  0.00  0.00    +0.000 N 
ATOM     16  N   UNL     1       6.239   6.554  16.528  0.00  0.00    +0.000 NA
ATOM     17  N   UNL     1       5.078   7.008  16.985  0.00  0.00    +0.000 NA
BRANCH  15  18
ATOM     18  C   UNL     1       7.225   4.401  15.948  0.00  0.00    +0.000 C 
BRANCH  18  19
ATOM     19  C   UNL     1       7.140   4.440  14.442  0.00  0.00    +0.000 A 
ATOM     20  C   UNL     1       8.005   5.253  13.692  0.00  0.00    +0.000 A 
ATOM     21  C   UNL     1       7.859   5.365  12.309  0.00  0.00    +0.000 A 
ATOM     22  C   UNL     1       6.843   4.672  11.653  0.00  0.00    +0.000 A 
ATOM     23  C   UNL     1       5.985   3.856  12.386  0.00  0.00    +0.000 A 
ATOM     24 BR   UNL     1       4.599   2.922  11.502  0.00  0.00    +0.000 Br
ATOM     25  C   UNL     1       6.126   3.734  13.770  0.00  0.00    +0.000 A 
ENDBRANCH  18  19
ENDBRANCH  15  18
ENDBRANCH  12  13
ENDBRANCH   1  12
BRANCH   1  26
ATOM     26  C   UNL     1       1.584   5.015  19.629  0.00  0.00    +0.000 C 
BRANCH  26  27
ATOM     27  N   UNL     1       2.167   3.885  20.322  0.00  0.00    +0.000 N 
ATOM     28  C   UNL     1       1.944   3.475  21.601  0.00  0.00    +0.000 A 
ATOM     29  N   UNL     1       2.779   2.508  21.905  0.00  0.00    +0.000 NA
ATOM     30  C   UNL     1       3.512   2.367  20.763  0.00  0.00    +0.000 A 
ATOM     31  N   UNL     1       3.189   3.202  19.771  0.00  0.00    +0.000 NA
ENDBRANCH  26  27
ENDBRANCH   1  26
TORSDOF 8
ENDMDL
MODEL 9
REMARK VINA RESULT:      -7.7      1.274      1.622
REMARK  Name = 
REMARK  8 active torsions:
REMARK  status: ('A' for Active; 'I' for Inactive)
REMARK    1  A    between atoms: O_1  and  C_2
REMARK    2  A    between atoms: C_2  and  C_3
REMARK    3  A    between atoms: C_2  and  C_17
REMARK    4  A    between atoms: C_2  and  C_23
REMARK    5  A    between atoms: C_3  and  C_4
REMARK    6  A    between atoms: N_6  and  C_7
REMARK    7  A    between atoms: C_7  and  C_8
REMARK    8  A    between atoms: C_17  and  N_18
REMARK                            x       y       z     vdW  Elec       q    Type
REMARK                         _______ _______ _______ _____ _____    ______ ____
ROOT
ATOM      1  C   UNL     1       3.134   5.436  18.696  0.00  0.00    +0.000 C 
ENDROOT
BRANCH   1   2
ATOM      2  C   UNL     1       4.393   5.259  17.846  0.00  0.00    +0.000 A 
ATOM      3  C   UNL     1       4.323   4.906  16.485  0.00  0.00    +0.000 A 
ATOM      4  C   UNL     1       5.485   4.635  15.754  0.00  0.00    +0.000 A 
ATOM      5  C   UNL     1       6.725   4.719  16.373  0.00  0.00    +0.000 A 
ATOM      6  F   UNL     1       7.832   4.429  15.678  0.00  0.00    +0.000 F 
ATOM      7  C   UNL     1       6.831   5.090  17.704  0.00  0.00    +0.000 A 
ATOM      8  C   UNL     1       5.672   5.361  18.422  0.00  0.00    +0.000 A 
ATOM      9  F   UNL     1       5.793   5.696  19.715  0.00  0.00    +0.000 F 
ENDBRANCH   1   2
BRANCH   1  10
ATOM     10  O   UNL     1       1.953   5.288  17.877  0.00  0.00    +0.000 OA
ATOM     11  H   UNL     1       2.215   5.050  16.972  0.00  0.00    +0.000 HD
ENDBRANCH   1  10
BRANCH   1  12
ATOM     12  C   UNL     1       3.051   6.795  19.453  0.00  0.00    +0.000 C 
BRANCH  12  13
ATOM     13  C   UNL     1       2.295   7.918  18.827  0.00  0.00    +0.000 A 
ATOM     14  C   UNL     1       1.299   8.687  19.402  0.00  0.00    +0.000 A 
ATOM     15  N   UNL     1       1.076   9.680  18.494  0.00  0.00    +0.000 N 
ATOM     16  N   UNL     1       1.851   9.517  17.403  0.00  0.00    +0.000 NA
ATOM     17  N   UNL     1       2.602   8.441  17.601  0.00  0.00    +0.000 NA
BRANCH  15  18
ATOM     18  C   UNL     1       0.330  10.912  18.700  0.00  0.00    +0.000 C 
BRANCH  18  19
ATOM     19  C   UNL     1      -1.141  10.786  18.387  0.00  0.00    +0.000 A 
ATOM     20  C   UNL     1      -1.587   9.966  17.338  0.00  0.00    +0.000 A 
ATOM     21  C   UNL     1      -2.937   9.930  16.985  0.00  0.00    +0.000 A 
ATOM     22  C   UNL     1      -3.862  10.716  17.671  0.00  0.00    +0.000 A 
ATOM     23  C   UNL     1      -3.432  11.525  18.718  0.00  0.00    +0.000 A 
ATOM     24 BR   UNL     1      -4.682  12.602  19.643  0.00  0.00    +0.000 Br
ATOM     25  C   UNL     1      -2.084  11.566  19.082  0.00  0.00    +0.000 A 
ENDBRANCH  18  19
ENDBRANCH  15  18
ENDBRANCH  12  13
ENDBRANCH   1  12
BRANCH   1  26
ATOM     26  C   UNL     1       3.066   4.326  19.789  0.00  0.00    +0.000 C 
BRANCH  26  27
ATOM     27  N   UNL     1       3.566   3.023  19.402  0.00  0.00    +0.000 N 
ATOM     28  C   UNL     1       3.017   2.135  18.529  0.00  0.00    +0.000 A 
ATOM     29  N   UNL     1       3.686   1.007  18.569  0.00  0.00    +0.000 NA
ATOM     30  C   UNL     1       4.647   1.254  19.506  0.00  0.00    +0.000 A 
ATOM     31  N   UNL     1       4.602   2.469  20.061  0.00  0.00    +0.000 NA
ENDBRANCH  26  27
ENDBRANCH   1  26
TORSDOF 8
ENDMDL
