MODEL 1
REMARK VINA RESULT:      -7.2      0.000      0.000
REMARK  Name = 
REMARK  8 active torsions:
REMARK  status: ('A' for Active; 'I' for Inactive)
REMARK    1  A    between atoms: C_1  and  C_2
REMARK    2  A    between atoms: C_2  and  O_3
REMARK    3  A    between atoms: O_3  and  C_4
REMARK    4  A    between atoms: C_4  and  C_6
REMARK    5  A    between atoms: N_19  and  C_20
REMARK    6  A    between atoms: C_20  and  C_21
REMARK    7  A    between atoms: N_27  and  C_28
REMARK    8  A    between atoms: C_28  and  C_29
REMARK                            x       y       z     vdW  Elec       q    Type
REMARK                         _______ _______ _______ _____ _____    ______ ____
ROOT
ATOM      1  C   UNL     1      -2.742  12.535  22.652  0.00  0.00    +0.000 A 
ATOM      2  C   UNL     1      -3.410  12.896  21.542  0.00  0.00    +0.000 A 
ATOM      3  C   UNL     1      -2.986  12.391  20.249  0.00  0.00    +0.000 A 
ATOM      4  C   UNL     1      -4.018  12.241  19.192  0.00  0.00    +0.000 A 
ATOM      5  O   UNL     1      -5.177  12.602  19.409  0.00  0.00    +0.000 OA
ATOM      6  N   UNL     1      -3.603  11.626  18.034  0.00  0.00    +0.000 N 
ATOM      7  C   UNL     1      -4.541  11.401  17.023  0.00  0.00    +0.000 A 
ATOM      8  C   UNL     1      -4.216  10.774  15.886  0.00  0.00    +0.000 A 
ATOM      9  C   UNL     1      -2.871  10.307  15.700  0.00  0.00    +0.000 A 
ATOM     10  C   UNL     1      -1.936  10.517  16.641  0.00  0.00    +0.000 A 
ATOM     11  C   UNL     1      -2.275  11.227  17.916  0.00  0.00    +0.000 A 
ATOM     12  N   UNL     1      -1.354  11.412  18.825  0.00  0.00    +0.000 NA
ATOM     13  C   UNL     1      -1.704  11.973  20.044  0.00  0.00    +0.000 A 
ATOM     14  N   UNL     1      -0.820  11.979  21.219  0.00  0.00    +0.000 N 
ATOM     15  C   UNL     1      -1.534  11.658  22.397  0.00  0.00    +0.000 A 
ATOM     16  N   UNL     1      -1.426  10.639  23.205  0.00  0.00    +0.000 NA
ENDROOT
BRANCH  16  17
ATOM     17  C   UNL     1      -0.388   9.766  23.126  0.00  0.00    +0.000 C 
ATOM     18  C   UNL     1      -0.452   8.653  22.121  0.00  0.00    +0.000 C 
ATOM     19  O   UNL     1       0.593   9.779  23.876  0.00  0.00    +0.000 OA
ENDBRANCH  16  17
BRANCH   1  20
ATOM     20  C   UNL     1      -3.148  13.051  23.970  0.00  0.00    +0.000 C 
ATOM     21  O   UNL     1      -3.999  12.544  24.684  0.00  0.00    +0.000 OA
BRANCH  20  22
ATOM     22  O   UNL     1      -2.526  14.231  24.186  0.00  0.00    +0.000 OA
BRANCH  22  24
ATOM     23  C   UNL     1      -3.735  16.129  24.923  0.00  0.00    +0.000 C 
ATOM     24  C   UNL     1      -2.895  14.944  25.360  0.00  0.00    +0.000 C 
ENDBRANCH  22  24
ENDBRANCH  20  22
ENDBRANCH   1  20
BRANCH  14  25
ATOM     25  C   UNL     1       0.649  11.728  21.067  0.00  0.00    +0.000 C 
BRANCH  25  26
ATOM     26  C   UNL     1       1.644  12.756  20.385  0.00  0.00    +0.000 C 
ATOM     27  C   UNL     1       1.563  14.286  20.330  0.00  0.00    +0.000 C 
ATOM     28  C   UNL     1       1.807  14.685  18.894  0.00  0.00    +0.000 C 
ATOM     29  C   UNL     1       2.014  13.394  18.151  0.00  0.00    +0.000 C 
ATOM     30  O   UNL     1       2.051  12.310  19.078  0.00  0.00    +0.000 OA
ENDBRANCH  25  26
ENDBRANCH  14  25
TORSDOF 6
ENDMDL
MODEL 2
REMARK VINA RESULT:      -7.1      0.802      1.162
REMARK  Name = 
REMARK  8 active torsions:
REMARK  status: ('A' for Active; 'I' for Inactive)
REMARK    1  A    between atoms: C_1  and  C_2
REMARK    2  A    between atoms: C_2  and  O_3
REMARK    3  A    between atoms: O_3  and  C_4
REMARK    4  A    between atoms: C_4  and  C_6
REMARK    5  A    between atoms: N_19  and  C_20
REMARK    6  A    between atoms: C_20  and  C_21
REMARK    7  A    between atoms: N_27  and  C_28
REMARK    8  A    between atoms: C_28  and  C_29
REMARK                            x       y       z     vdW  Elec       q    Type
REMARK                         _______ _______ _______ _____ _____    ______ ____
ROOT
ATOM      1  C   UNL     1      -2.741  12.446  22.495  0.00  0.00    +0.000 A 
ATOM      2  C   UNL     1      -3.403  12.789  21.375  0.00  0.00    +0.000 A 
ATOM      3  C   UNL     1      -2.953  12.286  20.091  0.00  0.00    +0.000 A 
ATOM      4  C   UNL     1      -3.969  12.110  19.022  0.00  0.00    +0.000 A 
ATOM      5  O   UNL     1      -5.137  12.449  19.222  0.00  0.00    +0.000 OA
ATOM      6  N   UNL     1      -3.527  11.498  17.871  0.00  0.00    +0.000 N 
ATOM      7  C   UNL     1      -4.449  11.249  16.850  0.00  0.00    +0.000 A 
ATOM      8  C   UNL     1      -4.098  10.623  15.721  0.00  0.00    +0.000 A 
ATOM      9  C   UNL     1      -2.742  10.181  15.554  0.00  0.00    +0.000 A 
ATOM     10  C   UNL     1      -1.822  10.414  16.505  0.00  0.00    +0.000 A 
ATOM     11  C   UNL     1      -2.191  11.124  17.773  0.00  0.00    +0.000 A 
ATOM     12  N   UNL     1      -1.285  11.331  18.691  0.00  0.00    +0.000 NA
ATOM     13  C   UNL     1      -1.661  11.892  19.903  0.00  0.00    +0.000 A 
ATOM     14  N   UNL     1      -0.792  11.921  21.089  0.00  0.00    +0.000 N 
ATOM     15  C   UNL     1      -1.514  11.592  22.260  0.00  0.00    +0.000 A 
ATOM     16  N   UNL     1      -1.396  10.579  23.074  0.00  0.00    +0.000 NA
ENDROOT
BRANCH  16  17
ATOM     17  C   UNL     1      -0.341   9.726  23.012  0.00  0.00    +0.000 C 
ATOM     18  C   UNL     1      -0.376   8.598  22.022  0.00  0.00    +0.000 C 
ATOM     19  O   UNL     1       0.636   9.768  23.768  0.00  0.00    +0.000 OA
ENDBRANCH  16  17
BRANCH   1  20
ATOM     20  C   UNL     1      -3.174  12.961  23.805  0.00  0.00    +0.000 C 
ATOM     21  O   UNL     1      -2.759  13.987  24.320  0.00  0.00    +0.000 OA
BRANCH  20  22
ATOM     22  O   UNL     1      -3.990  12.052  24.384  0.00  0.00    +0.000 OA
BRANCH  22  24
ATOM     23  C   UNL     1      -6.159  12.834  23.849  0.00  0.00    +0.000 C 
ATOM     24  C   UNL     1      -5.184  12.548  24.974  0.00  0.00    +0.000 C 
ENDBRANCH  22  24
ENDBRANCH  20  22
ENDBRANCH   1  20
BRANCH  14  25
ATOM     25  C   UNL     1       0.684  11.698  20.956  0.00  0.00    +0.000 C 
BRANCH  25  26
ATOM     26  C   UNL     1       1.669  12.746  20.293  0.00  0.00    +0.000 C 
ATOM     27  C   UNL     1       1.556  14.274  20.235  0.00  0.00    +0.000 C 
ATOM     28  C   UNL     1       1.818  14.678  18.803  0.00  0.00    +0.000 C 
ATOM     29  C   UNL     1       2.067  13.391  18.065  0.00  0.00    +0.000 C 
ATOM     30  O   UNL     1       2.110  12.308  18.993  0.00  0.00    +0.000 OA
ENDBRANCH  25  26
ENDBRANCH  14  25
TORSDOF 6
ENDMDL
MODEL 3
REMARK VINA RESULT:      -6.9      0.984      1.154
REMARK  Name = 
REMARK  8 active torsions:
REMARK  status: ('A' for Active; 'I' for Inactive)
REMARK    1  A    between atoms: C_1  and  C_2
REMARK    2  A    between atoms: C_2  and  O_3
REMARK    3  A    between atoms: O_3  and  C_4
REMARK    4  A    between atoms: C_4  and  C_6
REMARK    5  A    between atoms: N_19  and  C_20
REMARK    6  A    between atoms: C_20  and  C_21
REMARK    7  A    between atoms: N_27  and  C_28
REMARK    8  A    between atoms: C_28  and  C_29
REMARK                            x       y       z     vdW  Elec       q    Type
REMARK                         _______ _______ _______ _____ _____    ______ ____
ROOT
ATOM      1  C   UNL     1      -3.134  12.360  22.822  0.00  0.00    +0.000 A 
ATOM      2  C   UNL     1      -3.841  12.740  21.742  0.00  0.00    +0.000 A 
ATOM      3  C   UNL     1      -3.352  12.423  20.413  0.00  0.00    +0.000 A 
ATOM      4  C   UNL     1      -4.352  12.246  19.330  0.00  0.00    +0.000 A 
ATOM      5  O   UNL     1      -5.549  12.432  19.563  0.00  0.00    +0.000 OA
ATOM      6  N   UNL     1      -3.858  11.806  18.124  0.00  0.00    +0.000 N 
ATOM      7  C   UNL     1      -4.758  11.563  17.082  0.00  0.00    +0.000 A 
ATOM      8  C   UNL     1      -4.351  11.097  15.895  0.00  0.00    +0.000 A 
ATOM      9  C   UNL     1      -2.957  10.827  15.685  0.00  0.00    +0.000 A 
ATOM     10  C   UNL     1      -2.058  11.062  16.656  0.00  0.00    +0.000 A 
ATOM     11  C   UNL     1      -2.490  11.594  17.989  0.00  0.00    +0.000 A 
ATOM     12  N   UNL     1      -1.603  11.805  18.925  0.00  0.00    +0.000 NA
ATOM     13  C   UNL     1      -2.025  12.195  20.187  0.00  0.00    +0.000 A 
ATOM     14  N   UNL     1      -1.153  12.199  21.371  0.00  0.00    +0.000 N 
ATOM     15  C   UNL     1      -1.823  11.675  22.501  0.00  0.00    +0.000 A 
ATOM     16  N   UNL     1      -1.586  10.604  23.207  0.00  0.00    +0.000 NA
ENDROOT
BRANCH  16  17
ATOM     17  C   UNL     1      -0.444   9.883  23.060  0.00  0.00    +0.000 C 
ATOM     18  C   UNL     1      -0.356   8.882  21.945  0.00  0.00    +0.000 C 
ATOM     19  O   UNL     1       0.523   9.942  23.828  0.00  0.00    +0.000 OA
ENDBRANCH  16  17
BRANCH   1  20
ATOM     20  C   UNL     1      -3.607  12.688  24.177  0.00  0.00    +0.000 C 
ATOM     21  O   UNL     1      -4.490  12.089  24.769  0.00  0.00    +0.000 OA
BRANCH  20  22
ATOM     22  O   UNL     1      -3.001  13.825  24.587  0.00  0.00    +0.000 OA
BRANCH  22  24
ATOM     23  C   UNL     1      -2.918  16.034  23.740  0.00  0.00    +0.000 C 
ATOM     24  C   UNL     1      -3.760  15.024  24.495  0.00  0.00    +0.000 C 
ENDBRANCH  22  24
ENDBRANCH  20  22
ENDBRANCH   1  20
BRANCH  14  25
ATOM     25  C   UNL     1       0.337  12.155  21.217  0.00  0.00    +0.000 C 
BRANCH  25  26
ATOM     26  C   UNL     1       1.204  13.399  20.761  0.00  0.00    +0.000 C 
ATOM     27  C   UNL     1       2.176  13.518  19.581  0.00  0.00    +0.000 C 
ATOM     28  C   UNL     1       3.441  14.144  20.118  0.00  0.00    +0.000 C 
ATOM     29  C   UNL     1       3.186  14.366  21.583  0.00  0.00    +0.000 C 
ATOM     30  O   UNL     1       1.827  14.051  21.884  0.00  0.00    +0.000 OA
ENDBRANCH  25  26
ENDBRANCH  14  25
TORSDOF 6
ENDMDL
MODEL 4
REMARK VINA RESULT:      -6.6      2.502      6.272
REMARK  Name = 
REMARK  8 active torsions:
REMARK  status: ('A' for Active; 'I' for Inactive)
REMARK    1  A    between atoms: C_1  and  C_2
REMARK    2  A    between atoms: C_2  and  O_3
REMARK    3  A    between atoms: O_3  and  C_4
REMARK    4  A    between atoms: C_4  and  C_6
REMARK    5  A    between atoms: N_19  and  C_20
REMARK    6  A    between atoms: C_20  and  C_21
REMARK    7  A    between atoms: N_27  and  C_28
REMARK    8  A    between atoms: C_28  and  C_29
REMARK                            x       y       z     vdW  Elec       q    Type
REMARK                         _______ _______ _______ _____ _____    ______ ____
ROOT
ATOM      1  C   UNL     1      -2.701  11.463  17.965  0.00  0.00    +0.000 A 
ATOM      2  C   UNL     1      -3.991  11.543  18.338  0.00  0.00    +0.000 A 
ATOM      3  C   UNL     1      -4.370  12.414  19.436  0.00  0.00    +0.000 A 
ATOM      4  C   UNL     1      -5.740  12.986  19.424  0.00  0.00    +0.000 A 
ATOM      5  O   UNL     1      -6.533  12.665  18.536  0.00  0.00    +0.000 OA
ATOM      6  N   UNL     1      -6.009  13.916  20.402  0.00  0.00    +0.000 N 
ATOM      7  C   UNL     1      -7.262  14.535  20.409  0.00  0.00    +0.000 A 
ATOM      8  C   UNL     1      -7.577  15.476  21.306  0.00  0.00    +0.000 A 
ATOM      9  C   UNL     1      -6.601  15.873  22.282  0.00  0.00    +0.000 A 
ATOM     10  C   UNL     1      -5.391  15.291  22.319  0.00  0.00    +0.000 A 
ATOM     11  C   UNL     1      -5.021  14.226  21.331  0.00  0.00    +0.000 A 
ATOM     12  N   UNL     1      -3.835  13.680  21.375  0.00  0.00    +0.000 NA
ATOM     13  C   UNL     1      -3.466  12.775  20.391  0.00  0.00    +0.000 A 
ATOM     14  N   UNL     1      -2.085  12.311  20.191  0.00  0.00    +0.000 N 
ATOM     15  C   UNL     1      -1.752  12.277  18.817  0.00  0.00    +0.000 A 
ATOM     16  N   UNL     1      -0.868  12.959  18.141  0.00  0.00    +0.000 NA
ENDROOT
BRANCH  16  17
ATOM     17  C   UNL     1       0.071  13.726  18.753  0.00  0.00    +0.000 C 
ATOM     18  C   UNL     1      -0.237  15.169  19.029  0.00  0.00    +0.000 C 
ATOM     19  O   UNL     1       1.206  13.336  19.047  0.00  0.00    +0.000 OA
ENDBRANCH  16  17
BRANCH   1  20
ATOM     20  C   UNL     1      -2.297  10.572  16.865  0.00  0.00    +0.000 C 
ATOM     21  O   UNL     1      -1.582   9.590  16.991  0.00  0.00    +0.000 OA
BRANCH  20  22
ATOM     22  O   UNL     1      -2.733  11.094  15.697  0.00  0.00    +0.000 OA
BRANCH  22  24
ATOM     23  C   UNL     1      -2.970   9.831  13.709  0.00  0.00    +0.000 C 
ATOM     24  C   UNL     1      -3.672  10.320  14.960  0.00  0.00    +0.000 C 
ENDBRANCH  22  24
ENDBRANCH  20  22
ENDBRANCH   1  20
BRANCH  14  25
ATOM     25  C   UNL     1      -1.061  12.483  21.271  0.00  0.00    +0.000 C 
BRANCH  25  26
ATOM     26  C   UNL     1      -0.055  11.341  21.710  0.00  0.00    +0.000 C 
ATOM     27  C   UNL     1       0.385  10.092  20.937  0.00  0.00    +0.000 C 
ATOM     28  C   UNL     1       0.266   8.924  21.887  0.00  0.00    +0.000 C 
ATOM     29  C   UNL     1      -0.243   9.510  23.176  0.00  0.00    +0.000 C 
ATOM     30  O   UNL     1      -0.281  10.932  23.073  0.00  0.00    +0.000 OA
ENDBRANCH  25  26
ENDBRANCH  14  25
TORSDOF 6
ENDMDL
MODEL 5
REMARK VINA RESULT:      -6.5      3.515      5.918
REMARK  Name = 
REMARK  8 active torsions:
REMARK  status: ('A' for Active; 'I' for Inactive)
REMARK    1  A    between atoms: C_1  and  C_2
REMARK    2  A    between atoms: C_2  and  O_3
REMARK    3  A    between atoms: O_3  and  C_4
REMARK    4  A    between atoms: C_4  and  C_6
REMARK    5  A    between atoms: N_19  and  C_20
REMARK    6  A    between atoms: C_20  and  C_21
REMARK    7  A    between atoms: N_27  and  C_28
REMARK    8  A    between atoms: C_28  and  C_29
REMARK                            x       y       z     vdW  Elec       q    Type
REMARK                         _______ _______ _______ _____ _____    ______ ____
ROOT
ATOM      1  C   UNL     1       0.398   9.724  21.911  0.00  0.00    +0.000 A 
ATOM      2  C   UNL     1       0.690   8.461  21.551  0.00  0.00    +0.000 A 
ATOM      3  C   UNL     1       1.339   8.206  20.278  0.00  0.00    +0.000 A 
ATOM      4  C   UNL     1       2.205   7.005  20.170  0.00  0.00    +0.000 A 
ATOM      5  O   UNL     1       2.302   6.229  21.123  0.00  0.00    +0.000 OA
ATOM      6  N   UNL     1       2.912   6.880  18.996  0.00  0.00    +0.000 N 
ATOM      7  C   UNL     1       3.791   5.803  18.856  0.00  0.00    +0.000 A 
ATOM      8  C   UNL     1       4.538   5.641  17.758  0.00  0.00    +0.000 A 
ATOM      9  C   UNL     1       4.448   6.605  16.698  0.00  0.00    +0.000 A 
ATOM     10  C   UNL     1       3.605   7.646  16.786  0.00  0.00    +0.000 A 
ATOM     11  C   UNL     1       2.749   7.840  18.002  0.00  0.00    +0.000 A 
ATOM     12  N   UNL     1       1.943   8.866  18.075  0.00  0.00    +0.000 NA
ATOM     13  C   UNL     1       1.238   9.095  19.247  0.00  0.00    +0.000 A 
ATOM     14  N   UNL     1       0.521  10.346  19.534  0.00  0.00    +0.000 N 
ATOM     15  C   UNL     1       0.738  10.766  20.867  0.00  0.00    +0.000 A 
ATOM     16  N   UNL     1       1.332  11.828  21.337  0.00  0.00    +0.000 NA
ENDROOT
BRANCH  16  17
ATOM     17  C   UNL     1       1.686  12.868  20.537  0.00  0.00    +0.000 C 
ATOM     18  C   UNL     1       0.869  14.126  20.580  0.00  0.00    +0.000 C 
ATOM     19  O   UNL     1       2.607  12.833  19.715  0.00  0.00    +0.000 OA
ENDBRANCH  16  17
BRANCH   1  20
ATOM     20  C   UNL     1      -0.275   9.999  23.191  0.00  0.00    +0.000 C 
ATOM     21  O   UNL     1       0.144   9.654  24.285  0.00  0.00    +0.000 OA
BRANCH  20  22
ATOM     22  O   UNL     1      -1.475  10.566  22.940  0.00  0.00    +0.000 OA
BRANCH  22  24
ATOM     23  C   UNL     1      -3.085  12.276  23.236  0.00  0.00    +0.000 C 
ATOM     24  C   UNL     1      -1.605  11.950  23.241  0.00  0.00    +0.000 C 
ENDBRANCH  22  24
ENDBRANCH  20  22
ENDBRANCH   1  20
BRANCH  14  25
ATOM     25  C   UNL     1       0.184  11.299  18.428  0.00  0.00    +0.000 C 
BRANCH  25  26
ATOM     26  C   UNL     1      -1.223  12.013  18.290  0.00  0.00    +0.000 C 
ATOM     27  C   UNL     1      -2.246  12.351  19.382  0.00  0.00    +0.000 C 
ATOM     28  C   UNL     1      -3.592  11.886  18.879  0.00  0.00    +0.000 C 
ATOM     29  C   UNL     1      -3.327  11.287  17.525  0.00  0.00    +0.000 C 
ATOM     30  O   UNL     1      -1.964  11.509  17.163  0.00  0.00    +0.000 OA
ENDBRANCH  25  26
ENDBRANCH  14  25
TORSDOF 6
ENDMDL
MODEL 6
REMARK VINA RESULT:      -6.4      2.650      5.316
REMARK  Name = 
REMARK  8 active torsions:
REMARK  status: ('A' for Active; 'I' for Inactive)
REMARK    1  A    between atoms: C_1  and  C_2
REMARK    2  A    between atoms: C_2  and  O_3
REMARK    3  A    between atoms: O_3  and  C_4
REMARK    4  A    between atoms: C_4  and  C_6
REMARK    5  A    between atoms: N_19  and  C_20
REMARK    6  A    between atoms: C_20  and  C_21
REMARK    7  A    between atoms: N_27  and  C_28
REMARK    8  A    between atoms: C_28  and  C_29
REMARK                            x       y       z     vdW  Elec       q    Type
REMARK                         _______ _______ _______ _____ _____    ______ ____
ROOT
ATOM      1  C   UNL     1      -0.747  12.141  21.982  0.00  0.00    +0.000 A 
ATOM      2  C   UNL     1      -0.503  10.821  22.072  0.00  0.00    +0.000 A 
ATOM      3  C   UNL     1       0.040  10.109  20.930  0.00  0.00    +0.000 A 
ATOM      4  C   UNL     1       0.878   8.912  21.194  0.00  0.00    +0.000 A 
ATOM      5  O   UNL     1       1.039   8.517  22.351  0.00  0.00    +0.000 OA
ATOM      6  N   UNL     1       1.488   8.354  20.095  0.00  0.00    +0.000 N 
ATOM      7  C   UNL     1       2.338   7.261  20.285  0.00  0.00    +0.000 A 
ATOM      8  C   UNL     1       2.994   6.693  19.266  0.00  0.00    +0.000 A 
ATOM      9  C   UNL     1       2.835   7.226  17.942  0.00  0.00    +0.000 A 
ATOM     10  C   UNL     1       2.016   8.266  17.715  0.00  0.00    +0.000 A 
ATOM     11  C   UNL     1       1.262   8.909  18.839  0.00  0.00    +0.000 A 
ATOM     12  N   UNL     1       0.478   9.928  18.600  0.00  0.00    +0.000 NA
ATOM     13  C   UNL     1      -0.129  10.582  19.661  0.00  0.00    +0.000 A 
ATOM     14  N   UNL     1      -0.803  11.883  19.535  0.00  0.00    +0.000 N 
ATOM     15  C   UNL     1      -0.476  12.735  20.616  0.00  0.00    +0.000 A 
ATOM     16  N   UNL     1       0.168  13.869  20.638  0.00  0.00    +0.000 NA
ENDROOT
BRANCH  16  17
ATOM     17  C   UNL     1       0.472  14.546  19.500  0.00  0.00    +0.000 C 
ATOM     18  C   UNL     1       1.790  14.285  18.831  0.00  0.00    +0.000 C 
ATOM     19  O   UNL     1      -0.238  15.424  19.000  0.00  0.00    +0.000 OA
ENDBRANCH  16  17
BRANCH   1  20
ATOM     20  C   UNL     1      -1.314  12.875  23.125  0.00  0.00    +0.000 C 
ATOM     21  O   UNL     1      -0.748  13.778  23.721  0.00  0.00    +0.000 OA
BRANCH  20  22
ATOM     22  O   UNL     1      -2.485  12.299  23.477  0.00  0.00    +0.000 OA
BRANCH  22  24
ATOM     23  C   UNL     1      -4.399  13.680  23.658  0.00  0.00    +0.000 C 
ATOM     24  C   UNL     1      -3.643  12.716  22.765  0.00  0.00    +0.000 C 
ENDBRANCH  22  24
ENDBRANCH  20  22
ENDBRANCH   1  20
BRANCH  14  25
ATOM     25  C   UNL     1      -1.213  12.399  18.190  0.00  0.00    +0.000 C 
BRANCH  25  26
ATOM     26  C   UNL     1      -2.444  11.826  17.373  0.00  0.00    +0.000 C 
ATOM     27  C   UNL     1      -3.850  11.468  17.869  0.00  0.00    +0.000 C 
ATOM     28  C   UNL     1      -4.172  10.099  17.319  0.00  0.00    +0.000 C 
ATOM     29  C   UNL     1      -2.959   9.690  16.530  0.00  0.00    +0.000 C 
ATOM     30  O   UNL     1      -2.038  10.779  16.471  0.00  0.00    +0.000 OA
ENDBRANCH  25  26
ENDBRANCH  14  25
TORSDOF 6
ENDMDL
MODEL 7
REMARK VINA RESULT:      -6.4      2.363      6.318
REMARK  Name = 
REMARK  8 active torsions:
REMARK  status: ('A' for Active; 'I' for Inactive)
REMARK    1  A    between atoms: C_1  and  C_2
REMARK    2  A    between atoms: C_2  and  O_3
REMARK    3  A    between atoms: O_3  and  C_4
REMARK    4  A    between atoms: C_4  and  C_6
REMARK    5  A    between atoms: N_19  and  C_20
REMARK    6  A    between atoms: C_20  and  C_21
REMARK    7  A    between atoms: N_27  and  C_28
REMARK    8  A    between atoms: C_28  and  C_29
REMARK                            x       y       z     vdW  Elec       q    Type
REMARK                         _______ _______ _______ _____ _____    ______ ____
ROOT
ATOM      1  C   UNL     1      -3.497  11.619  18.571  0.00  0.00    +0.000 A 
ATOM      2  C   UNL     1      -4.627  12.049  19.160  0.00  0.00    +0.000 A 
ATOM      3  C   UNL     1      -4.561  13.075  20.184  0.00  0.00    +0.000 A 
ATOM      4  C   UNL     1      -5.736  13.968  20.348  0.00  0.00    +0.000 A 
ATOM      5  O   UNL     1      -6.749  13.782  19.669  0.00  0.00    +0.000 OA
ATOM      6  N   UNL     1      -5.576  15.014  21.227  0.00  0.00    +0.000 N 
ATOM      7  C   UNL     1      -6.625  15.924  21.381  0.00  0.00    +0.000 A 
ATOM      8  C   UNL     1      -6.523  16.986  22.189  0.00  0.00    +0.000 A 
ATOM      9  C   UNL     1      -5.301  17.207  22.910  0.00  0.00    +0.000 A 
ATOM     10  C   UNL     1      -4.275  16.347  22.802  0.00  0.00    +0.000 A 
ATOM     11  C   UNL     1      -4.372  15.145  21.911  0.00  0.00    +0.000 A 
ATOM     12  N   UNL     1      -3.358  14.326  21.810  0.00  0.00    +0.000 NA
ATOM     13  C   UNL     1      -3.419  13.278  20.902  0.00  0.00    +0.000 A 
ATOM     14  N   UNL     1      -2.253  12.470  20.516  0.00  0.00    +0.000 N 
ATOM     15  C   UNL     1      -2.231  12.240  19.121  0.00  0.00    +0.000 A 
ATOM     16  N   UNL     1      -1.376  12.621  18.211  0.00  0.00    +0.000 NA
ENDROOT
BRANCH  16  17
ATOM     17  C   UNL     1      -0.180  13.177  18.535  0.00  0.00    +0.000 C 
ATOM     18  C   UNL     1      -0.107  14.660  18.760  0.00  0.00    +0.000 C 
ATOM     19  O   UNL     1       0.885  12.555  18.598  0.00  0.00    +0.000 OA
ENDBRANCH  16  17
BRANCH   1  20
ATOM     20  C   UNL     1      -3.545  10.567  17.542  0.00  0.00    +0.000 C 
ATOM     21  O   UNL     1      -3.301   9.387  17.742  0.00  0.00    +0.000 OA
BRANCH  20  22
ATOM     22  O   UNL     1      -3.769  11.141  16.340  0.00  0.00    +0.000 OA
BRANCH  22  24
ATOM     23  C   UNL     1      -3.634  10.041  14.249  0.00  0.00    +0.000 C 
ATOM     24  C   UNL     1      -2.860  10.818  15.295  0.00  0.00    +0.000 C 
ENDBRANCH  22  24
ENDBRANCH  20  22
ENDBRANCH   1  20
BRANCH  14  25
ATOM     25  C   UNL     1      -1.015  12.471  21.359  0.00  0.00    +0.000 C 
BRANCH  25  26
ATOM     26  C   UNL     1      -0.152  11.173  21.644  0.00  0.00    +0.000 C 
ATOM     27  C   UNL     1      -0.139   9.837  20.892  0.00  0.00    +0.000 C 
ATOM     28  C   UNL     1      -0.232   8.748  21.934  0.00  0.00    +0.000 C 
ATOM     29  C   UNL     1      -0.304   9.464  23.255  0.00  0.00    +0.000 C 
ATOM     30  O   UNL     1      -0.112  10.863  23.050  0.00  0.00    +0.000 OA
ENDBRANCH  25  26
ENDBRANCH  14  25
TORSDOF 6
ENDMDL
MODEL 8
REMARK VINA RESULT:      -6.4      6.846     10.388
REMARK  Name = 
REMARK  8 active torsions:
REMARK  status: ('A' for Active; 'I' for Inactive)
REMARK    1  A    between atoms: C_1  and  C_2
REMARK    2  A    between atoms: C_2  and  O_3
REMARK    3  A    between atoms: O_3  and  C_4
REMARK    4  A    between atoms: C_4  and  C_6
REMARK    5  A    between atoms: N_19  and  C_20
REMARK    6  A    between atoms: C_20  and  C_21
REMARK    7  A    between atoms: N_27  and  C_28
REMARK    8  A    between atoms: C_28  and  C_29
REMARK                            x       y       z     vdW  Elec       q    Type
REMARK                         _______ _______ _______ _____ _____    ______ ____
ROOT
ATOM      1  C   UNL     1       4.526   6.540  16.686  0.00  0.00    +0.000 A 
ATOM      2  C   UNL     1       3.421   7.304  16.752  0.00  0.00    +0.000 A 
ATOM      3  C   UNL     1       2.751   7.493  18.026  0.00  0.00    +0.000 A 
ATOM      4  C   UNL     1       2.001   8.758  18.233  0.00  0.00    +0.000 A 
ATOM      5  O   UNL     1       1.909   9.576  17.314  0.00  0.00    +0.000 OA
ATOM      6  N   UNL     1       1.505   8.959  19.500  0.00  0.00    +0.000 N 
ATOM      7  C   UNL     1       0.840  10.158  19.775  0.00  0.00    +0.000 A 
ATOM      8  C   UNL     1       0.367  10.436  20.995  0.00  0.00    +0.000 A 
ATOM      9  C   UNL     1       0.554   9.488  22.057  0.00  0.00    +0.000 A 
ATOM     10  C   UNL     1       1.174   8.318  21.830  0.00  0.00    +0.000 A 
ATOM     11  C   UNL     1       1.702   7.980  20.468  0.00  0.00    +0.000 A 
ATOM     12  N   UNL     1       2.313   6.842  20.270  0.00  0.00    +0.000 NA
ATOM     13  C   UNL     1       2.891   6.586  19.036  0.00  0.00    +0.000 A 
ATOM     14  N   UNL     1       3.820   5.474  18.788  0.00  0.00    +0.000 N 
ATOM     15  C   UNL     1       4.916   5.889  17.996  0.00  0.00    +0.000 A 
ATOM     16  N   UNL     1       6.188   5.956  18.275  0.00  0.00    +0.000 NA
ENDROOT
BRANCH  16  17
ATOM     17  C   UNL     1       6.708   5.403  19.402  0.00  0.00    +0.000 C 
ATOM     18  C   UNL     1       8.083   5.811  19.843  0.00  0.00    +0.000 C 
ATOM     19  O   UNL     1       6.150   4.526  20.069  0.00  0.00    +0.000 OA
ENDBRANCH  16  17
BRANCH   1  20
ATOM     20  C   UNL     1       5.207   6.323  15.399  0.00  0.00    +0.000 C 
ATOM     21  O   UNL     1       5.119   7.063  14.432  0.00  0.00    +0.000 OA
BRANCH  20  22
ATOM     22  O   UNL     1       5.825   5.122  15.429  0.00  0.00    +0.000 OA
BRANCH  22  24
ATOM     23  C   UNL     1       6.134   3.804  13.488  0.00  0.00    +0.000 C 
ATOM     24  C   UNL     1       6.755   4.853  14.388  0.00  0.00    +0.000 C 
ENDBRANCH  22  24
ENDBRANCH  20  22
ENDBRANCH   1  20
BRANCH  14  25
ATOM     25  C   UNL     1       3.900   4.323  19.745  0.00  0.00    +0.000 C 
BRANCH  25  26
ATOM     26  C   UNL     1       2.867   3.122  19.753  0.00  0.00    +0.000 C 
ATOM     27  C   UNL     1       2.279   2.345  18.568  0.00  0.00    +0.000 C 
ATOM     28  C   UNL     1       0.787   2.271  18.791  0.00  0.00    +0.000 C 
ATOM     29  C   UNL     1       0.540   3.005  20.081  0.00  0.00    +0.000 C 
ATOM     30  O   UNL     1       1.788   3.358  20.677  0.00  0.00    +0.000 OA
ENDBRANCH  25  26
ENDBRANCH  14  25
TORSDOF 6
ENDMDL
MODEL 9
REMARK VINA RESULT:      -6.3      2.052      6.284
REMARK  Name = 
REMARK  8 active torsions:
REMARK  status: ('A' for Active; 'I' for Inactive)
REMARK    1  A    between atoms: C_1  and  C_2
REMARK    2  A    between atoms: C_2  and  O_3
REMARK    3  A    between atoms: O_3  and  C_4
REMARK    4  A    between atoms: C_4  and  C_6
REMARK    5  A    between atoms: N_19  and  C_20
REMARK    6  A    between atoms: C_20  and  C_21
REMARK    7  A    between atoms: N_27  and  C_28
REMARK    8  A    between atoms: C_28  and  C_29
REMARK                            x       y       z     vdW  Elec       q    Type
REMARK                         _______ _______ _______ _____ _____    ______ ____
ROOT
ATOM      1  C   UNL     1       0.425  11.081  21.120  0.00  0.00    +0.000 A 
ATOM      2  C   UNL     1       1.181  11.685  20.185  0.00  0.00    +0.000 A 
ATOM      3  C   UNL     1       0.748  12.947  19.614  0.00  0.00    +0.000 A 
ATOM      4  C   UNL     1       1.793  13.882  19.128  0.00  0.00    +0.000 A 
ATOM      5  O   UNL     1       2.980  13.548  19.159  0.00  0.00    +0.000 OA
ATOM      6  N   UNL     1       1.350  15.121  18.728  0.00  0.00    +0.000 N 
ATOM      7  C   UNL     1       2.292  16.068  18.317  0.00  0.00    +0.000 A 
ATOM      8  C   UNL     1       1.934  17.305  17.952  0.00  0.00    +0.000 A 
ATOM      9  C   UNL     1       0.548  17.679  17.995  0.00  0.00    +0.000 A 
ATOM     10  C   UNL     1      -0.390  16.794  18.370  0.00  0.00    +0.000 A 
ATOM     11  C   UNL     1      -0.013  15.399  18.771  0.00  0.00    +0.000 A 
ATOM     12  N   UNL     1      -0.939  14.556  19.145  0.00  0.00    +0.000 NA
ATOM     13  C   UNL     1      -0.569  13.305  19.616  0.00  0.00    +0.000 A 
ATOM     14  N   UNL     1      -1.492  12.390  20.304  0.00  0.00    +0.000 N 
ATOM     15  C   UNL     1      -0.875  11.792  21.428  0.00  0.00    +0.000 A 
ATOM     16  N   UNL     1      -1.150  11.891  22.700  0.00  0.00    +0.000 NA
ENDROOT
BRANCH  16  17
ATOM     17  C   UNL     1      -2.289  12.481  23.146  0.00  0.00    +0.000 C 
ATOM     18  C   UNL     1      -2.276  13.953  23.440  0.00  0.00    +0.000 C 
ATOM     19  O   UNL     1      -3.336  11.876  23.396  0.00  0.00    +0.000 OA
ENDBRANCH  16  17
BRANCH   1  20
ATOM     20  C   UNL     1       0.841   9.792  21.698  0.00  0.00    +0.000 C 
ATOM     21  O   UNL     1       1.361   9.657  22.794  0.00  0.00    +0.000 OA
BRANCH  20  22
ATOM     22  O   UNL     1       0.674   8.824  20.770  0.00  0.00    +0.000 OA
BRANCH  22  24
ATOM     23  C   UNL     1       2.192   7.413  19.628  0.00  0.00    +0.000 C 
ATOM     24  C   UNL     1       1.451   7.644  20.929  0.00  0.00    +0.000 C 
ENDBRANCH  22  24
ENDBRANCH  20  22
ENDBRANCH   1  20
BRANCH  14  25
ATOM     25  C   UNL     1      -2.974  12.584  20.199  0.00  0.00    +0.000 C 
BRANCH  25  26
ATOM     26  C   UNL     1      -3.886  11.799  19.169  0.00  0.00    +0.000 C 
ATOM     27  C   UNL     1      -3.577  11.386  17.725  0.00  0.00    +0.000 C 
ATOM     28  C   UNL     1      -4.770  11.789  16.891  0.00  0.00    +0.000 C 
ATOM     29  C   UNL     1      -5.733  12.427  17.854  0.00  0.00    +0.000 C 
ATOM     30  O   UNL     1      -5.242  12.285  19.186  0.00  0.00    +0.000 OA
ENDBRANCH  25  26
ENDBRANCH  14  25
TORSDOF 6
ENDMDL
