MODEL 1
REMARK VINA RESULT:      -8.8      0.000      0.000
REMARK  Name = 
REMARK  3 active torsions:
REMARK  status: ('A' for Active; 'I' for Inactive)
REMARK    1  A    between atoms: C_1  and  C_2
REMARK    2  A    between atoms: C_6  and  C_7
REMARK    3  A    between atoms: C_7  and  C_9
REMARK                            x       y       z     vdW  Elec       q    Type
REMARK                         _______ _______ _______ _____ _____    ______ ____
ROOT
ATOM      1  C   UNL     1       5.709   6.035  16.459  0.00  0.00    +0.000 C 
ATOM      2  C   UNL     1       4.851   5.590  17.397  0.00  0.00    +0.000 C 
ATOM      3  N   UNL     1       4.899   4.357  18.020  0.00  0.00    +0.000 N 
ATOM      4  C   UNL     1       3.696   3.685  18.252  0.00  0.00    +0.000 A 
ATOM      5  C   UNL     1       3.672   2.322  18.534  0.00  0.00    +0.000 A 
ATOM      6  C   UNL     1       2.450   1.668  18.718  0.00  0.00    +0.000 A 
ATOM      7  C   UNL     1       1.255   2.388  18.642  0.00  0.00    +0.000 A 
ATOM      8  C   UNL     1       1.274   3.765  18.417  0.00  0.00    +0.000 A 
ATOM      9  C   UNL     1       2.499   4.401  18.242  0.00  0.00    +0.000 A 
ATOM     10  O   UNL     1       2.508   5.802  18.055  0.00  0.00    +0.000 OA
ATOM     11  C   UNL     1       3.679   6.480  17.701  0.00  0.00    +0.000 C 
ATOM     12  O   UNL     1       3.717   7.701  17.579  0.00  0.00    +0.000 OA
ATOM     13  H   UNL     1       5.652   3.757  17.659  0.00  0.00    +0.000 HD
ENDROOT
BRANCH   1  14
ATOM     14  C   UNL     1       6.765   5.116  15.948  0.00  0.00    +0.000 C 
ATOM     15  O   UNL     1       7.569   4.598  16.727  0.00  0.00    +0.000 OA
BRANCH  14  21
ATOM     16  C   UNL     1       5.319   2.550  11.818  0.00  0.00    +0.000 C 
ATOM     17  C   UNL     1       6.186   3.577  12.489  0.00  0.00    +0.000 A 
ATOM     18  C   UNL     1       7.124   4.306  11.749  0.00  0.00    +0.000 A 
ATOM     19  C   UNL     1       7.926   5.255  12.373  0.00  0.00    +0.000 A 
ATOM     20  C   UNL     1       7.791   5.485  13.738  0.00  0.00    +0.000 A 
ATOM     21  C   UNL     1       6.850   4.771  14.503  0.00  0.00    +0.000 A 
ATOM     22  C   UNL     1       6.056   3.809  13.869  0.00  0.00    +0.000 A 
ENDBRANCH  14  21
ENDBRANCH   1  14
TORSDOF 2
ENDMDL
MODEL 2
REMARK VINA RESULT:      -8.3      2.490      6.615
REMARK  Name = 
REMARK  3 active torsions:
REMARK  status: ('A' for Active; 'I' for Inactive)
REMARK    1  A    between atoms: C_1  and  C_2
REMARK    2  A    between atoms: C_6  and  C_7
REMARK    3  A    between atoms: C_7  and  C_9
REMARK                            x       y       z     vdW  Elec       q    Type
REMARK                         _______ _______ _______ _____ _____    ______ ____
ROOT
ATOM      1  C   UNL     1       4.027   3.349  16.521  0.00  0.00    +0.000 C 
ATOM      2  C   UNL     1       5.235   3.945  16.502  0.00  0.00    +0.000 C 
ATOM      3  N   UNL     1       6.136   3.983  17.549  0.00  0.00    +0.000 N 
ATOM      4  C   UNL     1       6.837   5.170  17.776  0.00  0.00    +0.000 A 
ATOM      5  C   UNL     1       7.475   5.414  18.990  0.00  0.00    +0.000 A 
ATOM      6  C   UNL     1       8.131   6.629  19.203  0.00  0.00    +0.000 A 
ATOM      7  C   UNL     1       8.167   7.591  18.190  0.00  0.00    +0.000 A 
ATOM      8  C   UNL     1       7.579   7.330  16.950  0.00  0.00    +0.000 A 
ATOM      9  C   UNL     1       6.936   6.113  16.753  0.00  0.00    +0.000 A 
ATOM     10  O   UNL     1       6.380   5.846  15.481  0.00  0.00    +0.000 OA
ATOM     11  C   UNL     1       5.572   4.725  15.262  0.00  0.00    +0.000 C 
ATOM     12  O   UNL     1       5.118   4.451  14.156  0.00  0.00    +0.000 OA
ATOM     13  H   UNL     1       5.774   3.541  18.404  0.00  0.00    +0.000 HD
ENDROOT
BRANCH   1  14
ATOM     14  C   UNL     1       3.535   2.748  17.793  0.00  0.00    +0.000 C 
ATOM     15  O   UNL     1       3.760   1.562  18.048  0.00  0.00    +0.000 OA
BRANCH  14  21
ATOM     16  C   UNL     1       2.130   7.150  19.883  0.00  0.00    +0.000 C 
ATOM     17  C   UNL     1       2.087   5.650  19.829  0.00  0.00    +0.000 A 
ATOM     18  C   UNL     1       1.297   4.930  20.733  0.00  0.00    +0.000 A 
ATOM     19  C   UNL     1       1.261   3.541  20.682  0.00  0.00    +0.000 A 
ATOM     20  C   UNL     1       2.007   2.865  19.723  0.00  0.00    +0.000 A 
ATOM     21  C   UNL     1       2.801   3.566  18.797  0.00  0.00    +0.000 A 
ATOM     22  C   UNL     1       2.843   4.962  18.864  0.00  0.00    +0.000 A 
ENDBRANCH  14  21
ENDBRANCH   1  14
TORSDOF 2
ENDMDL
MODEL 3
REMARK VINA RESULT:      -8.2      1.888      6.736
REMARK  Name = 
REMARK  3 active torsions:
REMARK  status: ('A' for Active; 'I' for Inactive)
REMARK    1  A    between atoms: C_1  and  C_2
REMARK    2  A    between atoms: C_6  and  C_7
REMARK    3  A    between atoms: C_7  and  C_9
REMARK                            x       y       z     vdW  Elec       q    Type
REMARK                         _______ _______ _______ _____ _____    ______ ____
ROOT
ATOM      1  C   UNL     1       5.604   4.742  17.645  0.00  0.00    +0.000 C 
ATOM      2  C   UNL     1       5.803   5.077  16.355  0.00  0.00    +0.000 C 
ATOM      3  N   UNL     1       5.012   4.697  15.288  0.00  0.00    +0.000 N 
ATOM      4  C   UNL     1       5.641   4.342  14.091  0.00  0.00    +0.000 A 
ATOM      5  C   UNL     1       4.971   3.620  13.108  0.00  0.00    +0.000 A 
ATOM      6  C   UNL     1       5.640   3.242  11.940  0.00  0.00    +0.000 A 
ATOM      7  C   UNL     1       6.974   3.609  11.750  0.00  0.00    +0.000 A 
ATOM      8  C   UNL     1       7.635   4.383  12.706  0.00  0.00    +0.000 A 
ATOM      9  C   UNL     1       6.953   4.755  13.858  0.00  0.00    +0.000 A 
ATOM     10  O   UNL     1       7.620   5.573  14.800  0.00  0.00    +0.000 OA
ATOM     11  C   UNL     1       7.063   5.840  16.054  0.00  0.00    +0.000 C 
ATOM     12  O   UNL     1       7.604   6.584  16.866  0.00  0.00    +0.000 OA
ATOM     13  H   UNL     1       4.247   4.067  15.562  0.00  0.00    +0.000 HD
ENDROOT
BRANCH   1  14
ATOM     14  C   UNL     1       4.499   3.802  17.987  0.00  0.00    +0.000 C 
ATOM     15  O   UNL     1       4.435   2.694  17.448  0.00  0.00    +0.000 OA
BRANCH  14  21
ATOM     16  C   UNL     1       1.330   2.691  21.788  0.00  0.00    +0.000 C 
ATOM     17  C   UNL     1       1.950   3.679  20.844  0.00  0.00    +0.000 A 
ATOM     18  C   UNL     1       1.607   5.035  20.909  0.00  0.00    +0.000 A 
ATOM     19  C   UNL     1       2.182   5.948  20.031  0.00  0.00    +0.000 A 
ATOM     20  C   UNL     1       3.108   5.512  19.089  0.00  0.00    +0.000 A 
ATOM     21  C   UNL     1       3.477   4.157  19.009  0.00  0.00    +0.000 A 
ATOM     22  C   UNL     1       2.884   3.243  19.887  0.00  0.00    +0.000 A 
ENDBRANCH  14  21
ENDBRANCH   1  14
TORSDOF 2
ENDMDL
MODEL 4
REMARK VINA RESULT:      -8.1      1.856      2.894
REMARK  Name = 
REMARK  3 active torsions:
REMARK  status: ('A' for Active; 'I' for Inactive)
REMARK    1  A    between atoms: C_1  and  C_2
REMARK    2  A    between atoms: C_6  and  C_7
REMARK    3  A    between atoms: C_7  and  C_9
REMARK                            x       y       z     vdW  Elec       q    Type
REMARK                         _______ _______ _______ _____ _____    ______ ____
ROOT
ATOM      1  C   UNL     1       5.101   3.638  16.805  0.00  0.00    +0.000 C 
ATOM      2  C   UNL     1       3.947   4.037  17.372  0.00  0.00    +0.000 C 
ATOM      3  N   UNL     1       3.389   5.297  17.274  0.00  0.00    +0.000 N 
ATOM      4  C   UNL     1       2.798   5.851  18.413  0.00  0.00    +0.000 A 
ATOM      5  C   UNL     1       2.543   7.216  18.505  0.00  0.00    +0.000 A 
ATOM      6  C   UNL     1       1.991   7.746  19.675  0.00  0.00    +0.000 A 
ATOM      7  C   UNL     1       1.674   6.902  20.742  0.00  0.00    +0.000 A 
ATOM      8  C   UNL     1       1.873   5.525  20.635  0.00  0.00    +0.000 A 
ATOM      9  C   UNL     1       2.417   5.013  19.462  0.00  0.00    +0.000 A 
ATOM     10  O   UNL     1       2.577   3.613  19.350  0.00  0.00    +0.000 OA
ATOM     11  C   UNL     1       3.274   3.045  18.278  0.00  0.00    +0.000 C 
ATOM     12  O   UNL     1       3.383   1.830  18.139  0.00  0.00    +0.000 OA
ATOM     13  H   UNL     1       3.978   5.955  16.747  0.00  0.00    +0.000 HD
ENDROOT
BRANCH   1  14
ATOM     14  C   UNL     1       5.934   4.636  16.076  0.00  0.00    +0.000 C 
ATOM     15  O   UNL     1       6.364   5.633  16.660  0.00  0.00    +0.000 OA
BRANCH  14  21
ATOM     16  C   UNL     1       5.317   2.530  11.503  0.00  0.00    +0.000 C 
ATOM     17  C   UNL     1       6.039   3.464  12.431  0.00  0.00    +0.000 A 
ATOM     18  C   UNL     1       7.106   4.242  11.966  0.00  0.00    +0.000 A 
ATOM     19  C   UNL     1       7.774   5.105  12.828  0.00  0.00    +0.000 A 
ATOM     20  C   UNL     1       7.375   5.199  14.157  0.00  0.00    +0.000 A 
ATOM     21  C   UNL     1       6.300   4.435  14.647  0.00  0.00    +0.000 A 
ATOM     22  C   UNL     1       5.642   3.560  13.776  0.00  0.00    +0.000 A 
ENDBRANCH  14  21
ENDBRANCH   1  14
TORSDOF 2
ENDMDL
MODEL 5
REMARK VINA RESULT:      -8.1      1.804      6.805
REMARK  Name = 
REMARK  3 active torsions:
REMARK  status: ('A' for Active; 'I' for Inactive)
REMARK    1  A    between atoms: C_1  and  C_2
REMARK    2  A    between atoms: C_6  and  C_7
REMARK    3  A    between atoms: C_7  and  C_9
REMARK                            x       y       z     vdW  Elec       q    Type
REMARK                         _______ _______ _______ _____ _____    ______ ____
ROOT
ATOM      1  C   UNL     1       5.424   4.506  17.911  0.00  0.00    +0.000 C 
ATOM      2  C   UNL     1       5.677   4.944  16.663  0.00  0.00    +0.000 C 
ATOM      3  N   UNL     1       4.943   4.637  15.533  0.00  0.00    +0.000 N 
ATOM      4  C   UNL     1       5.632   4.387  14.343  0.00  0.00    +0.000 A 
ATOM      5  C   UNL     1       5.021   3.734  13.276  0.00  0.00    +0.000 A 
ATOM      6  C   UNL     1       5.749   3.459  12.115  0.00  0.00    +0.000 A 
ATOM      7  C   UNL     1       7.084   3.859  12.017  0.00  0.00    +0.000 A 
ATOM      8  C   UNL     1       7.687   4.565  13.060  0.00  0.00    +0.000 A 
ATOM      9  C   UNL     1       6.946   4.836  14.205  0.00  0.00    +0.000 A 
ATOM     10  O   UNL     1       7.554   5.586  15.238  0.00  0.00    +0.000 OA
ATOM     11  C   UNL     1       6.935   5.746  16.482  0.00  0.00    +0.000 C 
ATOM     12  O   UNL     1       7.425   6.431  17.374  0.00  0.00    +0.000 OA
ATOM     13  H   UNL     1       4.178   3.976  15.720  0.00  0.00    +0.000 HD
ENDROOT
BRANCH   1  14
ATOM     14  C   UNL     1       4.323   3.525  18.127  0.00  0.00    +0.000 C 
ATOM     15  O   UNL     1       4.362   2.417  17.588  0.00  0.00    +0.000 OA
BRANCH  14  21
ATOM     16  C   UNL     1       1.464   6.698  20.865  0.00  0.00    +0.000 C 
ATOM     17  C   UNL     1       1.765   5.323  20.340  0.00  0.00    +0.000 A 
ATOM     18  C   UNL     1       0.929   4.245  20.654  0.00  0.00    +0.000 A 
ATOM     19  C   UNL     1       1.212   2.973  20.168  0.00  0.00    +0.000 A 
ATOM     20  C   UNL     1       2.326   2.773  19.360  0.00  0.00    +0.000 A 
ATOM     21  C   UNL     1       3.177   3.842  19.023  0.00  0.00    +0.000 A 
ATOM     22  C   UNL     1       2.893   5.116  19.526  0.00  0.00    +0.000 A 
ENDBRANCH  14  21
ENDBRANCH   1  14
TORSDOF 2
ENDMDL
MODEL 6
REMARK VINA RESULT:      -8.1      2.729      4.663
REMARK  Name = 
REMARK  3 active torsions:
REMARK  status: ('A' for Active; 'I' for Inactive)
REMARK    1  A    between atoms: C_1  and  C_2
REMARK    2  A    between atoms: C_6  and  C_7
REMARK    3  A    between atoms: C_7  and  C_9
REMARK                            x       y       z     vdW  Elec       q    Type
REMARK                         _______ _______ _______ _____ _____    ______ ____
ROOT
ATOM      1  C   UNL     1       4.924   3.661  16.696  0.00  0.00    +0.000 C 
ATOM      2  C   UNL     1       3.773   4.080  17.258  0.00  0.00    +0.000 C 
ATOM      3  N   UNL     1       3.329   5.387  17.318  0.00  0.00    +0.000 N 
ATOM      4  C   UNL     1       2.716   5.825  18.495  0.00  0.00    +0.000 A 
ATOM      5  C   UNL     1       2.570   7.181  18.773  0.00  0.00    +0.000 A 
ATOM      6  C   UNL     1       1.992   7.588  19.979  0.00  0.00    +0.000 A 
ATOM      7  C   UNL     1       1.540   6.635  20.894  0.00  0.00    +0.000 A 
ATOM      8  C   UNL     1       1.631   5.274  20.597  0.00  0.00    +0.000 A 
ATOM      9  C   UNL     1       2.203   4.886  19.390  0.00  0.00    +0.000 A 
ATOM     10  O   UNL     1       2.253   3.507  19.082  0.00  0.00    +0.000 OA
ATOM     11  C   UNL     1       2.966   3.035  17.975  0.00  0.00    +0.000 C 
ATOM     12  O   UNL     1       2.983   1.847  17.665  0.00  0.00    +0.000 OA
ATOM     13  H   UNL     1       4.002   6.056  16.922  0.00  0.00    +0.000 HD
ENDROOT
BRANCH   1  14
ATOM     14  C   UNL     1       5.880   4.673  16.163  0.00  0.00    +0.000 C 
ATOM     15  O   UNL     1       5.971   4.863  14.948  0.00  0.00    +0.000 OA
BRANCH  14  21
ATOM     16  C   UNL     1       7.961   9.045  17.672  0.00  0.00    +0.000 C 
ATOM     17  C   UNL     1       7.725   7.573  17.852  0.00  0.00    +0.000 A 
ATOM     18  C   UNL     1       8.270   6.896  18.949  0.00  0.00    +0.000 A 
ATOM     19  C   UNL     1       8.051   5.532  19.112  0.00  0.00    +0.000 A 
ATOM     20  C   UNL     1       7.280   4.840  18.184  0.00  0.00    +0.000 A 
ATOM     21  C   UNL     1       6.714   5.500  17.078  0.00  0.00    +0.000 A 
ATOM     22  C   UNL     1       6.950   6.869  16.914  0.00  0.00    +0.000 A 
ENDBRANCH  14  21
ENDBRANCH   1  14
TORSDOF 2
ENDMDL
MODEL 7
REMARK VINA RESULT:      -7.9      1.589      2.074
REMARK  Name = 
REMARK  3 active torsions:
REMARK  status: ('A' for Active; 'I' for Inactive)
REMARK    1  A    between atoms: C_1  and  C_2
REMARK    2  A    between atoms: C_6  and  C_7
REMARK    3  A    between atoms: C_7  and  C_9
REMARK                            x       y       z     vdW  Elec       q    Type
REMARK                         _______ _______ _______ _____ _____    ______ ____
ROOT
ATOM      1  C   UNL     1       6.285   5.557  16.721  0.00  0.00    +0.000 C 
ATOM      2  C   UNL     1       5.779   4.535  17.437  0.00  0.00    +0.000 C 
ATOM      3  N   UNL     1       4.811   3.647  17.009  0.00  0.00    +0.000 N 
ATOM      4  C   UNL     1       3.823   3.257  17.917  0.00  0.00    +0.000 A 
ATOM      5  C   UNL     1       2.636   2.670  17.487  0.00  0.00    +0.000 A 
ATOM      6  C   UNL     1       1.648   2.331  18.416  0.00  0.00    +0.000 A 
ATOM      7  C   UNL     1       1.862   2.558  19.778  0.00  0.00    +0.000 A 
ATOM      8  C   UNL     1       3.073   3.092  20.222  0.00  0.00    +0.000 A 
ATOM      9  C   UNL     1       4.047   3.419  19.285  0.00  0.00    +0.000 A 
ATOM     10  O   UNL     1       5.285   3.921  19.749  0.00  0.00    +0.000 OA
ATOM     11  C   UNL     1       6.240   4.431  18.864  0.00  0.00    +0.000 C 
ATOM     12  O   UNL     1       7.337   4.829  19.243  0.00  0.00    +0.000 OA
ATOM     13  H   UNL     1       4.453   3.868  16.071  0.00  0.00    +0.000 HD
ENDROOT
BRANCH   1  14
ATOM     14  C   UNL     1       5.713   5.855  15.377  0.00  0.00    +0.000 C 
ATOM     15  O   UNL     1       4.907   6.777  15.235  0.00  0.00    +0.000 OA
BRANCH  14  21
ATOM     16  C   UNL     1       4.878   2.550  11.621  0.00  0.00    +0.000 C 
ATOM     17  C   UNL     1       5.773   3.511  12.348  0.00  0.00    +0.000 A 
ATOM     18  C   UNL     1       7.074   3.753  11.892  0.00  0.00    +0.000 A 
ATOM     19  C   UNL     1       7.902   4.642  12.569  0.00  0.00    +0.000 A 
ATOM     20  C   UNL     1       7.432   5.298  13.702  0.00  0.00    +0.000 A 
ATOM     21  C   UNL     1       6.126   5.078  14.176  0.00  0.00    +0.000 A 
ATOM     22  C   UNL     1       5.304   4.173  13.496  0.00  0.00    +0.000 A 
ENDBRANCH  14  21
ENDBRANCH   1  14
TORSDOF 2
ENDMDL
MODEL 8
REMARK VINA RESULT:      -7.9      2.533      6.580
REMARK  Name = 
REMARK  3 active torsions:
REMARK  status: ('A' for Active; 'I' for Inactive)
REMARK    1  A    between atoms: C_1  and  C_2
REMARK    2  A    between atoms: C_6  and  C_7
REMARK    3  A    between atoms: C_7  and  C_9
REMARK                            x       y       z     vdW  Elec       q    Type
REMARK                         _______ _______ _______ _____ _____    ______ ____
ROOT
ATOM      1  C   UNL     1       4.133   3.360  16.456  0.00  0.00    +0.000 C 
ATOM      2  C   UNL     1       5.319   3.999  16.456  0.00  0.00    +0.000 C 
ATOM      3  N   UNL     1       6.256   3.968  17.471  0.00  0.00    +0.000 N 
ATOM      4  C   UNL     1       6.924   5.153  17.792  0.00  0.00    +0.000 A 
ATOM      5  C   UNL     1       7.597   5.299  19.002  0.00  0.00    +0.000 A 
ATOM      6  C   UNL     1       8.219   6.512  19.313  0.00  0.00    +0.000 A 
ATOM      7  C   UNL     1       8.185   7.569  18.400  0.00  0.00    +0.000 A 
ATOM      8  C   UNL     1       7.561   7.410  17.161  0.00  0.00    +0.000 A 
ATOM      9  C   UNL     1       6.953   6.195  16.865  0.00  0.00    +0.000 A 
ATOM     10  O   UNL     1       6.360   6.033  15.592  0.00  0.00    +0.000 OA
ATOM     11  C   UNL     1       5.583   4.910  15.290  0.00  0.00    +0.000 C 
ATOM     12  O   UNL     1       5.099   4.729  14.177  0.00  0.00    +0.000 OA
ATOM     13  H   UNL     1       5.941   3.430  18.289  0.00  0.00    +0.000 HD
ENDROOT
BRANCH   1  14
ATOM     14  C   UNL     1       3.709   2.618  17.676  0.00  0.00    +0.000 C 
ATOM     15  O   UNL     1       4.030   1.436  17.829  0.00  0.00    +0.000 OA
BRANCH  14  21
ATOM     16  C   UNL     1       1.220   2.673  22.096  0.00  0.00    +0.000 C 
ATOM     17  C   UNL     1       1.736   3.372  20.872  0.00  0.00    +0.000 A 
ATOM     18  C   UNL     1       1.529   4.746  20.699  0.00  0.00    +0.000 A 
ATOM     19  C   UNL     1       2.007   5.391  19.563  0.00  0.00    +0.000 A 
ATOM     20  C   UNL     1       2.700   4.668  18.598  0.00  0.00    +0.000 A 
ATOM     21  C   UNL     1       2.929   3.289  18.752  0.00  0.00    +0.000 A 
ATOM     22  C   UNL     1       2.434   2.645  19.891  0.00  0.00    +0.000 A 
ENDBRANCH  14  21
ENDBRANCH   1  14
TORSDOF 2
ENDMDL
MODEL 9
REMARK VINA RESULT:      -7.7      1.453      2.084
REMARK  Name = 
REMARK  3 active torsions:
REMARK  status: ('A' for Active; 'I' for Inactive)
REMARK    1  A    between atoms: C_1  and  C_2
REMARK    2  A    between atoms: C_6  and  C_7
REMARK    3  A    between atoms: C_7  and  C_9
REMARK                            x       y       z     vdW  Elec       q    Type
REMARK                         _______ _______ _______ _____ _____    ______ ____
ROOT
ATOM      1  C   UNL     1       4.646   5.501  16.446  0.00  0.00    +0.000 C 
ATOM      2  C   UNL     1       4.246   5.479  17.733  0.00  0.00    +0.000 C 
ATOM      3  N   UNL     1       4.480   4.459  18.636  0.00  0.00    +0.000 N 
ATOM      4  C   UNL     1       3.453   4.106  19.515  0.00  0.00    +0.000 A 
ATOM      5  C   UNL     1       3.466   2.889  20.192  0.00  0.00    +0.000 A 
ATOM      6  C   UNL     1       2.403   2.545  21.031  0.00  0.00    +0.000 A 
ATOM      7  C   UNL     1       1.338   3.432  21.210  0.00  0.00    +0.000 A 
ATOM      8  C   UNL     1       1.346   4.678  20.580  0.00  0.00    +0.000 A 
ATOM      9  C   UNL     1       2.415   5.007  19.753  0.00  0.00    +0.000 A 
ATOM     10  O   UNL     1       2.431   6.288  19.153  0.00  0.00    +0.000 OA
ATOM     11  C   UNL     1       3.377   6.621  18.178  0.00  0.00    +0.000 C 
ATOM     12  O   UNL     1       3.436   7.741  17.680  0.00  0.00    +0.000 OA
ATOM     13  H   UNL     1       4.965   3.657  18.215  0.00  0.00    +0.000 HD
ENDROOT
BRANCH   1  14
ATOM     14  C   UNL     1       5.320   4.301  15.875  0.00  0.00    +0.000 C 
ATOM     15  O   UNL     1       5.300   3.228  16.483  0.00  0.00    +0.000 OA
BRANCH  14  21
ATOM     16  C   UNL     1       8.874   5.994  12.677  0.00  0.00    +0.000 C 
ATOM     17  C   UNL     1       7.687   5.126  12.979  0.00  0.00    +0.000 A 
ATOM     18  C   UNL     1       7.164   4.273  12.000  0.00  0.00    +0.000 A 
ATOM     19  C   UNL     1       6.062   3.472  12.282  0.00  0.00    +0.000 A 
ATOM     20  C   UNL     1       5.482   3.514  13.546  0.00  0.00    +0.000 A 
ATOM     21  C   UNL     1       5.995   4.356  14.550  0.00  0.00    +0.000 A 
ATOM     22  C   UNL     1       7.095   5.168  14.253  0.00  0.00    +0.000 A 
ENDBRANCH  14  21
ENDBRANCH   1  14
TORSDOF 2
ENDMDL
