MODEL 1
REMARK VINA RESULT:      -8.8      0.000      0.000
REMARK  Name = 
REMARK  8 active torsions:
REMARK  status: ('A' for Active; 'I' for Inactive)
REMARK    1  A    between atoms: C_1  and  C_2
REMARK    2  A    between atoms: C_2  and  N_3
REMARK    3  A    between atoms: N_3  and  C_4
REMARK    4  A    between atoms: C_6  and  C_7
REMARK    5  A    between atoms: C_10  and  C_11
REMARK    6  A    between atoms: N_14  and  C_15
REMARK    7  A    between atoms: C_15  and  C_16
REMARK    8  A    between atoms: N_26  and  C_27
REMARK                            x       y       z     vdW  Elec       q    Type
REMARK                         _______ _______ _______ _____ _____    ______ ____
ROOT
ATOM      1  C   UNL     1      -0.712  10.815  18.778  0.00  0.00    +0.000 A 
ATOM      2  N   UNL     1       0.166   9.826  18.483  0.00  0.00    +0.000 NA
ATOM      3  C   UNL     1       0.917   9.286  19.471  0.00  0.00    +0.000 A 
ATOM      4  C   UNL     1       0.803   9.697  20.791  0.00  0.00    +0.000 A 
ATOM      5  C   UNL     1      -0.095  10.698  21.111  0.00  0.00    +0.000 A 
ATOM      6  N   UNL     1      -0.185  11.072  22.456  0.00  0.00    +0.000 NA
ATOM      7  C   UNL     1      -1.058  11.966  22.764  0.00  0.00    +0.000 A 
ATOM      8  N   UNL     1      -1.884  12.582  21.858  0.00  0.00    +0.000 N 
ATOM      9  C   UNL     1      -2.887  13.523  22.316  0.00  0.00    +0.000 C 
ATOM     10  C   UNL     1      -1.851  12.280  20.504  0.00  0.00    +0.000 A 
ATOM     11  O   UNL     1      -2.625  12.770  19.685  0.00  0.00    +0.000 OA
ATOM     12  C   UNL     1      -0.851  11.268  20.092  0.00  0.00    +0.000 A 
ENDROOT
BRANCH   3  13
ATOM     13  C   UNL     1       1.893   8.268  19.072  0.00  0.00    +0.000 A 
ATOM     14  C   UNL     1       2.142   7.162  19.896  0.00  0.00    +0.000 A 
ATOM     15  C   UNL     1       3.040   6.170  19.530  0.00  0.00    +0.000 A 
ATOM     16  C   UNL     1       3.794   6.268  18.359  0.00  0.00    +0.000 A 
ATOM     17  C   UNL     1       3.522   7.358  17.519  0.00  0.00    +0.000 A 
ATOM     18  F   UNL     1       4.146   7.468  16.337  0.00  0.00    +0.000 F 
ATOM     19  C   UNL     1       2.598   8.344  17.864  0.00  0.00    +0.000 A 
BRANCH  16  20
ATOM     20  C   UNL     1       4.849   5.235  17.985  0.00  0.00    +0.000 C 
ATOM     21  C   UNL     1       4.487   4.310  16.808  0.00  0.00    +0.000 C 
ATOM     22  C   UNL     1       3.392   3.295  17.168  0.00  0.00    +0.000 C 
ATOM     23  N   UNL     1       3.666   2.512  18.381  0.00  0.00    +0.000 NA
ATOM     24  C   UNL     1       4.146   3.322  19.510  0.00  0.00    +0.000 C 
ATOM     25  C   UNL     1       5.247   4.317  19.151  0.00  0.00    +0.000 C 
BRANCH  23  26
ATOM     26  C   UNL     1       2.446   1.758  18.743  0.00  0.00    +0.000 C 
ATOM     27  C   UNL     1       1.374   2.602  19.422  0.00  0.00    +0.000 C 
ENDBRANCH  23  26
ENDBRANCH  16  20
ENDBRANCH   3  13
BRANCH   1  28
ATOM     28  N   UNL     1      -1.375  11.443  17.711  0.00  0.00    +0.000 N 
ATOM     29  H   UNL     1      -1.943  12.218  18.060  0.00  0.00    +0.000 HD
BRANCH  28  31
ATOM     30  C   UNL     1      -3.222   9.871  17.618  0.00  0.00    +0.000 C 
ATOM     31  C   UNL     1      -2.112  10.547  16.829  0.00  0.00    +0.000 C 
ENDBRANCH  28  31
ENDBRANCH   1  28
TORSDOF 5
ENDMDL
MODEL 2
REMARK VINA RESULT:      -8.3      2.093      3.232
REMARK  Name = 
REMARK  8 active torsions:
REMARK  status: ('A' for Active; 'I' for Inactive)
REMARK    1  A    between atoms: C_1  and  C_2
REMARK    2  A    between atoms: C_2  and  N_3
REMARK    3  A    between atoms: N_3  and  C_4
REMARK    4  A    between atoms: C_6  and  C_7
REMARK    5  A    between atoms: C_10  and  C_11
REMARK    6  A    between atoms: N_14  and  C_15
REMARK    7  A    between atoms: C_15  and  C_16
REMARK    8  A    between atoms: N_26  and  C_27
REMARK                            x       y       z     vdW  Elec       q    Type
REMARK                         _______ _______ _______ _____ _____    ______ ____
ROOT
ATOM      1  C   UNL     1       0.702  11.456  19.364  0.00  0.00    +0.000 A 
ATOM      2  N   UNL     1       1.191  10.221  19.094  0.00  0.00    +0.000 NA
ATOM      3  C   UNL     1       1.093   9.247  20.029  0.00  0.00    +0.000 A 
ATOM      4  C   UNL     1       0.483   9.463  21.256  0.00  0.00    +0.000 A 
ATOM      5  C   UNL     1      -0.029  10.714  21.544  0.00  0.00    +0.000 A 
ATOM      6  N   UNL     1      -0.646  10.882  22.788  0.00  0.00    +0.000 NA
ATOM      7  C   UNL     1      -1.171  12.031  23.037  0.00  0.00    +0.000 A 
ATOM      8  N   UNL     1      -1.146  13.095  22.171  0.00  0.00    +0.000 N 
ATOM      9  C   UNL     1      -1.833  14.324  22.515  0.00  0.00    +0.000 C 
ATOM     10  C   UNL     1      -0.545  13.017  20.922  0.00  0.00    +0.000 A 
ATOM     11  O   UNL     1      -0.567  13.934  20.105  0.00  0.00    +0.000 OA
ATOM     12  C   UNL     1       0.091  11.721  20.592  0.00  0.00    +0.000 A 
ENDROOT
BRANCH   3  13
ATOM     13  C   UNL     1       1.701   7.956  19.697  0.00  0.00    +0.000 A 
ATOM     14  C   UNL     1       2.317   7.759  18.453  0.00  0.00    +0.000 A 
ATOM     15  C   UNL     1       2.924   6.556  18.124  0.00  0.00    +0.000 A 
ATOM     16  C   UNL     1       2.881   5.460  18.988  0.00  0.00    +0.000 A 
ATOM     17  C   UNL     1       2.293   5.665  20.245  0.00  0.00    +0.000 A 
ATOM     18  F   UNL     1       2.294   4.682  21.157  0.00  0.00    +0.000 F 
ATOM     19  C   UNL     1       1.708   6.881  20.596  0.00  0.00    +0.000 A 
BRANCH  16  20
ATOM     20  C   UNL     1       3.461   4.104  18.608  0.00  0.00    +0.000 C 
ATOM     21  C   UNL     1       4.809   3.750  19.266  0.00  0.00    +0.000 C 
ATOM     22  C   UNL     1       5.975   4.583  18.712  0.00  0.00    +0.000 C 
ATOM     23  N   UNL     1       6.090   4.567  17.248  0.00  0.00    +0.000 NA
ATOM     24  C   UNL     1       4.810   4.769  16.553  0.00  0.00    +0.000 C 
ATOM     25  C   UNL     1       3.658   3.925  17.095  0.00  0.00    +0.000 C 
BRANCH  23  26
ATOM     26  C   UNL     1       7.086   5.584  16.841  0.00  0.00    +0.000 C 
ATOM     27  C   UNL     1       7.467   6.557  17.949  0.00  0.00    +0.000 C 
ENDBRANCH  23  26
ENDBRANCH  16  20
ENDBRANCH   3  13
BRANCH   1  28
ATOM     28  N   UNL     1       0.941  12.474  18.427  0.00  0.00    +0.000 N 
ATOM     29  H   UNL     1       0.422  12.284  17.566  0.00  0.00    +0.000 HD
BRANCH  28  31
ATOM     30  C   UNL     1       2.542  14.288  18.237  0.00  0.00    +0.000 C 
ATOM     31  C   UNL     1       2.345  12.781  18.192  0.00  0.00    +0.000 C 
ENDBRANCH  28  31
ENDBRANCH   1  28
TORSDOF 5
ENDMDL
MODEL 3
REMARK VINA RESULT:      -8.2      2.058      3.338
REMARK  Name = 
REMARK  8 active torsions:
REMARK  status: ('A' for Active; 'I' for Inactive)
REMARK    1  A    between atoms: C_1  and  C_2
REMARK    2  A    between atoms: C_2  and  N_3
REMARK    3  A    between atoms: N_3  and  C_4
REMARK    4  A    between atoms: C_6  and  C_7
REMARK    5  A    between atoms: C_10  and  C_11
REMARK    6  A    between atoms: N_14  and  C_15
REMARK    7  A    between atoms: C_15  and  C_16
REMARK    8  A    between atoms: N_26  and  C_27
REMARK                            x       y       z     vdW  Elec       q    Type
REMARK                         _______ _______ _______ _____ _____    ______ ____
ROOT
ATOM      1  C   UNL     1      -0.048  11.593  19.362  0.00  0.00    +0.000 A 
ATOM      2  N   UNL     1       0.673  10.515  18.969  0.00  0.00    +0.000 NA
ATOM      3  C   UNL     1       0.857   9.487  19.830  0.00  0.00    +0.000 A 
ATOM      4  C   UNL     1       0.308   9.487  21.104  0.00  0.00    +0.000 A 
ATOM      5  C   UNL     1      -0.439  10.574  21.517  0.00  0.00    +0.000 A 
ATOM      6  N   UNL     1      -0.983  10.525  22.805  0.00  0.00    +0.000 NA
ATOM      7  C   UNL     1      -1.722  11.513  23.173  0.00  0.00    +0.000 A 
ATOM      8  N   UNL     1      -1.991  12.608  22.392  0.00  0.00    +0.000 N 
ATOM      9  C   UNL     1      -2.897  13.633  22.870  0.00  0.00    +0.000 C 
ATOM     10  C   UNL     1      -1.481  12.742  21.107  0.00  0.00    +0.000 A 
ATOM     11  O   UNL     1      -1.761  13.681  20.366  0.00  0.00    +0.000 OA
ATOM     12  C   UNL     1      -0.608  11.640  20.641  0.00  0.00    +0.000 A 
ENDROOT
BRANCH   3  13
ATOM     13  C   UNL     1       1.701   8.384  19.364  0.00  0.00    +0.000 A 
ATOM     14  C   UNL     1       2.368   8.470  18.134  0.00  0.00    +0.000 A 
ATOM     15  C   UNL     1       3.195   7.453  17.682  0.00  0.00    +0.000 A 
ATOM     16  C   UNL     1       3.339   6.261  18.396  0.00  0.00    +0.000 A 
ATOM     17  C   UNL     1       2.698   6.187  19.642  0.00  0.00    +0.000 A 
ATOM     18  F   UNL     1       2.864   5.108  20.421  0.00  0.00    +0.000 F 
ATOM     19  C   UNL     1       1.890   7.219  20.118  0.00  0.00    +0.000 A 
BRANCH  16  20
ATOM     20  C   UNL     1       4.170   5.097  17.873  0.00  0.00    +0.000 C 
ATOM     21  C   UNL     1       5.151   4.474  18.884  0.00  0.00    +0.000 C 
ATOM     22  C   UNL     1       6.343   5.391  19.195  0.00  0.00    +0.000 C 
ATOM     23  N   UNL     1       7.058   5.881  18.009  0.00  0.00    +0.000 NA
ATOM     24  C   UNL     1       6.169   6.371  16.945  0.00  0.00    +0.000 C 
ATOM     25  C   UNL     1       4.997   5.446  16.626  0.00  0.00    +0.000 C 
BRANCH  23  26
ATOM     26  C   UNL     1       8.015   6.928  18.431  0.00  0.00    +0.000 C 
ATOM     27  C   UNL     1       7.893   8.231  17.650  0.00  0.00    +0.000 C 
ENDBRANCH  23  26
ENDBRANCH  16  20
ENDBRANCH   3  13
BRANCH   1  28
ATOM     28  N   UNL     1      -0.104  12.696  18.494  0.00  0.00    +0.000 N 
ATOM     29  H   UNL     1      -0.605  12.442  17.640  0.00  0.00    +0.000 HD
BRANCH  28  31
ATOM     30  C   UNL     1       1.369  14.481  19.225  0.00  0.00    +0.000 C 
ATOM     31  C   UNL     1       1.175  13.344  18.235  0.00  0.00    +0.000 C 
ENDBRANCH  28  31
ENDBRANCH   1  28
TORSDOF 5
ENDMDL
MODEL 4
REMARK VINA RESULT:      -8.1      1.013      1.143
REMARK  Name = 
REMARK  8 active torsions:
REMARK  status: ('A' for Active; 'I' for Inactive)
REMARK    1  A    between atoms: C_1  and  C_2
REMARK    2  A    between atoms: C_2  and  N_3
REMARK    3  A    between atoms: N_3  and  C_4
REMARK    4  A    between atoms: C_6  and  C_7
REMARK    5  A    between atoms: C_10  and  C_11
REMARK    6  A    between atoms: N_14  and  C_15
REMARK    7  A    between atoms: C_15  and  C_16
REMARK    8  A    between atoms: N_26  and  C_27
REMARK                            x       y       z     vdW  Elec       q    Type
REMARK                         _______ _______ _______ _____ _____    ______ ____
ROOT
ATOM      1  C   UNL     1      -1.409  11.540  19.338  0.00  0.00    +0.000 A 
ATOM      2  N   UNL     1      -0.561  10.532  19.022  0.00  0.00    +0.000 NA
ATOM      3  C   UNL     1       0.233  10.003  19.982  0.00  0.00    +0.000 A 
ATOM      4  C   UNL     1       0.192  10.445  21.297  0.00  0.00    +0.000 A 
ATOM      5  C   UNL     1      -0.674  11.466  21.639  0.00  0.00    +0.000 A 
ATOM      6  N   UNL     1      -0.690  11.871  22.978  0.00  0.00    +0.000 NA
ATOM      7  C   UNL     1      -1.534  12.785  23.310  0.00  0.00    +0.000 A 
ATOM      8  N   UNL     1      -2.397  13.393  22.433  0.00  0.00    +0.000 N 
ATOM      9  C   UNL     1      -3.362  14.358  22.920  0.00  0.00    +0.000 C 
ATOM     10  C   UNL     1      -2.438  13.060  21.086  0.00  0.00    +0.000 A 
ATOM     11  O   UNL     1      -3.246  13.542  20.296  0.00  0.00    +0.000 OA
ATOM     12  C   UNL     1      -1.474  12.024  20.647  0.00  0.00    +0.000 A 
ENDROOT
BRANCH   3  13
ATOM     13  C   UNL     1       1.173   8.962  19.558  0.00  0.00    +0.000 A 
ATOM     14  C   UNL     1       1.486   7.896  20.413  0.00  0.00    +0.000 A 
ATOM     15  C   UNL     1       2.351   6.883  20.026  0.00  0.00    +0.000 A 
ATOM     16  C   UNL     1       3.010   6.920  18.795  0.00  0.00    +0.000 A 
ATOM     17  C   UNL     1       2.674   7.969  17.927  0.00  0.00    +0.000 A 
ATOM     18  F   UNL     1       3.202   8.019  16.696  0.00  0.00    +0.000 F 
ATOM     19  C   UNL     1       1.781   8.975  18.296  0.00  0.00    +0.000 A 
BRANCH  16  20
ATOM     20  C   UNL     1       4.031   5.866  18.391  0.00  0.00    +0.000 C 
ATOM     21  C   UNL     1       3.611   4.944  17.230  0.00  0.00    +0.000 C 
ATOM     22  C   UNL     1       2.509   3.951  17.632  0.00  0.00    +0.000 C 
ATOM     23  N   UNL     1       2.809   3.168  18.837  0.00  0.00    +0.000 NA
ATOM     24  C   UNL     1       3.342   3.972  19.946  0.00  0.00    +0.000 C 
ATOM     25  C   UNL     1       4.451   4.944  19.546  0.00  0.00    +0.000 C 
BRANCH  23  26
ATOM     26  C   UNL     1       1.587   2.439  19.245  0.00  0.00    +0.000 C 
ATOM     27  C   UNL     1       0.700   3.210  20.214  0.00  0.00    +0.000 C 
ENDBRANCH  23  26
ENDBRANCH  16  20
ENDBRANCH   3  13
BRANCH   1  28
ATOM     28  N   UNL     1      -2.117  12.153  18.292  0.00  0.00    +0.000 N 
ATOM     29  H   UNL     1      -2.765  12.848  18.670  0.00  0.00    +0.000 HD
BRANCH  28  31
ATOM     30  C   UNL     1      -4.163  10.933  17.822  0.00  0.00    +0.000 C 
ATOM     31  C   UNL     1      -2.748  11.235  17.352  0.00  0.00    +0.000 C 
ENDBRANCH  28  31
ENDBRANCH   1  28
TORSDOF 5
ENDMDL
MODEL 5
REMARK VINA RESULT:      -8.1      1.427      1.886
REMARK  Name = 
REMARK  8 active torsions:
REMARK  status: ('A' for Active; 'I' for Inactive)
REMARK    1  A    between atoms: C_1  and  C_2
REMARK    2  A    between atoms: C_2  and  N_3
REMARK    3  A    between atoms: N_3  and  C_4
REMARK    4  A    between atoms: C_6  and  C_7
REMARK    5  A    between atoms: C_10  and  C_11
REMARK    6  A    between atoms: N_14  and  C_15
REMARK    7  A    between atoms: C_15  and  C_16
REMARK    8  A    between atoms: N_26  and  C_27
REMARK                            x       y       z     vdW  Elec       q    Type
REMARK                         _______ _______ _______ _____ _____    ______ ____
ROOT
ATOM      1  C   UNL     1       0.649  11.728  19.008  0.00  0.00    +0.000 A 
ATOM      2  N   UNL     1       1.307  10.597  18.655  0.00  0.00    +0.000 NA
ATOM      3  C   UNL     1       1.294   9.531  19.488  0.00  0.00    +0.000 A 
ATOM      4  C   UNL     1       0.606   9.546  20.692  0.00  0.00    +0.000 A 
ATOM      5  C   UNL     1      -0.078  10.689  21.064  0.00  0.00    +0.000 A 
ATOM      6  N   UNL     1      -0.768  10.655  22.281  0.00  0.00    +0.000 NA
ATOM      7  C   UNL     1      -1.450  11.698  22.603  0.00  0.00    +0.000 A 
ATOM      8  N   UNL     1      -1.524  12.837  21.841  0.00  0.00    +0.000 N 
ATOM      9  C   UNL     1      -2.380  13.930  22.256  0.00  0.00    +0.000 C 
ATOM     10  C   UNL     1      -0.861  12.958  20.628  0.00  0.00    +0.000 A 
ATOM     11  O   UNL     1      -0.965  13.942  19.898  0.00  0.00    +0.000 OA
ATOM     12  C   UNL     1      -0.047  11.791  20.218  0.00  0.00    +0.000 A 
ENDROOT
BRANCH   3  13
ATOM     13  C   UNL     1       2.080   8.365  19.075  0.00  0.00    +0.000 A 
ATOM     14  C   UNL     1       2.127   7.218  19.881  0.00  0.00    +0.000 A 
ATOM     15  C   UNL     1       2.840   6.091  19.502  0.00  0.00    +0.000 A 
ATOM     16  C   UNL     1       3.608   6.075  18.335  0.00  0.00    +0.000 A 
ATOM     17  C   UNL     1       3.537   7.210  17.513  0.00  0.00    +0.000 A 
ATOM     18  F   UNL     1       4.178   7.229  16.336  0.00  0.00    +0.000 F 
ATOM     19  C   UNL     1       2.796   8.336  17.872  0.00  0.00    +0.000 A 
BRANCH  16  20
ATOM     20  C   UNL     1       4.470   4.881  17.948  0.00  0.00    +0.000 C 
ATOM     21  C   UNL     1       3.839   3.907  16.934  0.00  0.00    +0.000 C 
ATOM     22  C   UNL     1       2.691   3.085  17.538  0.00  0.00    +0.000 C 
ATOM     23  N   UNL     1       3.034   2.388  18.785  0.00  0.00    +0.000 NA
ATOM     24  C   UNL     1       3.759   3.228  19.749  0.00  0.00    +0.000 C 
ATOM     25  C   UNL     1       4.912   4.029  19.148  0.00  0.00    +0.000 C 
BRANCH  23  26
ATOM     26  C   UNL     1       1.794   1.841  19.378  0.00  0.00    +0.000 C 
ATOM     27  C   UNL     1       1.213   2.695  20.499  0.00  0.00    +0.000 C 
ENDBRANCH  23  26
ENDBRANCH  16  20
ENDBRANCH   3  13
BRANCH   1  28
ATOM     28  N   UNL     1       0.796  12.855  18.184  0.00  0.00    +0.000 N 
ATOM     29  H   UNL     1       0.301  12.709  17.301  0.00  0.00    +0.000 HD
BRANCH  28  31
ATOM     30  C   UNL     1       2.533  14.257  19.137  0.00  0.00    +0.000 C 
ATOM     31  C   UNL     1       2.167  13.314  18.002  0.00  0.00    +0.000 C 
ENDBRANCH  28  31
ENDBRANCH   1  28
TORSDOF 5
ENDMDL
MODEL 6
REMARK VINA RESULT:      -8.1      1.798      3.008
REMARK  Name = 
REMARK  8 active torsions:
REMARK  status: ('A' for Active; 'I' for Inactive)
REMARK    1  A    between atoms: C_1  and  C_2
REMARK    2  A    between atoms: C_2  and  N_3
REMARK    3  A    between atoms: N_3  and  C_4
REMARK    4  A    between atoms: C_6  and  C_7
REMARK    5  A    between atoms: C_10  and  C_11
REMARK    6  A    between atoms: N_14  and  C_15
REMARK    7  A    between atoms: C_15  and  C_16
REMARK    8  A    between atoms: N_26  and  C_27
REMARK                            x       y       z     vdW  Elec       q    Type
REMARK                         _______ _______ _______ _____ _____    ______ ____
ROOT
ATOM      1  C   UNL     1      -0.797  10.892  18.987  0.00  0.00    +0.000 A 
ATOM      2  N   UNL     1       0.029   9.851  18.721  0.00  0.00    +0.000 NA
ATOM      3  C   UNL     1       0.749   9.298  19.725  0.00  0.00    +0.000 A 
ATOM      4  C   UNL     1       0.654   9.748  21.033  0.00  0.00    +0.000 A 
ATOM      5  C   UNL     1      -0.191  10.803  21.324  0.00  0.00    +0.000 A 
ATOM      6  N   UNL     1      -0.264  11.215  22.659  0.00  0.00    +0.000 NA
ATOM      7  C   UNL     1      -1.089  12.162  22.942  0.00  0.00    +0.000 A 
ATOM      8  N   UNL     1      -1.880  12.797  22.017  0.00  0.00    +0.000 N 
ATOM      9  C   UNL     1      -2.833  13.801  22.448  0.00  0.00    +0.000 C 
ATOM     10  C   UNL     1      -1.860  12.458  20.671  0.00  0.00    +0.000 A 
ATOM     11  O   UNL     1      -2.606  12.967  19.837  0.00  0.00    +0.000 OA
ATOM     12  C   UNL     1      -0.914  11.385  20.289  0.00  0.00    +0.000 A 
ENDROOT
BRANCH   3  13
ATOM     13  C   UNL     1       1.670   8.220  19.355  0.00  0.00    +0.000 A 
ATOM     14  C   UNL     1       2.378   8.273  18.146  0.00  0.00    +0.000 A 
ATOM     15  C   UNL     1       3.276   7.281  17.784  0.00  0.00    +0.000 A 
ATOM     16  C   UNL     1       3.459   6.143  18.573  0.00  0.00    +0.000 A 
ATOM     17  C   UNL     1       2.777   6.104  19.798  0.00  0.00    +0.000 A 
ATOM     18  F   UNL     1       2.973   5.084  20.645  0.00  0.00    +0.000 F 
ATOM     19  C   UNL     1       1.895   7.113  20.184  0.00  0.00    +0.000 A 
BRANCH  16  20
ATOM     20  C   UNL     1       4.373   5.001  18.149  0.00  0.00    +0.000 C 
ATOM     21  C   UNL     1       5.682   4.865  18.949  0.00  0.00    +0.000 C 
ATOM     22  C   UNL     1       6.683   5.990  18.643  0.00  0.00    +0.000 C 
ATOM     23  N   UNL     1       6.963   6.179  17.213  0.00  0.00    +0.000 NA
ATOM     24  C   UNL     1       5.757   6.186  16.372  0.00  0.00    +0.000 C 
ATOM     25  C   UNL     1       4.774   5.055  16.667  0.00  0.00    +0.000 C 
BRANCH  23  26
ATOM     26  C   UNL     1       7.740   7.428  17.044  0.00  0.00    +0.000 C 
ATOM     27  C   UNL     1       8.228   8.036  18.353  0.00  0.00    +0.000 C 
ENDBRANCH  23  26
ENDBRANCH  16  20
ENDBRANCH   3  13
BRANCH   1  28
ATOM     28  N   UNL     1      -1.424  11.525  17.902  0.00  0.00    +0.000 N 
ATOM     29  H   UNL     1      -2.029  12.278  18.239  0.00  0.00    +0.000 HD
BRANCH  28  31
ATOM     30  C   UNL     1      -3.456  10.253  17.524  0.00  0.00    +0.000 C 
ATOM     31  C   UNL     1      -2.093  10.631  16.967  0.00  0.00    +0.000 C 
ENDBRANCH  28  31
ENDBRANCH   1  28
TORSDOF 5
ENDMDL
MODEL 7
REMARK VINA RESULT:      -8.0      3.440      9.082
REMARK  Name = 
REMARK  8 active torsions:
REMARK  status: ('A' for Active; 'I' for Inactive)
REMARK    1  A    between atoms: C_1  and  C_2
REMARK    2  A    between atoms: C_2  and  N_3
REMARK    3  A    between atoms: N_3  and  C_4
REMARK    4  A    between atoms: C_6  and  C_7
REMARK    5  A    between atoms: C_10  and  C_11
REMARK    6  A    between atoms: N_14  and  C_15
REMARK    7  A    between atoms: C_15  and  C_16
REMARK    8  A    between atoms: N_26  and  C_27
REMARK                            x       y       z     vdW  Elec       q    Type
REMARK                         _______ _______ _______ _____ _____    ______ ____
ROOT
ATOM      1  C   UNL     1       3.001   5.227  19.100  0.00  0.00    +0.000 A 
ATOM      2  N   UNL     1       2.214   6.238  19.543  0.00  0.00    +0.000 NA
ATOM      3  C   UNL     1       2.279   7.447  18.938  0.00  0.00    +0.000 A 
ATOM      4  C   UNL     1       3.113   7.684  17.855  0.00  0.00    +0.000 A 
ATOM      5  C   UNL     1       3.915   6.662  17.384  0.00  0.00    +0.000 A 
ATOM      6  N   UNL     1       4.731   6.943  16.283  0.00  0.00    +0.000 NA
ATOM      7  C   UNL     1       5.439   5.978  15.809  0.00  0.00    +0.000 A 
ATOM      8  N   UNL     1       5.455   4.708  16.326  0.00  0.00    +0.000 N 
ATOM      9  C   UNL     1       6.230   3.670  15.674  0.00  0.00    +0.000 C 
ATOM     10  C   UNL     1       4.686   4.347  17.424  0.00  0.00    +0.000 A 
ATOM     11  O   UNL     1       4.634   3.200  17.864  0.00  0.00    +0.000 OA
ATOM     12  C   UNL     1       3.865   5.426  18.020  0.00  0.00    +0.000 A 
ENDROOT
BRANCH   3  13
ATOM     13  C   UNL     1       1.451   8.512  19.510  0.00  0.00    +0.000 A 
ATOM     14  C   UNL     1       0.952   9.539  18.695  0.00  0.00    +0.000 A 
ATOM     15  C   UNL     1       0.144  10.544  19.205  0.00  0.00    +0.000 A 
ATOM     16  C   UNL     1      -0.147  10.622  20.568  0.00  0.00    +0.000 A 
ATOM     17  C   UNL     1       0.325   9.578  21.378  0.00  0.00    +0.000 A 
ATOM     18  F   UNL     1       0.010   9.543  22.681  0.00  0.00    +0.000 F 
ATOM     19  C   UNL     1       1.112   8.546  20.869  0.00  0.00    +0.000 A 
BRANCH  16  20
ATOM     20  C   UNL     1      -0.957  11.768  21.160  0.00  0.00    +0.000 C 
ATOM     21  C   UNL     1      -1.713  12.642  20.143  0.00  0.00    +0.000 C 
ATOM     22  C   UNL     1      -0.774  13.526  19.308  0.00  0.00    +0.000 C 
ATOM     23  N   UNL     1       0.158  14.338  20.101  0.00  0.00    +0.000 NA
ATOM     24  C   UNL     1       0.820  13.591  21.181  0.00  0.00    +0.000 C 
ATOM     25  C   UNL     1      -0.121  12.729  22.020  0.00  0.00    +0.000 C 
BRANCH  23  26
ATOM     26  C   UNL     1       1.150  14.948  19.188  0.00  0.00    +0.000 C 
ATOM     27  C   UNL     1       1.976  13.936  18.405  0.00  0.00    +0.000 C 
ENDBRANCH  23  26
ENDBRANCH  16  20
ENDBRANCH   3  13
BRANCH   1  28
ATOM     28  N   UNL     1       3.006   4.030  19.834  0.00  0.00    +0.000 N 
ATOM     29  H   UNL     1       3.598   3.338  19.369  0.00  0.00    +0.000 HD
BRANCH  28  31
ATOM     30  C   UNL     1       1.743   2.900  21.572  0.00  0.00    +0.000 C 
ATOM     31  C   UNL     1       1.689   3.513  20.181  0.00  0.00    +0.000 C 
ENDBRANCH  28  31
ENDBRANCH   1  28
TORSDOF 5
ENDMDL
MODEL 8
REMARK VINA RESULT:      -7.9      2.003      3.099
REMARK  Name = 
REMARK  8 active torsions:
REMARK  status: ('A' for Active; 'I' for Inactive)
REMARK    1  A    between atoms: C_1  and  C_2
REMARK    2  A    between atoms: C_2  and  N_3
REMARK    3  A    between atoms: N_3  and  C_4
REMARK    4  A    between atoms: C_6  and  C_7
REMARK    5  A    between atoms: C_10  and  C_11
REMARK    6  A    between atoms: N_14  and  C_15
REMARK    7  A    between atoms: C_15  and  C_16
REMARK    8  A    between atoms: N_26  and  C_27
REMARK                            x       y       z     vdW  Elec       q    Type
REMARK                         _______ _______ _______ _____ _____    ______ ____
ROOT
ATOM      1  C   UNL     1      -1.187  11.053  19.299  0.00  0.00    +0.000 A 
ATOM      2  N   UNL     1      -0.422   9.965  19.042  0.00  0.00    +0.000 NA
ATOM      3  C   UNL     1       0.826   9.891  19.560  0.00  0.00    +0.000 A 
ATOM      4  C   UNL     1       1.347  10.889  20.371  0.00  0.00    +0.000 A 
ATOM      5  C   UNL     1       0.576  12.002  20.650  0.00  0.00    +0.000 A 
ATOM      6  N   UNL     1       1.137  12.977  21.482  0.00  0.00    +0.000 NA
ATOM      7  C   UNL     1       0.402  13.989  21.787  0.00  0.00    +0.000 A 
ATOM      8  N   UNL     1      -0.880  14.175  21.335  0.00  0.00    +0.000 N 
ATOM      9  C   UNL     1      -1.652  15.311  21.797  0.00  0.00    +0.000 C 
ATOM     10  C   UNL     1      -1.507  13.263  20.497  0.00  0.00    +0.000 A 
ATOM     11  O   UNL     1      -2.675  13.375  20.132  0.00  0.00    +0.000 OA
ATOM     12  C   UNL     1      -0.698  12.088  20.100  0.00  0.00    +0.000 A 
ENDROOT
BRANCH   3  13
ATOM     13  C   UNL     1       1.623   8.719  19.189  0.00  0.00    +0.000 A 
ATOM     14  C   UNL     1       2.324   8.691  17.975  0.00  0.00    +0.000 A 
ATOM     15  C   UNL     1       3.107   7.606  17.611  0.00  0.00    +0.000 A 
ATOM     16  C   UNL     1       3.171   6.458  18.403  0.00  0.00    +0.000 A 
ATOM     17  C   UNL     1       2.495   6.496  19.632  0.00  0.00    +0.000 A 
ATOM     18  F   UNL     1       2.585   5.463  20.482  0.00  0.00    +0.000 F 
ATOM     19  C   UNL     1       1.731   7.597  20.020  0.00  0.00    +0.000 A 
BRANCH  16  20
ATOM     20  C   UNL     1       3.952   5.222  17.978  0.00  0.00    +0.000 C 
ATOM     21  C   UNL     1       4.911   4.644  19.037  0.00  0.00    +0.000 C 
ATOM     22  C   UNL     1       6.139   5.535  19.272  0.00  0.00    +0.000 C 
ATOM     23  N   UNL     1       6.870   5.895  18.050  0.00  0.00    +0.000 NA
ATOM     24  C   UNL     1       5.999   6.332  16.949  0.00  0.00    +0.000 C 
ATOM     25  C   UNL     1       4.789   5.433  16.707  0.00  0.00    +0.000 C 
BRANCH  23  26
ATOM     26  C   UNL     1       7.870   6.934  18.385  0.00  0.00    +0.000 C 
ATOM     27  C   UNL     1       7.726   8.217  17.576  0.00  0.00    +0.000 C 
ENDBRANCH  23  26
ENDBRANCH  16  20
ENDBRANCH   3  13
BRANCH   1  28
ATOM     28  N   UNL     1      -2.421  11.157  18.637  0.00  0.00    +0.000 N 
ATOM     29  H   UNL     1      -3.179  11.227  19.321  0.00  0.00    +0.000 HD
BRANCH  28  31
ATOM     30  C   UNL     1      -2.719  10.812  16.253  0.00  0.00    +0.000 C 
ATOM     31  C   UNL     1      -2.664  10.144  17.619  0.00  0.00    +0.000 C 
ENDBRANCH  28  31
ENDBRANCH   1  28
TORSDOF 5
ENDMDL
MODEL 9
REMARK VINA RESULT:      -7.9      2.031      3.075
REMARK  Name = 
REMARK  8 active torsions:
REMARK  status: ('A' for Active; 'I' for Inactive)
REMARK    1  A    between atoms: C_1  and  C_2
REMARK    2  A    between atoms: C_2  and  N_3
REMARK    3  A    between atoms: N_3  and  C_4
REMARK    4  A    between atoms: C_6  and  C_7
REMARK    5  A    between atoms: C_10  and  C_11
REMARK    6  A    between atoms: N_14  and  C_15
REMARK    7  A    between atoms: C_15  and  C_16
REMARK    8  A    between atoms: N_26  and  C_27
REMARK                            x       y       z     vdW  Elec       q    Type
REMARK                         _______ _______ _______ _____ _____    ______ ____
ROOT
ATOM      1  C   UNL     1       0.603  10.961  19.510  0.00  0.00    +0.000 A 
ATOM      2  N   UNL     1       1.140   9.727  19.350  0.00  0.00    +0.000 NA
ATOM      3  C   UNL     1       1.039   8.821  20.350  0.00  0.00    +0.000 A 
ATOM      4  C   UNL     1       0.378   9.105  21.536  0.00  0.00    +0.000 A 
ATOM      5  C   UNL     1      -0.184  10.356  21.713  0.00  0.00    +0.000 A 
ATOM      6  N   UNL     1      -0.851  10.593  22.919  0.00  0.00    +0.000 NA
ATOM      7  C   UNL     1      -1.421  11.738  23.065  0.00  0.00    +0.000 A 
ATOM      8  N   UNL     1      -1.398  12.736  22.124  0.00  0.00    +0.000 N 
ATOM      9  C   UNL     1      -2.134  13.964  22.352  0.00  0.00    +0.000 C 
ATOM     10  C   UNL     1      -0.748  12.588  20.906  0.00  0.00    +0.000 A 
ATOM     11  O   UNL     1      -0.769  13.442  20.022  0.00  0.00    +0.000 OA
ATOM     12  C   UNL     1      -0.060  11.294  20.694  0.00  0.00    +0.000 A 
ENDROOT
BRANCH   3  13
ATOM     13  C   UNL     1       1.699   7.531  20.136  0.00  0.00    +0.000 A 
ATOM     14  C   UNL     1       2.623   7.369  19.094  0.00  0.00    +0.000 A 
ATOM     15  C   UNL     1       3.282   6.167  18.886  0.00  0.00    +0.000 A 
ATOM     16  C   UNL     1       2.997   5.038  19.658  0.00  0.00    +0.000 A 
ATOM     17  C   UNL     1       2.097   5.207  20.720  0.00  0.00    +0.000 A 
ATOM     18  F   UNL     1       1.843   4.190  21.556  0.00  0.00    +0.000 F 
ATOM     19  C   UNL     1       1.453   6.422  20.956  0.00  0.00    +0.000 A 
BRANCH  16  20
ATOM     20  C   UNL     1       3.643   3.686  19.387  0.00  0.00    +0.000 C 
ATOM     21  C   UNL     1       5.173   3.705  19.204  0.00  0.00    +0.000 C 
ATOM     22  C   UNL     1       5.603   4.354  17.880  0.00  0.00    +0.000 C 
ATOM     23  N   UNL     1       4.942   3.801  16.690  0.00  0.00    +0.000 NA
ATOM     24  C   UNL     1       3.490   3.632  16.846  0.00  0.00    +0.000 C 
ATOM     25  C   UNL     1       3.069   2.969  18.156  0.00  0.00    +0.000 C 
BRANCH  23  26
ATOM     26  C   UNL     1       5.259   4.662  15.529  0.00  0.00    +0.000 C 
ATOM     27  C   UNL     1       5.276   6.152  15.848  0.00  0.00    +0.000 C 
ENDBRANCH  23  26
ENDBRANCH  16  20
ENDBRANCH   3  13
BRANCH   1  28
ATOM     28  N   UNL     1       0.844  11.916  18.510  0.00  0.00    +0.000 N 
ATOM     29  H   UNL     1       0.359  11.651  17.650  0.00  0.00    +0.000 HD
BRANCH  28  31
ATOM     30  C   UNL     1       2.619  13.439  19.160  0.00  0.00    +0.000 C 
ATOM     31  C   UNL     1       2.247  12.246  18.295  0.00  0.00    +0.000 C 
ENDBRANCH  28  31
ENDBRANCH   1  28
TORSDOF 5
ENDMDL
