MODEL 1
REMARK VINA RESULT:      -7.1      0.000      0.000
REMARK  Name = 
REMARK  7 active torsions:
REMARK  status: ('A' for Active; 'I' for Inactive)
REMARK    1  A    between atoms: C_2  and  C_4
REMARK    2  A    between atoms: C_4  and  S_5
REMARK    3  A    between atoms: S_5  and  C_6
REMARK    4  A    between atoms: C_9  and  C_10
REMARK    5  A    between atoms: C_10  and  O_11
REMARK    6  A    between atoms: O_11  and  C_12
REMARK    7  A    between atoms: N_18  and  N_19
REMARK                            x       y       z     vdW  Elec       q    Type
REMARK                         _______ _______ _______ _____ _____    ______ ____
ROOT
ATOM      1  C   UNL     1       6.142   5.602  15.924  0.00  0.00    +0.000 A 
ATOM      2  N   UNL     1       5.263   6.559  15.751  0.00  0.00    +0.000 NA
ATOM      3  N   UNL     1       4.643   6.771  16.964  0.00  0.00    +0.000 NA
ATOM      4  C   UNL     1       5.162   5.937  17.852  0.00  0.00    +0.000 A 
ATOM      5  N   UNL     1       6.135   5.184  17.235  0.00  0.00    +0.000 N 
ENDROOT
BRANCH   5   6
ATOM      6  N   UNL     1       6.948   4.153  17.814  0.00  0.00    +0.000 N 
ATOM      7  H   UNL     1       6.408   3.416  18.257  0.00  0.00    +0.000 HD
ATOM      8  H   UNL     1       7.515   3.701  17.095  0.00  0.00    +0.000 HD
ENDBRANCH   5   6
BRANCH   1   9
ATOM      9  S   UNL     1       7.120   4.861  14.703  0.00  0.00    +0.000 S 
BRANCH   9  10
ATOM     10  C   UNL     1       5.869   3.880  13.824  0.00  0.00    +0.000 C 
BRANCH  10  12
ATOM     11  N   UNL     1       5.938   2.346  11.920  0.00  0.00    +0.000 N 
ATOM     12  C   UNL     1       6.403   3.520  12.452  0.00  0.00    +0.000 C 
ATOM     13  O   UNL     1       7.208   4.203  11.830  0.00  0.00    +0.000 OA
ATOM     14  H   UNL     1       6.336   2.053  11.037  0.00  0.00    +0.000 HD
ATOM     15  H   UNL     1       5.418   1.672  12.462  0.00  0.00    +0.000 HD
ENDBRANCH  10  12
ENDBRANCH   9  10
ENDBRANCH   1   9
BRANCH   4  16
ATOM     16  C   UNL     1       4.713   5.767  19.259  0.00  0.00    +0.000 C 
BRANCH  16  17
ATOM     17  O   UNL     1       3.320   6.066  19.314  0.00  0.00    +0.000 OA
BRANCH  17  18
ATOM     18  C   UNL     1       2.478   4.983  19.337  0.00  0.00    +0.000 A 
ATOM     19  C   UNL     1       2.029   4.609  20.607  0.00  0.00    +0.000 A 
ATOM     20  C   UNL     1       1.173   3.517  20.766  0.00  0.00    +0.000 A 
ATOM     21  C   UNL     1       0.746   2.799  19.648  0.00  0.00    +0.000 A 
ATOM     22  C   UNL     1       1.169   3.184  18.377  0.00  0.00    +0.000 A 
ATOM     23  C   UNL     1       2.031   4.274  18.220  0.00  0.00    +0.000 A 
ENDBRANCH  17  18
ENDBRANCH  16  17
ENDBRANCH   4  16
TORSDOF 7
ENDMDL
MODEL 2
REMARK VINA RESULT:      -7.1      0.666      1.876
REMARK  Name = 
REMARK  7 active torsions:
REMARK  status: ('A' for Active; 'I' for Inactive)
REMARK    1  A    between atoms: C_2  and  C_4
REMARK    2  A    between atoms: C_4  and  S_5
REMARK    3  A    between atoms: S_5  and  C_6
REMARK    4  A    between atoms: C_9  and  C_10
REMARK    5  A    between atoms: C_10  and  O_11
REMARK    6  A    between atoms: O_11  and  C_12
REMARK    7  A    between atoms: N_18  and  N_19
REMARK                            x       y       z     vdW  Elec       q    Type
REMARK                         _______ _______ _______ _____ _____    ______ ____
ROOT
ATOM      1  C   UNL     1       6.973   4.852  16.190  0.00  0.00    +0.000 A 
ATOM      2  N   UNL     1       7.813   4.289  17.026  0.00  0.00    +0.000 NA
ATOM      3  N   UNL     1       7.274   4.403  18.289  0.00  0.00    +0.000 NA
ATOM      4  C   UNL     1       6.113   5.032  18.194  0.00  0.00    +0.000 A 
ATOM      5  N   UNL     1       5.873   5.322  16.871  0.00  0.00    +0.000 N 
ENDROOT
BRANCH   5   6
ATOM      6  N   UNL     1       4.741   6.003  16.311  0.00  0.00    +0.000 N 
ATOM      7  H   UNL     1       4.867   6.261  15.337  0.00  0.00    +0.000 HD
ATOM      8  H   UNL     1       3.914   5.405  16.344  0.00  0.00    +0.000 HD
ENDBRANCH   5   6
BRANCH   1   9
ATOM      9  S   UNL     1       7.204   5.091  14.491  0.00  0.00    +0.000 S 
BRANCH   9  10
ATOM     10  C   UNL     1       6.056   3.853  13.822  0.00  0.00    +0.000 C 
BRANCH  10  12
ATOM     11  N   UNL     1       5.978   2.331  11.909  0.00  0.00    +0.000 N 
ATOM     12  C   UNL     1       6.481   3.503  12.410  0.00  0.00    +0.000 C 
ATOM     13  O   UNL     1       7.232   4.193  11.731  0.00  0.00    +0.000 OA
ATOM     14  H   UNL     1       6.306   2.045  10.995  0.00  0.00    +0.000 HD
ATOM     15  H   UNL     1       5.504   1.651  12.485  0.00  0.00    +0.000 HD
ENDBRANCH  10  12
ENDBRANCH   9  10
ENDBRANCH   1   9
BRANCH   4  16
ATOM     16  C   UNL     1       5.248   5.446  19.331  0.00  0.00    +0.000 C 
BRANCH  16  17
ATOM     17  O   UNL     1       3.948   5.725  18.815  0.00  0.00    +0.000 OA
BRANCH  17  18
ATOM     18  C   UNL     1       2.946   4.891  19.242  0.00  0.00    +0.000 A 
ATOM     19  C   UNL     1       2.347   4.124  18.239  0.00  0.00    +0.000 A 
ATOM     20  C   UNL     1       1.309   3.241  18.544  0.00  0.00    +0.000 A 
ATOM     21  C   UNL     1       0.873   3.108  19.863  0.00  0.00    +0.000 A 
ATOM     22  C   UNL     1       1.484   3.851  20.870  0.00  0.00    +0.000 A 
ATOM     23  C   UNL     1       2.520   4.739  20.563  0.00  0.00    +0.000 A 
ENDBRANCH  17  18
ENDBRANCH  16  17
ENDBRANCH   4  16
TORSDOF 7
ENDMDL
MODEL 3
REMARK VINA RESULT:      -6.9      1.367      1.886
REMARK  Name = 
REMARK  7 active torsions:
REMARK  status: ('A' for Active; 'I' for Inactive)
REMARK    1  A    between atoms: C_2  and  C_4
REMARK    2  A    between atoms: C_4  and  S_5
REMARK    3  A    between atoms: S_5  and  C_6
REMARK    4  A    between atoms: C_9  and  C_10
REMARK    5  A    between atoms: C_10  and  O_11
REMARK    6  A    between atoms: O_11  and  C_12
REMARK    7  A    between atoms: N_18  and  N_19
REMARK                            x       y       z     vdW  Elec       q    Type
REMARK                         _______ _______ _______ _____ _____    ______ ____
ROOT
ATOM      1  C   UNL     1       6.926   4.705  16.120  0.00  0.00    +0.000 A 
ATOM      2  N   UNL     1       7.973   4.483  16.879  0.00  0.00    +0.000 NA
ATOM      3  N   UNL     1       7.526   4.396  18.179  0.00  0.00    +0.000 NA
ATOM      4  C   UNL     1       6.212   4.565  18.183  0.00  0.00    +0.000 A 
ATOM      5  N   UNL     1       5.786   4.749  16.888  0.00  0.00    +0.000 N 
ENDROOT
BRANCH   5   6
ATOM      6  N   UNL     1       4.446   4.977  16.427  0.00  0.00    +0.000 N 
ATOM      7  H   UNL     1       4.341   4.865  15.423  0.00  0.00    +0.000 HD
ATOM      8  H   UNL     1       3.803   4.311  16.858  0.00  0.00    +0.000 HD
ENDBRANCH   5   6
BRANCH   1   9
ATOM      9  S   UNL     1       6.929   5.010  14.415  0.00  0.00    +0.000 S 
BRANCH   9  10
ATOM     10  C   UNL     1       6.080   3.523  13.810  0.00  0.00    +0.000 C 
BRANCH  10  12
ATOM     11  N   UNL     1       5.839   2.243  11.740  0.00  0.00    +0.000 N 
ATOM     12  C   UNL     1       6.411   3.331  12.344  0.00  0.00    +0.000 C 
ATOM     13  O   UNL     1       7.148   4.075  11.706  0.00  0.00    +0.000 OA
ATOM     14  H   UNL     1       6.104   2.059  10.780  0.00  0.00    +0.000 HD
ATOM     15  H   UNL     1       5.374   1.514  12.260  0.00  0.00    +0.000 HD
ENDBRANCH  10  12
ENDBRANCH   9  10
ENDBRANCH   1   9
BRANCH   4  16
ATOM     16  C   UNL     1       5.344   4.642  19.388  0.00  0.00    +0.000 C 
BRANCH  16  17
ATOM     17  O   UNL     1       4.827   3.337  19.641  0.00  0.00    +0.000 OA
BRANCH  17  18
ATOM     18  C   UNL     1       3.477   3.266  19.870  0.00  0.00    +0.000 A 
ATOM     19  C   UNL     1       3.115   2.848  21.154  0.00  0.00    +0.000 A 
ATOM     20  C   UNL     1       1.771   2.727  21.510  0.00  0.00    +0.000 A 
ATOM     21  C   UNL     1       0.774   3.040  20.585  0.00  0.00    +0.000 A 
ATOM     22  C   UNL     1       1.128   3.482  19.312  0.00  0.00    +0.000 A 
ATOM     23  C   UNL     1       2.476   3.598  18.954  0.00  0.00    +0.000 A 
ENDBRANCH  17  18
ENDBRANCH  16  17
ENDBRANCH   4  16
TORSDOF 7
ENDMDL
MODEL 4
REMARK VINA RESULT:      -6.9      0.858      1.324
REMARK  Name = 
REMARK  7 active torsions:
REMARK  status: ('A' for Active; 'I' for Inactive)
REMARK    1  A    between atoms: C_2  and  C_4
REMARK    2  A    between atoms: C_4  and  S_5
REMARK    3  A    between atoms: S_5  and  C_6
REMARK    4  A    between atoms: C_9  and  C_10
REMARK    5  A    between atoms: C_10  and  O_11
REMARK    6  A    between atoms: O_11  and  C_12
REMARK    7  A    between atoms: N_18  and  N_19
REMARK                            x       y       z     vdW  Elec       q    Type
REMARK                         _______ _______ _______ _____ _____    ______ ____
ROOT
ATOM      1  C   UNL     1       6.116   5.639  15.926  0.00  0.00    +0.000 A 
ATOM      2  N   UNL     1       5.185   6.557  15.816  0.00  0.00    +0.000 NA
ATOM      3  N   UNL     1       4.605   6.704  17.057  0.00  0.00    +0.000 NA
ATOM      4  C   UNL     1       5.199   5.871  17.899  0.00  0.00    +0.000 A 
ATOM      5  N   UNL     1       6.181   5.184  17.223  0.00  0.00    +0.000 N 
ENDROOT
BRANCH   5   6
ATOM      6  N   UNL     1       7.065   4.179  17.739  0.00  0.00    +0.000 N 
ATOM      7  H   UNL     1       8.043   4.363  17.541  0.00  0.00    +0.000 HD
ATOM      8  H   UNL     1       6.983   4.120  18.754  0.00  0.00    +0.000 HD
ENDBRANCH   5   6
BRANCH   1   9
ATOM      9  S   UNL     1       7.080   4.982  14.646  0.00  0.00    +0.000 S 
BRANCH   9  10
ATOM     10  C   UNL     1       5.949   3.720  13.994  0.00  0.00    +0.000 C 
BRANCH  10  12
ATOM     11  N   UNL     1       5.091   3.091  11.792  0.00  0.00    +0.000 N 
ATOM     12  C   UNL     1       6.142   3.616  12.494  0.00  0.00    +0.000 C 
ATOM     13  O   UNL     1       7.164   3.961  11.911  0.00  0.00    +0.000 OA
ATOM     14  H   UNL     1       5.227   2.948  10.799  0.00  0.00    +0.000 HD
ATOM     15  H   UNL     1       4.309   2.636  12.240  0.00  0.00    +0.000 HD
ENDBRANCH  10  12
ENDBRANCH   9  10
ENDBRANCH   1   9
BRANCH   4  16
ATOM     16  C   UNL     1       4.814   5.639  19.316  0.00  0.00    +0.000 C 
BRANCH  16  17
ATOM     17  O   UNL     1       4.629   4.237  19.497  0.00  0.00    +0.000 OA
BRANCH  17  18
ATOM     18  C   UNL     1       3.329   3.800  19.478  0.00  0.00    +0.000 A 
ATOM     19  C   UNL     1       3.045   2.827  18.514  0.00  0.00    +0.000 A 
ATOM     20  C   UNL     1       1.756   2.306  18.388  0.00  0.00    +0.000 A 
ATOM     21  C   UNL     1       0.741   2.746  19.239  0.00  0.00    +0.000 A 
ATOM     22  C   UNL     1       1.024   3.696  20.218  0.00  0.00    +0.000 A 
ATOM     23  C   UNL     1       2.314   4.221  20.340  0.00  0.00    +0.000 A 
ENDBRANCH  17  18
ENDBRANCH  16  17
ENDBRANCH   4  16
TORSDOF 7
ENDMDL
MODEL 5
REMARK VINA RESULT:      -6.9      2.964      6.502
REMARK  Name = 
REMARK  7 active torsions:
REMARK  status: ('A' for Active; 'I' for Inactive)
REMARK    1  A    between atoms: C_2  and  C_4
REMARK    2  A    between atoms: C_4  and  S_5
REMARK    3  A    between atoms: S_5  and  C_6
REMARK    4  A    between atoms: C_9  and  C_10
REMARK    5  A    between atoms: C_10  and  O_11
REMARK    6  A    between atoms: O_11  and  C_12
REMARK    7  A    between atoms: N_18  and  N_19
REMARK                            x       y       z     vdW  Elec       q    Type
REMARK                         _______ _______ _______ _____ _____    ______ ____
ROOT
ATOM      1  C   UNL     1       4.942   4.653  19.127  0.00  0.00    +0.000 A 
ATOM      2  N   UNL     1       6.033   4.868  19.823  0.00  0.00    +0.000 NA
ATOM      3  N   UNL     1       7.083   4.930  18.933  0.00  0.00    +0.000 NA
ATOM      4  C   UNL     1       6.606   4.753  17.710  0.00  0.00    +0.000 A 
ATOM      5  N   UNL     1       5.242   4.589  17.786  0.00  0.00    +0.000 N 
ENDROOT
BRANCH   5   6
ATOM      6  N   UNL     1       4.322   4.361  16.709  0.00  0.00    +0.000 N 
ATOM      7  H   UNL     1       3.612   5.082  16.626  0.00  0.00    +0.000 HD
ATOM      8  H   UNL     1       4.817   4.343  15.816  0.00  0.00    +0.000 HD
ENDBRANCH   5   6
BRANCH   1   9
ATOM      9  S   UNL     1       3.352   4.378  19.753  0.00  0.00    +0.000 S 
BRANCH   9  10
ATOM     10  C   UNL     1       3.429   2.593  20.084  0.00  0.00    +0.000 C 
BRANCH  10  12
ATOM     11  N   UNL     1       4.219   0.842  18.571  0.00  0.00    +0.000 N 
ATOM     12  C   UNL     1       3.308   1.845  18.772  0.00  0.00    +0.000 C 
ATOM     13  O   UNL     1       2.469   2.098  17.915  0.00  0.00    +0.000 OA
ATOM     14  H   UNL     1       4.199   0.377  17.671  0.00  0.00    +0.000 HD
ATOM     15  H   UNL     1       5.028   0.715  19.161  0.00  0.00    +0.000 HD
ENDBRANCH  10  12
ENDBRANCH   9  10
ENDBRANCH   1   9
BRANCH   4  16
ATOM     16  C   UNL     1       7.412   4.650  16.464  0.00  0.00    +0.000 C 
BRANCH  16  17
ATOM     17  O   UNL     1       6.757   5.414  15.453  0.00  0.00    +0.000 OA
BRANCH  17  18
ATOM     18  C   UNL     1       6.732   4.850  14.203  0.00  0.00    +0.000 A 
ATOM     19  C   UNL     1       7.686   5.348  13.310  0.00  0.00    +0.000 A 
ATOM     20  C   UNL     1       7.758   4.861  12.003  0.00  0.00    +0.000 A 
ATOM     21  C   UNL     1       6.884   3.857  11.584  0.00  0.00    +0.000 A 
ATOM     22  C   UNL     1       5.949   3.339  12.478  0.00  0.00    +0.000 A 
ATOM     23  C   UNL     1       5.874   3.831  13.786  0.00  0.00    +0.000 A 
ENDBRANCH  17  18
ENDBRANCH  16  17
ENDBRANCH   4  16
TORSDOF 7
ENDMDL
MODEL 6
REMARK VINA RESULT:      -6.8      2.998      3.972
REMARK  Name = 
REMARK  7 active torsions:
REMARK  status: ('A' for Active; 'I' for Inactive)
REMARK    1  A    between atoms: C_2  and  C_4
REMARK    2  A    between atoms: C_4  and  S_5
REMARK    3  A    between atoms: S_5  and  C_6
REMARK    4  A    between atoms: C_9  and  C_10
REMARK    5  A    between atoms: C_10  and  O_11
REMARK    6  A    between atoms: O_11  and  C_12
REMARK    7  A    between atoms: N_18  and  N_19
REMARK                            x       y       z     vdW  Elec       q    Type
REMARK                         _______ _______ _______ _____ _____    ______ ____
ROOT
ATOM      1  C   UNL     1       5.395   5.817  17.027  0.00  0.00    +0.000 A 
ATOM      2  N   UNL     1       4.437   6.528  17.571  0.00  0.00    +0.000 NA
ATOM      3  N   UNL     1       3.320   5.724  17.643  0.00  0.00    +0.000 NA
ATOM      4  C   UNL     1       3.625   4.537  17.143  0.00  0.00    +0.000 A 
ATOM      5  N   UNL     1       4.944   4.546  16.753  0.00  0.00    +0.000 N 
ENDROOT
BRANCH   5   6
ATOM      6  N   UNL     1       5.692   3.479  16.152  0.00  0.00    +0.000 N 
ATOM      7  H   UNL     1       5.124   2.863  15.578  0.00  0.00    +0.000 HD
ATOM      8  H   UNL     1       6.418   3.854  15.540  0.00  0.00    +0.000 HD
ENDBRANCH   5   6
BRANCH   1   9
ATOM      9  S   UNL     1       6.979   6.369  16.598  0.00  0.00    +0.000 S 
BRANCH   9  10
ATOM     10  C   UNL     1       7.650   6.762  18.239  0.00  0.00    +0.000 C 
BRANCH  10  12
ATOM     11  N   UNL     1       8.119   4.363  18.336  0.00  0.00    +0.000 N 
ATOM     12  C   UNL     1       7.761   5.481  19.043  0.00  0.00    +0.000 C 
ATOM     13  O   UNL     1       7.543   5.407  20.246  0.00  0.00    +0.000 OA
ATOM     14  H   UNL     1       8.129   3.485  18.841  0.00  0.00    +0.000 HD
ATOM     15  H   UNL     1       8.136   4.339  17.327  0.00  0.00    +0.000 HD
ENDBRANCH  10  12
ENDBRANCH   9  10
ENDBRANCH   1   9
BRANCH   4  16
ATOM     16  C   UNL     1       2.682   3.405  16.942  0.00  0.00    +0.000 C 
BRANCH  16  17
ATOM     17  O   UNL     1       3.040   2.368  17.853  0.00  0.00    +0.000 OA
BRANCH  17  18
ATOM     18  C   UNL     1       2.609   2.535  19.145  0.00  0.00    +0.000 A 
ATOM     19  C   UNL     1       1.245   2.809  19.284  0.00  0.00    +0.000 A 
ATOM     20  C   UNL     1       0.685   3.008  20.547  0.00  0.00    +0.000 A 
ATOM     21  C   UNL     1       1.486   2.917  21.686  0.00  0.00    +0.000 A 
ATOM     22  C   UNL     1       2.841   2.619  21.555  0.00  0.00    +0.000 A 
ATOM     23  C   UNL     1       3.403   2.425  20.289  0.00  0.00    +0.000 A 
ENDBRANCH  17  18
ENDBRANCH  16  17
ENDBRANCH   4  16
TORSDOF 7
ENDMDL
MODEL 7
REMARK VINA RESULT:      -6.7      0.744      1.331
REMARK  Name = 
REMARK  7 active torsions:
REMARK  status: ('A' for Active; 'I' for Inactive)
REMARK    1  A    between atoms: C_2  and  C_4
REMARK    2  A    between atoms: C_4  and  S_5
REMARK    3  A    between atoms: S_5  and  C_6
REMARK    4  A    between atoms: C_9  and  C_10
REMARK    5  A    between atoms: C_10  and  O_11
REMARK    6  A    between atoms: O_11  and  C_12
REMARK    7  A    between atoms: N_18  and  N_19
REMARK                            x       y       z     vdW  Elec       q    Type
REMARK                         _______ _______ _______ _____ _____    ______ ____
ROOT
ATOM      1  C   UNL     1       6.152   5.659  15.868  0.00  0.00    +0.000 A 
ATOM      2  N   UNL     1       5.266   6.620  15.765  0.00  0.00    +0.000 NA
ATOM      3  N   UNL     1       4.685   6.777  17.004  0.00  0.00    +0.000 NA
ATOM      4  C   UNL     1       5.234   5.907  17.838  0.00  0.00    +0.000 A 
ATOM      5  N   UNL     1       6.187   5.184  17.159  0.00  0.00    +0.000 N 
ENDROOT
BRANCH   5   6
ATOM      6  N   UNL     1       7.020   4.131  17.666  0.00  0.00    +0.000 N 
ATOM      7  H   UNL     1       7.711   4.452  18.337  0.00  0.00    +0.000 HD
ATOM      8  H   UNL     1       6.455   3.431  18.148  0.00  0.00    +0.000 HD
ENDBRANCH   5   6
BRANCH   1   9
ATOM      9  S   UNL     1       7.093   4.975  14.585  0.00  0.00    +0.000 S 
BRANCH   9  10
ATOM     10  C   UNL     1       5.988   3.641  14.037  0.00  0.00    +0.000 C 
BRANCH  10  12
ATOM     11  N   UNL     1       7.174   4.028  11.934  0.00  0.00    +0.000 N 
ATOM     12  C   UNL     1       6.031   3.559  12.525  0.00  0.00    +0.000 C 
ATOM     13  O   UNL     1       5.118   3.115  11.837  0.00  0.00    +0.000 OA
ATOM     14  H   UNL     1       7.194   4.047  10.922  0.00  0.00    +0.000 HD
ATOM     15  H   UNL     1       7.870   4.558  12.439  0.00  0.00    +0.000 HD
ENDBRANCH  10  12
ENDBRANCH   9  10
ENDBRANCH   1   9
BRANCH   4  16
ATOM     16  C   UNL     1       4.829   5.673  19.250  0.00  0.00    +0.000 C 
BRANCH  16  17
ATOM     17  O   UNL     1       3.459   6.046  19.382  0.00  0.00    +0.000 OA
BRANCH  17  18
ATOM     18  C   UNL     1       2.575   5.012  19.562  0.00  0.00    +0.000 A 
ATOM     19  C   UNL     1       2.125   4.407  18.384  0.00  0.00    +0.000 A 
ATOM     20  C   UNL     1       1.217   3.348  18.432  0.00  0.00    +0.000 A 
ATOM     21  C   UNL     1       0.763   2.874  19.664  0.00  0.00    +0.000 A 
ATOM     22  C   UNL     1       1.229   3.456  20.841  0.00  0.00    +0.000 A 
ATOM     23  C   UNL     1       2.135   4.521  20.792  0.00  0.00    +0.000 A 
ENDBRANCH  17  18
ENDBRANCH  16  17
ENDBRANCH   4  16
TORSDOF 7
ENDMDL
MODEL 8
REMARK VINA RESULT:      -6.7      1.010      1.696
REMARK  Name = 
REMARK  7 active torsions:
REMARK  status: ('A' for Active; 'I' for Inactive)
REMARK    1  A    between atoms: C_2  and  C_4
REMARK    2  A    between atoms: C_4  and  S_5
REMARK    3  A    between atoms: S_5  and  C_6
REMARK    4  A    between atoms: C_9  and  C_10
REMARK    5  A    between atoms: C_10  and  O_11
REMARK    6  A    between atoms: O_11  and  C_12
REMARK    7  A    between atoms: N_18  and  N_19
REMARK                            x       y       z     vdW  Elec       q    Type
REMARK                         _______ _______ _______ _____ _____    ______ ____
ROOT
ATOM      1  C   UNL     1       6.949   4.808  16.155  0.00  0.00    +0.000 A 
ATOM      2  N   UNL     1       7.802   4.273  16.995  0.00  0.00    +0.000 NA
ATOM      3  N   UNL     1       7.276   4.415  18.261  0.00  0.00    +0.000 NA
ATOM      4  C   UNL     1       6.109   5.034  18.163  0.00  0.00    +0.000 A 
ATOM      5  N   UNL     1       5.853   5.288  16.835  0.00  0.00    +0.000 N 
ENDROOT
BRANCH   5   6
ATOM      6  N   UNL     1       4.711   5.947  16.270  0.00  0.00    +0.000 N 
ATOM      7  H   UNL     1       4.954   6.680  15.610  0.00  0.00    +0.000 HD
ATOM      8  H   UNL     1       4.132   5.280  15.758  0.00  0.00    +0.000 HD
ENDBRANCH   5   6
BRANCH   1   9
ATOM      9  S   UNL     1       7.161   5.005  14.448  0.00  0.00    +0.000 S 
BRANCH   9  10
ATOM     10  C   UNL     1       5.922   3.833  13.822  0.00  0.00    +0.000 C 
BRANCH  10  12
ATOM     11  N   UNL     1       7.241   4.225  11.800  0.00  0.00    +0.000 N 
ATOM     12  C   UNL     1       6.282   3.452  12.400  0.00  0.00    +0.000 C 
ATOM     13  O   UNL     1       5.764   2.525  11.788  0.00  0.00    +0.000 OA
ATOM     14  H   UNL     1       7.444   4.031  10.828  0.00  0.00    +0.000 HD
ATOM     15  H   UNL     1       7.565   5.095  12.196  0.00  0.00    +0.000 HD
ENDBRANCH  10  12
ENDBRANCH   9  10
ENDBRANCH   1   9
BRANCH   4  16
ATOM     16  C   UNL     1       5.254   5.472  19.298  0.00  0.00    +0.000 C 
BRANCH  16  17
ATOM     17  O   UNL     1       3.963   5.785  18.779  0.00  0.00    +0.000 OA
BRANCH  17  18
ATOM     18  C   UNL     1       2.968   4.888  19.074  0.00  0.00    +0.000 A 
ATOM     19  C   UNL     1       2.430   5.002  20.360  0.00  0.00    +0.000 A 
ATOM     20  C   UNL     1       1.416   4.142  20.785  0.00  0.00    +0.000 A 
ATOM     21  C   UNL     1       0.920   3.167  19.918  0.00  0.00    +0.000 A 
ATOM     22  C   UNL     1       1.435   3.066  18.627  0.00  0.00    +0.000 A 
ATOM     23  C   UNL     1       2.455   3.925  18.204  0.00  0.00    +0.000 A 
ENDBRANCH  17  18
ENDBRANCH  16  17
ENDBRANCH   4  16
TORSDOF 7
ENDMDL
MODEL 9
REMARK VINA RESULT:      -6.7      3.936      6.129
REMARK  Name = 
REMARK  7 active torsions:
REMARK  status: ('A' for Active; 'I' for Inactive)
REMARK    1  A    between atoms: C_2  and  C_4
REMARK    2  A    between atoms: C_4  and  S_5
REMARK    3  A    between atoms: S_5  and  C_6
REMARK    4  A    between atoms: C_9  and  C_10
REMARK    5  A    between atoms: C_10  and  O_11
REMARK    6  A    between atoms: O_11  and  C_12
REMARK    7  A    between atoms: N_18  and  N_19
REMARK                            x       y       z     vdW  Elec       q    Type
REMARK                         _______ _______ _______ _____ _____    ______ ____
ROOT
ATOM      1  C   UNL     1       1.778   4.874  19.796  0.00  0.00    +0.000 A 
ATOM      2  N   UNL     1       1.754   5.930  20.574  0.00  0.00    +0.000 NA
ATOM      3  N   UNL     1       2.299   6.977  19.864  0.00  0.00    +0.000 NA
ATOM      4  C   UNL     1       2.643   6.535  18.664  0.00  0.00    +0.000 A 
ATOM      5  N   UNL     1       2.313   5.203  18.571  0.00  0.00    +0.000 N 
ENDROOT
BRANCH   5   6
ATOM      6  N   UNL     1       2.513   4.322  17.456  0.00  0.00    +0.000 N 
ATOM      7  H   UNL     1       3.022   3.477  17.696  0.00  0.00    +0.000 HD
ATOM      8  H   UNL     1       1.616   4.019  17.077  0.00  0.00    +0.000 HD
ENDBRANCH   5   6
BRANCH   1   9
ATOM      9  S   UNL     1       1.319   3.260  20.223  0.00  0.00    +0.000 S 
BRANCH   9  10
ATOM     10  C   UNL     1       2.872   2.652  20.943  0.00  0.00    +0.000 C 
BRANCH  10  12
ATOM     11  N   UNL     1       5.084   1.977  20.150  0.00  0.00    +0.000 N 
ATOM     12  C   UNL     1       3.764   2.147  19.827  0.00  0.00    +0.000 C 
ATOM     13  O   UNL     1       3.370   1.904  18.693  0.00  0.00    +0.000 OA
ATOM     14  H   UNL     1       5.710   1.708  19.401  0.00  0.00    +0.000 HD
ATOM     15  H   UNL     1       5.484   2.327  21.008  0.00  0.00    +0.000 HD
ENDBRANCH  10  12
ENDBRANCH   9  10
ENDBRANCH   1   9
BRANCH   4  16
ATOM     16  C   UNL     1       3.355   7.314  17.616  0.00  0.00    +0.000 C 
BRANCH  16  17
ATOM     17  O   UNL     1       4.318   6.456  17.009  0.00  0.00    +0.000 OA
BRANCH  17  18
ATOM     18  C   UNL     1       5.533   6.382  17.642  0.00  0.00    +0.000 A 
ATOM     19  C   UNL     1       6.465   7.348  17.250  0.00  0.00    +0.000 A 
ATOM     20  C   UNL     1       7.741   7.375  17.814  0.00  0.00    +0.000 A 
ATOM     21  C   UNL     1       8.090   6.441  18.792  0.00  0.00    +0.000 A 
ATOM     22  C   UNL     1       7.157   5.493  19.205  0.00  0.00    +0.000 A 
ATOM     23  C   UNL     1       5.880   5.464  18.635  0.00  0.00    +0.000 A 
ENDBRANCH  17  18
ENDBRANCH  16  17
ENDBRANCH   4  16
TORSDOF 7
ENDMDL
