MODEL 1
REMARK VINA RESULT:      -6.5      0.000      0.000
REMARK  Name = 
REMARK  3 active torsions:
REMARK  status: ('A' for Active; 'I' for Inactive)
REMARK    1  A    between atoms: C_4  and  N_5
REMARK    2  A    between atoms: N_8  and  C_9
REMARK    3  A    between atoms: C_9  and  C_10
REMARK                            x       y       z     vdW  Elec       q    Type
REMARK                         _______ _______ _______ _____ _____    ______ ____
ROOT
ATOM      1  N   UNL     1       5.380   3.406  16.840  0.00  0.00    +0.000 N 
ATOM      2  C   UNL     1       4.095   3.220  17.290  0.00  0.00    +0.000 C 
ATOM      3  O   UNL     1       3.215   4.059  17.187  0.00  0.00    +0.000 OA
ATOM      4  N   UNL     1       3.931   1.991  17.867  0.00  0.00    +0.000 N 
ATOM      5  H   UNL     1       6.086   2.814  17.256  0.00  0.00    +0.000 HD
ATOM      6  H   UNL     1       4.544   1.260  17.541  0.00  0.00    +0.000 HD
ENDROOT
BRANCH   1  10
ATOM      7  O   UNL     1       7.679   7.608  17.140  0.00  0.00    +0.000 OA
ATOM      8  C   UNL     1       7.230   6.556  16.728  0.00  0.00    +0.000 C 
ATOM      9  C   UNL     1       6.230   5.677  17.433  0.00  0.00    +0.000 C 
ATOM     10  C   UNL     1       5.786   4.710  16.334  0.00  0.00    +0.000 C 
ATOM     11  C   UNL     1       7.002   4.651  15.405  0.00  0.00    +0.000 C 
ATOM     12  N   UNL     1       7.609   5.938  15.557  0.00  0.00    +0.000 N 
ATOM     13  H   UNL     1       8.350   6.317  14.980  0.00  0.00    +0.000 HD
ENDBRANCH   1  10
BRANCH   4  14
ATOM     14  C   UNL     1       2.613   1.568  18.290  0.00  0.00    +0.000 C 
BRANCH  14  15
ATOM     15  C   UNL     1       2.196   2.377  19.478  0.00  0.00    +0.000 A 
ATOM     16  C   UNL     1       1.003   3.048  19.679  0.00  0.00    +0.000 A 
ATOM     17  C   UNL     1       0.944   3.685  20.952  0.00  0.00    +0.000 A 
ATOM     18  C   UNL     1       2.093   3.485  21.681  0.00  0.00    +0.000 A 
ATOM     19  S   UNL     1       3.235   2.536  20.832  0.00  0.00    +0.000 S 
ENDBRANCH  14  15
ENDBRANCH   4  14
TORSDOF 3
ENDMDL
MODEL 2
REMARK VINA RESULT:      -6.4      3.173      6.949
REMARK  Name = 
REMARK  3 active torsions:
REMARK  status: ('A' for Active; 'I' for Inactive)
REMARK    1  A    between atoms: C_4  and  N_5
REMARK    2  A    between atoms: N_8  and  C_9
REMARK    3  A    between atoms: C_9  and  C_10
REMARK                            x       y       z     vdW  Elec       q    Type
REMARK                         _______ _______ _______ _____ _____    ______ ____
ROOT
ATOM      1  N   UNL     1       4.727   3.345  18.015  0.00  0.00    +0.000 N 
ATOM      2  C   UNL     1       5.145   4.333  17.157  0.00  0.00    +0.000 C 
ATOM      3  O   UNL     1       4.542   5.382  16.992  0.00  0.00    +0.000 OA
ATOM      4  N   UNL     1       6.303   3.995  16.515  0.00  0.00    +0.000 N 
ATOM      5  H   UNL     1       5.093   2.419  17.837  0.00  0.00    +0.000 HD
ATOM      6  H   UNL     1       6.910   3.352  17.000  0.00  0.00    +0.000 HD
ENDROOT
BRANCH   1  10
ATOM      7  O   UNL     1       0.168   2.058  18.786  0.00  0.00    +0.000 OA
ATOM      8  C   UNL     1       1.323   2.401  18.952  0.00  0.00    +0.000 C 
ATOM      9  C   UNL     1       2.289   2.828  17.878  0.00  0.00    +0.000 C 
ATOM     10  C   UNL     1       3.433   3.459  18.674  0.00  0.00    +0.000 C 
ATOM     11  C   UNL     1       3.368   2.730  20.019  0.00  0.00    +0.000 C 
ATOM     12  N   UNL     1       1.984   2.399  20.161  0.00  0.00    +0.000 N 
ATOM     13  H   UNL     1       1.539   2.047  21.000  0.00  0.00    +0.000 HD
ENDBRANCH   1  10
BRANCH   4  14
ATOM     14  C   UNL     1       6.960   4.963  15.663  0.00  0.00    +0.000 C 
BRANCH  14  15
ATOM     15  C   UNL     1       6.848   4.518  14.239  0.00  0.00    +0.000 A 
ATOM     16  C   UNL     1       5.946   3.622  13.692  0.00  0.00    +0.000 A 
ATOM     17  C   UNL     1       6.116   3.469  12.285  0.00  0.00    +0.000 A 
ATOM     18  C   UNL     1       7.142   4.249  11.803  0.00  0.00    +0.000 A 
ATOM     19  S   UNL     1       7.895   5.156  13.042  0.00  0.00    +0.000 S 
ENDBRANCH  14  15
ENDBRANCH   4  14
TORSDOF 3
ENDMDL
MODEL 3
REMARK VINA RESULT:      -6.4      2.026      2.429
REMARK  Name = 
REMARK  3 active torsions:
REMARK  status: ('A' for Active; 'I' for Inactive)
REMARK    1  A    between atoms: C_4  and  N_5
REMARK    2  A    between atoms: N_8  and  C_9
REMARK    3  A    between atoms: C_9  and  C_10
REMARK                            x       y       z     vdW  Elec       q    Type
REMARK                         _______ _______ _______ _____ _____    ______ ____
ROOT
ATOM      1  N   UNL     1       5.689   3.592  16.308  0.00  0.00    +0.000 N 
ATOM      2  C   UNL     1       5.231   4.169  17.468  0.00  0.00    +0.000 C 
ATOM      3  O   UNL     1       4.904   5.342  17.554  0.00  0.00    +0.000 OA
ATOM      4  N   UNL     1       5.192   3.276  18.502  0.00  0.00    +0.000 N 
ATOM      5  H   UNL     1       6.228   2.743  16.419  0.00  0.00    +0.000 HD
ATOM      6  H   UNL     1       5.074   2.307  18.249  0.00  0.00    +0.000 HD
ENDROOT
BRANCH   1  10
ATOM      7  O   UNL     1       8.540   5.859  13.184  0.00  0.00    +0.000 OA
ATOM      8  C   UNL     1       7.643   5.198  13.671  0.00  0.00    +0.000 C 
ATOM      9  C   UNL     1       7.333   5.061  15.139  0.00  0.00    +0.000 C 
ATOM     10  C   UNL     1       5.943   4.422  15.139  0.00  0.00    +0.000 C 
ATOM     11  C   UNL     1       5.914   3.642  13.821  0.00  0.00    +0.000 C 
ATOM     12  N   UNL     1       6.778   4.393  12.962  0.00  0.00    +0.000 N 
ATOM     13  H   UNL     1       6.881   4.264  11.963  0.00  0.00    +0.000 HD
ENDBRANCH   1  10
BRANCH   4  14
ATOM     14  C   UNL     1       4.621   3.672  19.771  0.00  0.00    +0.000 C 
BRANCH  14  15
ATOM     15  C   UNL     1       3.143   3.444  19.736  0.00  0.00    +0.000 A 
ATOM     16  C   UNL     1       2.151   4.169  20.373  0.00  0.00    +0.000 A 
ATOM     17  C   UNL     1       0.845   3.681  20.078  0.00  0.00    +0.000 A 
ATOM     18  C   UNL     1       0.880   2.599  19.228  0.00  0.00    +0.000 A 
ATOM     19  S   UNL     1       2.479   2.176  18.794  0.00  0.00    +0.000 S 
ENDBRANCH  14  15
ENDBRANCH   4  14
TORSDOF 3
ENDMDL
MODEL 4
REMARK VINA RESULT:      -6.3      1.741      2.085
REMARK  Name = 
REMARK  3 active torsions:
REMARK  status: ('A' for Active; 'I' for Inactive)
REMARK    1  A    between atoms: C_4  and  N_5
REMARK    2  A    between atoms: N_8  and  C_9
REMARK    3  A    between atoms: C_9  and  C_10
REMARK                            x       y       z     vdW  Elec       q    Type
REMARK                         _______ _______ _______ _____ _____    ______ ____
ROOT
ATOM      1  N   UNL     1       6.643   3.967  17.835  0.00  0.00    +0.000 N 
ATOM      2  C   UNL     1       5.310   4.217  17.612  0.00  0.00    +0.000 C 
ATOM      3  O   UNL     1       4.872   5.314  17.302  0.00  0.00    +0.000 OA
ATOM      4  N   UNL     1       4.545   3.097  17.786  0.00  0.00    +0.000 N 
ATOM      5  H   UNL     1       6.853   3.149  18.390  0.00  0.00    +0.000 HD
ATOM      6  H   UNL     1       5.006   2.215  17.626  0.00  0.00    +0.000 HD
ENDROOT
BRANCH   1  10
ATOM      7  O   UNL     1       7.888   8.572  17.305  0.00  0.00    +0.000 OA
ATOM      8  C   UNL     1       7.785   7.437  17.731  0.00  0.00    +0.000 C 
ATOM      9  C   UNL     1       7.131   6.278  17.025  0.00  0.00    +0.000 C 
ATOM     10  C   UNL     1       7.593   5.071  17.845  0.00  0.00    +0.000 C 
ATOM     11  C   UNL     1       7.826   5.661  19.239  0.00  0.00    +0.000 C 
ATOM     12  N   UNL     1       8.196   7.018  18.977  0.00  0.00    +0.000 N 
ATOM     13  H   UNL     1       8.574   7.672  19.651  0.00  0.00    +0.000 HD
ENDBRANCH   1  10
BRANCH   4  14
ATOM     14  C   UNL     1       3.132   3.139  17.477  0.00  0.00    +0.000 C 
BRANCH  14  15
ATOM     15  C   UNL     1       2.357   3.288  18.748  0.00  0.00    +0.000 A 
ATOM     16  C   UNL     1       1.901   2.291  19.592  0.00  0.00    +0.000 A 
ATOM     17  C   UNL     1       1.227   2.812  20.735  0.00  0.00    +0.000 A 
ATOM     18  C   UNL     1       1.186   4.187  20.727  0.00  0.00    +0.000 A 
ATOM     19  S   UNL     1       1.954   4.843  19.346  0.00  0.00    +0.000 S 
ENDBRANCH  14  15
ENDBRANCH   4  14
TORSDOF 3
ENDMDL
MODEL 5
REMARK VINA RESULT:      -6.3      1.659      1.961
REMARK  Name = 
REMARK  3 active torsions:
REMARK  status: ('A' for Active; 'I' for Inactive)
REMARK    1  A    between atoms: C_4  and  N_5
REMARK    2  A    between atoms: N_8  and  C_9
REMARK    3  A    between atoms: C_9  and  C_10
REMARK                            x       y       z     vdW  Elec       q    Type
REMARK                         _______ _______ _______ _____ _____    ______ ____
ROOT
ATOM      1  N   UNL     1       5.957   4.053  18.228  0.00  0.00    +0.000 N 
ATOM      2  C   UNL     1       5.061   3.869  19.253  0.00  0.00    +0.000 C 
ATOM      3  O   UNL     1       4.341   4.754  19.686  0.00  0.00    +0.000 OA
ATOM      4  N   UNL     1       5.083   2.586  19.725  0.00  0.00    +0.000 N 
ATOM      5  H   UNL     1       6.711   3.382  18.172  0.00  0.00    +0.000 HD
ATOM      6  H   UNL     1       5.371   1.876  19.070  0.00  0.00    +0.000 HD
ENDROOT
BRANCH   1  10
ATOM      7  O   UNL     1       8.293   8.239  17.987  0.00  0.00    +0.000 OA
ATOM      8  C   UNL     1       7.710   7.214  17.688  0.00  0.00    +0.000 C 
ATOM      9  C   UNL     1       7.001   6.283  18.637  0.00  0.00    +0.000 C 
ATOM     10  C   UNL     1       6.186   5.391  17.699  0.00  0.00    +0.000 C 
ATOM     11  C   UNL     1       7.003   5.402  16.404  0.00  0.00    +0.000 C 
ATOM     12  N   UNL     1       7.648   6.679  16.420  0.00  0.00    +0.000 N 
ATOM     13  H   UNL     1       8.150   7.101  15.648  0.00  0.00    +0.000 HD
ENDBRANCH   1  10
BRANCH   4  14
ATOM     14  C   UNL     1       4.121   2.173  20.724  0.00  0.00    +0.000 C 
BRANCH  14  15
ATOM     15  C   UNL     1       2.740   2.427  20.208  0.00  0.00    +0.000 A 
ATOM     16  C   UNL     1       1.696   3.076  20.844  0.00  0.00    +0.000 A 
ATOM     17  C   UNL     1       0.531   3.163  20.027  0.00  0.00    +0.000 A 
ATOM     18  C   UNL     1       0.720   2.577  18.797  0.00  0.00    +0.000 A 
ATOM     19  S   UNL     1       2.292   1.924  18.632  0.00  0.00    +0.000 S 
ENDBRANCH  14  15
ENDBRANCH   4  14
TORSDOF 3
ENDMDL
MODEL 6
REMARK VINA RESULT:      -6.3      2.196      2.784
REMARK  Name = 
REMARK  3 active torsions:
REMARK  status: ('A' for Active; 'I' for Inactive)
REMARK    1  A    between atoms: C_4  and  N_5
REMARK    2  A    between atoms: N_8  and  C_9
REMARK    3  A    between atoms: C_9  and  C_10
REMARK                            x       y       z     vdW  Elec       q    Type
REMARK                         _______ _______ _______ _____ _____    ______ ____
ROOT
ATOM      1  N   UNL     1       6.311   4.414  17.947  0.00  0.00    +0.000 N 
ATOM      2  C   UNL     1       5.099   5.051  18.058  0.00  0.00    +0.000 C 
ATOM      3  O   UNL     1       4.461   5.461  17.101  0.00  0.00    +0.000 OA
ATOM      4  N   UNL     1       4.704   5.171  19.362  0.00  0.00    +0.000 N 
ATOM      5  H   UNL     1       6.890   4.415  18.776  0.00  0.00    +0.000 HD
ATOM      6  H   UNL     1       5.054   4.473  19.999  0.00  0.00    +0.000 HD
ENDROOT
BRANCH   1  10
ATOM      7  O   UNL     1       6.341   3.920  13.173  0.00  0.00    +0.000 OA
ATOM      8  C   UNL     1       6.578   4.300  14.304  0.00  0.00    +0.000 C 
ATOM      9  C   UNL     1       6.105   3.651  15.579  0.00  0.00    +0.000 C 
ATOM     10  C   UNL     1       6.966   4.328  16.649  0.00  0.00    +0.000 C 
ATOM     11  C   UNL     1       7.281   5.694  16.034  0.00  0.00    +0.000 C 
ATOM     12  N   UNL     1       7.276   5.444  14.625  0.00  0.00    +0.000 N 
ATOM     13  H   UNL     1       7.596   6.081  13.907  0.00  0.00    +0.000 HD
ENDBRANCH   1  10
BRANCH   4  14
ATOM     14  C   UNL     1       3.395   5.707  19.668  0.00  0.00    +0.000 C 
BRANCH  14  15
ATOM     15  C   UNL     1       2.455   4.576  19.946  0.00  0.00    +0.000 A 
ATOM     16  C   UNL     1       2.160   3.991  21.164  0.00  0.00    +0.000 A 
ATOM     17  C   UNL     1       1.185   2.957  21.050  0.00  0.00    +0.000 A 
ATOM     18  C   UNL     1       0.769   2.784  19.750  0.00  0.00    +0.000 A 
ATOM     19  S   UNL     1       1.554   3.860  18.677  0.00  0.00    +0.000 S 
ENDBRANCH  14  15
ENDBRANCH   4  14
TORSDOF 3
ENDMDL
MODEL 7
REMARK VINA RESULT:      -6.3      1.996      2.463
REMARK  Name = 
REMARK  3 active torsions:
REMARK  status: ('A' for Active; 'I' for Inactive)
REMARK    1  A    between atoms: C_4  and  N_5
REMARK    2  A    between atoms: N_8  and  C_9
REMARK    3  A    between atoms: C_9  and  C_10
REMARK                            x       y       z     vdW  Elec       q    Type
REMARK                         _______ _______ _______ _____ _____    ______ ____
ROOT
ATOM      1  N   UNL     1       5.642   3.576  16.054  0.00  0.00    +0.000 N 
ATOM      2  C   UNL     1       5.192   4.158  17.215  0.00  0.00    +0.000 C 
ATOM      3  O   UNL     1       4.918   5.344  17.313  0.00  0.00    +0.000 OA
ATOM      4  N   UNL     1       5.095   3.253  18.235  0.00  0.00    +0.000 N 
ATOM      5  H   UNL     1       6.139   2.702  16.161  0.00  0.00    +0.000 HD
ATOM      6  H   UNL     1       4.936   2.294  17.966  0.00  0.00    +0.000 HD
ENDROOT
BRANCH   1  10
ATOM      7  O   UNL     1       8.643   5.872  13.095  0.00  0.00    +0.000 OA
ATOM      8  C   UNL     1       7.725   5.203  13.531  0.00  0.00    +0.000 C 
ATOM      9  C   UNL     1       7.336   5.061  14.979  0.00  0.00    +0.000 C 
ATOM     10  C   UNL     1       5.953   4.410  14.901  0.00  0.00    +0.000 C 
ATOM     11  C   UNL     1       6.004   3.632  13.583  0.00  0.00    +0.000 C 
ATOM     12  N   UNL     1       6.907   4.392  12.775  0.00  0.00    +0.000 N 
ATOM     13  H   UNL     1       7.068   4.265  11.783  0.00  0.00    +0.000 HD
ENDBRANCH   1  10
BRANCH   4  14
ATOM     14  C   UNL     1       4.522   3.657  19.501  0.00  0.00    +0.000 C 
BRANCH  14  15
ATOM     15  C   UNL     1       3.060   3.342  19.499  0.00  0.00    +0.000 A 
ATOM     16  C   UNL     1       2.360   2.537  18.618  0.00  0.00    +0.000 A 
ATOM     17  C   UNL     1       0.977   2.439  18.950  0.00  0.00    +0.000 A 
ATOM     18  C   UNL     1       0.664   3.174  20.070  0.00  0.00    +0.000 A 
ATOM     19  S   UNL     1       2.030   3.978  20.713  0.00  0.00    +0.000 S 
ENDBRANCH  14  15
ENDBRANCH   4  14
TORSDOF 3
ENDMDL
MODEL 8
REMARK VINA RESULT:      -6.3      1.291      1.458
REMARK  Name = 
REMARK  3 active torsions:
REMARK  status: ('A' for Active; 'I' for Inactive)
REMARK    1  A    between atoms: C_4  and  N_5
REMARK    2  A    between atoms: N_8  and  C_9
REMARK    3  A    between atoms: C_9  and  C_10
REMARK                            x       y       z     vdW  Elec       q    Type
REMARK                         _______ _______ _______ _____ _____    ______ ____
ROOT
ATOM      1  N   UNL     1       6.151   4.268  18.438  0.00  0.00    +0.000 N 
ATOM      2  C   UNL     1       4.899   3.719  18.304  0.00  0.00    +0.000 C 
ATOM      3  O   UNL     1       3.955   4.306  17.800  0.00  0.00    +0.000 OA
ATOM      4  N   UNL     1       4.843   2.449  18.806  0.00  0.00    +0.000 N 
ATOM      5  H   UNL     1       6.746   3.850  19.139  0.00  0.00    +0.000 HD
ATOM      6  H   UNL     1       5.708   1.931  18.804  0.00  0.00    +0.000 HD
ENDROOT
BRANCH   1  10
ATOM      7  O   UNL     1       8.669   8.354  18.442  0.00  0.00    +0.000 OA
ATOM      8  C   UNL     1       7.977   7.415  18.096  0.00  0.00    +0.000 C 
ATOM      9  C   UNL     1       7.392   6.360  18.998  0.00  0.00    +0.000 C 
ATOM     10  C   UNL     1       6.366   5.669  18.098  0.00  0.00    +0.000 C 
ATOM     11  C   UNL     1       6.937   5.874  16.692  0.00  0.00    +0.000 C 
ATOM     12  N   UNL     1       7.655   7.107  16.793  0.00  0.00    +0.000 N 
ATOM     13  H   UNL     1       8.036   7.638  16.019  0.00  0.00    +0.000 HD
ENDBRANCH   1  10
BRANCH   4  14
ATOM     14  C   UNL     1       3.637   1.666  18.644  0.00  0.00    +0.000 C 
BRANCH  14  15
ATOM     15  C   UNL     1       2.557   2.246  19.502  0.00  0.00    +0.000 A 
ATOM     16  C   UNL     1       1.267   2.587  19.136  0.00  0.00    +0.000 A 
ATOM     17  C   UNL     1       0.503   3.081  20.233  0.00  0.00    +0.000 A 
ATOM     18  C   UNL     1       1.232   3.104  21.400  0.00  0.00    +0.000 A 
ATOM     19  S   UNL     1       2.829   2.536  21.169  0.00  0.00    +0.000 S 
ENDBRANCH  14  15
ENDBRANCH   4  14
TORSDOF 3
ENDMDL
MODEL 9
REMARK VINA RESULT:      -6.3      1.444      1.671
REMARK  Name = 
REMARK  3 active torsions:
REMARK  status: ('A' for Active; 'I' for Inactive)
REMARK    1  A    between atoms: C_4  and  N_5
REMARK    2  A    between atoms: N_8  and  C_9
REMARK    3  A    between atoms: C_9  and  C_10
REMARK                            x       y       z     vdW  Elec       q    Type
REMARK                         _______ _______ _______ _____ _____    ______ ____
ROOT
ATOM      1  N   UNL     1       6.074   4.163  18.275  0.00  0.00    +0.000 N 
ATOM      2  C   UNL     1       4.804   3.646  18.186  0.00  0.00    +0.000 C 
ATOM      3  O   UNL     1       3.852   4.269  17.744  0.00  0.00    +0.000 OA
ATOM      4  N   UNL     1       4.741   2.364  18.657  0.00  0.00    +0.000 N 
ATOM      5  H   UNL     1       6.691   3.710  18.937  0.00  0.00    +0.000 HD
ATOM      6  H   UNL     1       5.592   1.826  18.599  0.00  0.00    +0.000 HD
ENDROOT
BRANCH   1  10
ATOM      7  O   UNL     1       8.601   8.239  18.442  0.00  0.00    +0.000 OA
ATOM      8  C   UNL     1       7.922   7.307  18.055  0.00  0.00    +0.000 C 
ATOM      9  C   UNL     1       7.295   6.243  18.917  0.00  0.00    +0.000 C 
ATOM     10  C   UNL     1       6.308   5.566  17.964  0.00  0.00    +0.000 C 
ATOM     11  C   UNL     1       6.940   5.788  16.587  0.00  0.00    +0.000 C 
ATOM     12  N   UNL     1       7.656   7.017  16.735  0.00  0.00    +0.000 N 
ATOM     13  H   UNL     1       8.072   7.557  15.985  0.00  0.00    +0.000 HD
ENDBRANCH   1  10
BRANCH   4  14
ATOM     14  C   UNL     1       3.509   1.614  18.531  0.00  0.00    +0.000 C 
BRANCH  14  15
ATOM     15  C   UNL     1       2.477   2.212  19.433  0.00  0.00    +0.000 A 
ATOM     16  C   UNL     1       2.594   2.524  20.777  0.00  0.00    +0.000 A 
ATOM     17  C   UNL     1       1.410   3.117  21.303  0.00  0.00    +0.000 A 
ATOM     18  C   UNL     1       0.427   3.238  20.349  0.00  0.00    +0.000 A 
ATOM     19  S   UNL     1       0.930   2.635  18.829  0.00  0.00    +0.000 S 
ENDBRANCH  14  15
ENDBRANCH   4  14
TORSDOF 3
ENDMDL
