MODEL 1
REMARK VINA RESULT:      -7.1      0.000      0.000
REMARK  Name = 
REMARK  9 active torsions:
REMARK  status: ('A' for Active; 'I' for Inactive)
REMARK    1  A    between atoms: C_1  and  C_2
REMARK    2  A    between atoms: C_2  and  C_3
REMARK    3  A    between atoms: C_3  and  N_4
REMARK    4  A    between atoms: C_5  and  S_6
REMARK    5  A    between atoms: C_9  and  C_10
REMARK    6  A    between atoms: C_10  and  C_11
REMARK    7  A    between atoms: C_10  and  N_12
REMARK    8  A    between atoms: N_12  and  S_13
REMARK    9  A    between atoms: S_13  and  C_16
REMARK                            x       y       z     vdW  Elec       q    Type
REMARK                         _______ _______ _______ _____ _____    ______ ____
ROOT
ATOM      1  C   UNL     1       4.306   5.259  17.606  0.00  0.00    +0.000 C 
ATOM      2  C   UNL     1       3.599   3.975  17.197  0.00  0.00    +0.000 C 
ENDROOT
BRANCH   1   7
ATOM      3  N   UNL     1       2.663   6.217  19.419  0.00  0.00    +0.000 N 
ATOM      4  C   UNL     1       2.163   7.489  19.586  0.00  0.00    +0.000 A 
ATOM      5  N   UNL     1       2.400   8.204  18.513  0.00  0.00    +0.000 NA
ATOM      6  N   UNL     1       3.127   7.437  17.650  0.00  0.00    +0.000 NA
ATOM      7  C   UNL     1       3.354   6.263  18.211  0.00  0.00    +0.000 A 
BRANCH   4   8
ATOM      8  S   UNL     1       1.367   8.133  20.979  0.00  0.00    +0.000 S 
ATOM      9  H   UNL     1       1.308   9.433  20.675  0.00  0.00    +0.000 HD
ENDBRANCH   4   8
BRANCH   3  10
ATOM     10  C   UNL     1       2.563   5.103  20.339  0.00  0.00    +0.000 C 
BRANCH  10  12
ATOM     11  C   UNL     1       1.309   2.989  21.008  0.00  0.00    +0.000 C 
ATOM     12  C   UNL     1       1.214   4.372  20.386  0.00  0.00    +0.000 C 
ENDBRANCH  10  12
ENDBRANCH   3  10
ENDBRANCH   1   7
BRANCH   1  13
ATOM     13  N   UNL     1       5.087   5.889  16.519  0.00  0.00    +0.000 NA
ATOM     14  H   UNL     1       5.069   6.916  16.557  0.00  0.00    +0.000 HD
BRANCH  13  15
ATOM     15  S   UNL     1       6.719   5.431  16.348  0.00  0.00    +0.000 S 
ATOM     16  O   UNL     1       7.482   6.651  16.415  0.00  0.00    +0.000 OA
ATOM     17  O   UNL     1       6.971   4.320  17.242  0.00  0.00    +0.000 OA
BRANCH  15  18
ATOM     18  C   UNL     1       6.792   4.862  14.668  0.00  0.00    +0.000 A 
ATOM     19  C   UNL     1       7.724   5.423  13.792  0.00  0.00    +0.000 A 
ATOM     20  C   UNL     1       7.753   4.997  12.464  0.00  0.00    +0.000 A 
ATOM     21  C   UNL     1       6.862   4.022  12.017  0.00  0.00    +0.000 A 
ATOM     22  C   UNL     1       5.950   3.447  12.903  0.00  0.00    +0.000 A 
ATOM     23  C   UNL     1       5.921   3.856  14.235  0.00  0.00    +0.000 A 
ENDBRANCH  15  18
ENDBRANCH  13  15
ENDBRANCH   1  13
TORSDOF 7
ENDMDL
MODEL 2
REMARK VINA RESULT:      -7.0      2.006      3.128
REMARK  Name = 
REMARK  9 active torsions:
REMARK  status: ('A' for Active; 'I' for Inactive)
REMARK    1  A    between atoms: C_1  and  C_2
REMARK    2  A    between atoms: C_2  and  C_3
REMARK    3  A    between atoms: C_3  and  N_4
REMARK    4  A    between atoms: C_5  and  S_6
REMARK    5  A    between atoms: C_9  and  C_10
REMARK    6  A    between atoms: C_10  and  C_11
REMARK    7  A    between atoms: C_10  and  N_12
REMARK    8  A    between atoms: N_12  and  S_13
REMARK    9  A    between atoms: S_13  and  C_16
REMARK                            x       y       z     vdW  Elec       q    Type
REMARK                         _______ _______ _______ _____ _____    ______ ____
ROOT
ATOM      1  C   UNL     1       5.664   5.521  18.541  0.00  0.00    +0.000 C 
ATOM      2  C   UNL     1       7.018   5.587  19.231  0.00  0.00    +0.000 C 
ENDROOT
BRANCH   1   7
ATOM      3  N   UNL     1       3.379   4.821  19.635  0.00  0.00    +0.000 N 
ATOM      4  C   UNL     1       2.916   3.582  20.015  0.00  0.00    +0.000 A 
ATOM      5  N   UNL     1       3.904   2.720  20.017  0.00  0.00    +0.000 NA
ATOM      6  N   UNL     1       5.020   3.360  19.566  0.00  0.00    +0.000 NA
ATOM      7  C   UNL     1       4.704   4.606  19.264  0.00  0.00    +0.000 A 
BRANCH   4   8
ATOM      8  S   UNL     1       1.291   3.139  20.408  0.00  0.00    +0.000 S 
ATOM      9  H   UNL     1       0.690   3.247  19.219  0.00  0.00    +0.000 HD
ENDBRANCH   4   8
BRANCH   3  10
ATOM     10  C   UNL     1       2.628   6.057  19.558  0.00  0.00    +0.000 C 
BRANCH  10  12
ATOM     11  C   UNL     1       2.808   7.972  17.888  0.00  0.00    +0.000 C 
ATOM     12  C   UNL     1       2.291   6.568  18.150  0.00  0.00    +0.000 C 
ENDBRANCH  10  12
ENDBRANCH   3  10
ENDBRANCH   1   7
BRANCH   1  13
ATOM     13  N   UNL     1       5.734   5.158  17.109  0.00  0.00    +0.000 NA
ATOM     14  H   UNL     1       5.093   5.710  16.525  0.00  0.00    +0.000 HD
BRANCH  13  15
ATOM     15  S   UNL     1       7.258   5.212  16.352  0.00  0.00    +0.000 S 
ATOM     16  O   UNL     1       7.627   6.604  16.301  0.00  0.00    +0.000 OA
ATOM     17  O   UNL     1       8.106   4.218  16.976  0.00  0.00    +0.000 OA
BRANCH  15  18
ATOM     18  C   UNL     1       6.888   4.710  14.690  0.00  0.00    +0.000 A 
ATOM     19  C   UNL     1       5.782   3.891  14.449  0.00  0.00    +0.000 A 
ATOM     20  C   UNL     1       5.517   3.471  13.145  0.00  0.00    +0.000 A 
ATOM     21  C   UNL     1       6.346   3.866  12.096  0.00  0.00    +0.000 A 
ATOM     22  C   UNL     1       7.434   4.705  12.338  0.00  0.00    +0.000 A 
ATOM     23  C   UNL     1       7.700   5.140  13.635  0.00  0.00    +0.000 A 
ENDBRANCH  15  18
ENDBRANCH  13  15
ENDBRANCH   1  13
TORSDOF 7
ENDMDL
MODEL 3
REMARK VINA RESULT:      -6.9      0.184      1.070
REMARK  Name = 
REMARK  9 active torsions:
REMARK  status: ('A' for Active; 'I' for Inactive)
REMARK    1  A    between atoms: C_1  and  C_2
REMARK    2  A    between atoms: C_2  and  C_3
REMARK    3  A    between atoms: C_3  and  N_4
REMARK    4  A    between atoms: C_5  and  S_6
REMARK    5  A    between atoms: C_9  and  C_10
REMARK    6  A    between atoms: C_10  and  C_11
REMARK    7  A    between atoms: C_10  and  N_12
REMARK    8  A    between atoms: N_12  and  S_13
REMARK    9  A    between atoms: S_13  and  C_16
REMARK                            x       y       z     vdW  Elec       q    Type
REMARK                         _______ _______ _______ _____ _____    ______ ____
ROOT
ATOM      1  C   UNL     1       4.105   5.238  17.635  0.00  0.00    +0.000 C 
ATOM      2  C   UNL     1       3.357   3.969  17.254  0.00  0.00    +0.000 C 
ENDROOT
BRANCH   1   7
ATOM      3  N   UNL     1       2.547   6.235  19.502  0.00  0.00    +0.000 N 
ATOM      4  C   UNL     1       2.082   7.518  19.681  0.00  0.00    +0.000 A 
ATOM      5  N   UNL     1       2.296   8.225  18.599  0.00  0.00    +0.000 NA
ATOM      6  N   UNL     1       2.976   7.441  17.714  0.00  0.00    +0.000 NA
ATOM      7  C   UNL     1       3.197   6.263  18.271  0.00  0.00    +0.000 A 
BRANCH   4   8
ATOM      8  S   UNL     1       1.348   8.183  21.100  0.00  0.00    +0.000 S 
ATOM      9  H   UNL     1       0.740   7.110  21.614  0.00  0.00    +0.000 HD
ENDBRANCH   4   8
BRANCH   3  10
ATOM     10  C   UNL     1       2.454   5.126  20.428  0.00  0.00    +0.000 C 
BRANCH  10  12
ATOM     11  C   UNL     1       1.312   2.879  20.794  0.00  0.00    +0.000 C 
ATOM     12  C   UNL     1       1.134   4.343  20.430  0.00  0.00    +0.000 C 
ENDBRANCH  10  12
ENDBRANCH   3  10
ENDBRANCH   1   7
BRANCH   1  13
ATOM     13  N   UNL     1       4.863   5.848  16.522  0.00  0.00    +0.000 NA
ATOM     14  H   UNL     1       4.812   6.874  16.518  0.00  0.00    +0.000 HD
BRANCH  13  15
ATOM     15  S   UNL     1       6.509   5.437  16.365  0.00  0.00    +0.000 S 
ATOM     16  O   UNL     1       7.237   6.678  16.442  0.00  0.00    +0.000 OA
ATOM     17  O   UNL     1       6.784   4.331  17.258  0.00  0.00    +0.000 OA
BRANCH  15  18
ATOM     18  C   UNL     1       6.613   4.876  14.684  0.00  0.00    +0.000 A 
ATOM     19  C   UNL     1       5.665   3.971  14.201  0.00  0.00    +0.000 A 
ATOM     20  C   UNL     1       5.773   3.506  12.889  0.00  0.00    +0.000 A 
ATOM     21  C   UNL     1       6.815   3.942  12.071  0.00  0.00    +0.000 A 
ATOM     22  C   UNL     1       7.744   4.866  12.551  0.00  0.00    +0.000 A 
ATOM     23  C   UNL     1       7.637   5.346  13.855  0.00  0.00    +0.000 A 
ENDBRANCH  15  18
ENDBRANCH  13  15
ENDBRANCH   1  13
TORSDOF 7
ENDMDL
MODEL 4
REMARK VINA RESULT:      -6.9      1.753      2.592
REMARK  Name = 
REMARK  9 active torsions:
REMARK  status: ('A' for Active; 'I' for Inactive)
REMARK    1  A    between atoms: C_1  and  C_2
REMARK    2  A    between atoms: C_2  and  C_3
REMARK    3  A    between atoms: C_3  and  N_4
REMARK    4  A    between atoms: C_5  and  S_6
REMARK    5  A    between atoms: C_9  and  C_10
REMARK    6  A    between atoms: C_10  and  C_11
REMARK    7  A    between atoms: C_10  and  N_12
REMARK    8  A    between atoms: N_12  and  S_13
REMARK    9  A    between atoms: S_13  and  C_16
REMARK                            x       y       z     vdW  Elec       q    Type
REMARK                         _______ _______ _______ _____ _____    ______ ____
ROOT
ATOM      1  C   UNL     1       5.486   5.684  18.463  0.00  0.00    +0.000 C 
ATOM      2  C   UNL     1       6.631   5.441  19.435  0.00  0.00    +0.000 C 
ENDROOT
BRANCH   1   7
ATOM      3  N   UNL     1       3.673   4.094  19.508  0.00  0.00    +0.000 N 
ATOM      4  C   UNL     1       2.516   4.391  20.193  0.00  0.00    +0.000 A 
ATOM      5  N   UNL     1       2.232   5.663  20.055  0.00  0.00    +0.000 NA
ATOM      6  N   UNL     1       3.237   6.242  19.339  0.00  0.00    +0.000 NA
ATOM      7  C   UNL     1       4.147   5.325  19.063  0.00  0.00    +0.000 A 
BRANCH   4   8
ATOM      8  S   UNL     1       1.551   3.316  21.144  0.00  0.00    +0.000 S 
ATOM      9  H   UNL     1       1.237   4.092  22.186  0.00  0.00    +0.000 HD
ENDBRANCH   4   8
BRANCH   3  10
ATOM     10  C   UNL     1       4.300   2.798  19.358  0.00  0.00    +0.000 C 
BRANCH  10  12
ATOM     11  C   UNL     1       2.765   2.405  17.363  0.00  0.00    +0.000 C 
ATOM     12  C   UNL     1       3.553   1.770  18.496  0.00  0.00    +0.000 C 
ENDBRANCH  10  12
ENDBRANCH   3  10
ENDBRANCH   1   7
BRANCH   1  13
ATOM     13  N   UNL     1       5.654   5.016  17.155  0.00  0.00    +0.000 NA
ATOM     14  H   UNL     1       4.942   5.296  16.469  0.00  0.00    +0.000 HD
BRANCH  13  15
ATOM     15  S   UNL     1       7.165   5.157  16.381  0.00  0.00    +0.000 S 
ATOM     16  O   UNL     1       7.465   6.566  16.349  0.00  0.00    +0.000 OA
ATOM     17  O   UNL     1       8.068   4.195  16.979  0.00  0.00    +0.000 OA
BRANCH  15  18
ATOM     18  C   UNL     1       6.799   4.663  14.716  0.00  0.00    +0.000 A 
ATOM     19  C   UNL     1       5.665   3.889  14.461  0.00  0.00    +0.000 A 
ATOM     20  C   UNL     1       5.403   3.475  13.154  0.00  0.00    +0.000 A 
ATOM     21  C   UNL     1       6.262   3.832  12.116  0.00  0.00    +0.000 A 
ATOM     22  C   UNL     1       7.380   4.627  12.373  0.00  0.00    +0.000 A 
ATOM     23  C   UNL     1       7.644   5.057  13.672  0.00  0.00    +0.000 A 
ENDBRANCH  15  18
ENDBRANCH  13  15
ENDBRANCH   1  13
TORSDOF 7
ENDMDL
MODEL 5
REMARK VINA RESULT:      -6.9      2.237      3.180
REMARK  Name = 
REMARK  9 active torsions:
REMARK  status: ('A' for Active; 'I' for Inactive)
REMARK    1  A    between atoms: C_1  and  C_2
REMARK    2  A    between atoms: C_2  and  C_3
REMARK    3  A    between atoms: C_3  and  N_4
REMARK    4  A    between atoms: C_5  and  S_6
REMARK    5  A    between atoms: C_9  and  C_10
REMARK    6  A    between atoms: C_10  and  C_11
REMARK    7  A    between atoms: C_10  and  N_12
REMARK    8  A    between atoms: N_12  and  S_13
REMARK    9  A    between atoms: S_13  and  C_16
REMARK                            x       y       z     vdW  Elec       q    Type
REMARK                         _______ _______ _______ _____ _____    ______ ____
ROOT
ATOM      1  C   UNL     1       5.781   5.095  18.443  0.00  0.00    +0.000 C 
ATOM      2  C   UNL     1       6.957   5.150  19.408  0.00  0.00    +0.000 C 
ENDROOT
BRANCH   1   7
ATOM      3  N   UNL     1       3.289   4.326  18.764  0.00  0.00    +0.000 N 
ATOM      4  C   UNL     1       2.777   3.137  19.231  0.00  0.00    +0.000 A 
ATOM      5  N   UNL     1       3.728   2.434  19.796  0.00  0.00    +0.000 NA
ATOM      6  N   UNL     1       4.899   3.115  19.643  0.00  0.00    +0.000 NA
ATOM      7  C   UNL     1       4.663   4.222  18.962  0.00  0.00    +0.000 A 
BRANCH   4   8
ATOM      8  S   UNL     1       1.149   2.567  19.099  0.00  0.00    +0.000 S 
ATOM      9  H   UNL     1       0.809   2.429  20.384  0.00  0.00    +0.000 HD
ENDBRANCH   4   8
BRANCH   3  10
ATOM     10  C   UNL     1       2.566   5.408  18.129  0.00  0.00    +0.000 C 
BRANCH  10  12
ATOM     11  C   UNL     1       2.453   7.950  18.015  0.00  0.00    +0.000 C 
ATOM     12  C   UNL     1       2.476   6.725  18.912  0.00  0.00    +0.000 C 
ENDBRANCH  10  12
ENDBRANCH   3  10
ENDBRANCH   1   7
BRANCH   1  13
ATOM     13  N   UNL     1       6.148   4.691  17.069  0.00  0.00    +0.000 NA
ATOM     14  H   UNL     1       5.451   4.074  16.634  0.00  0.00    +0.000 HD
BRANCH  13  15
ATOM     15  S   UNL     1       6.485   5.924  15.944  0.00  0.00    +0.000 S 
ATOM     16  O   UNL     1       5.299   6.741  15.884  0.00  0.00    +0.000 OA
ATOM     17  O   UNL     1       7.783   6.481  16.261  0.00  0.00    +0.000 OA
BRANCH  15  18
ATOM     18  C   UNL     1       6.584   5.038  14.409  0.00  0.00    +0.000 A 
ATOM     19  C   UNL     1       7.593   5.353  13.496  0.00  0.00    +0.000 A 
ATOM     20  C   UNL     1       7.645   4.676  12.277  0.00  0.00    +0.000 A 
ATOM     21  C   UNL     1       6.700   3.697  11.975  0.00  0.00    +0.000 A 
ATOM     22  C   UNL     1       5.710   3.368  12.901  0.00  0.00    +0.000 A 
ATOM     23  C   UNL     1       5.657   4.028  14.127  0.00  0.00    +0.000 A 
ENDBRANCH  15  18
ENDBRANCH  13  15
ENDBRANCH   1  13
TORSDOF 7
ENDMDL
MODEL 6
REMARK VINA RESULT:      -6.8      2.207      3.205
REMARK  Name = 
REMARK  9 active torsions:
REMARK  status: ('A' for Active; 'I' for Inactive)
REMARK    1  A    between atoms: C_1  and  C_2
REMARK    2  A    between atoms: C_2  and  C_3
REMARK    3  A    between atoms: C_3  and  N_4
REMARK    4  A    between atoms: C_5  and  S_6
REMARK    5  A    between atoms: C_9  and  C_10
REMARK    6  A    between atoms: C_10  and  C_11
REMARK    7  A    between atoms: C_10  and  N_12
REMARK    8  A    between atoms: N_12  and  S_13
REMARK    9  A    between atoms: S_13  and  C_16
REMARK                            x       y       z     vdW  Elec       q    Type
REMARK                         _______ _______ _______ _____ _____    ______ ____
ROOT
ATOM      1  C   UNL     1       6.290   5.526  18.423  0.00  0.00    +0.000 C 
ATOM      2  C   UNL     1       7.564   5.635  19.248  0.00  0.00    +0.000 C 
ENDROOT
BRANCH   1   7
ATOM      3  N   UNL     1       3.928   5.112  19.498  0.00  0.00    +0.000 N 
ATOM      4  C   UNL     1       3.313   3.939  19.872  0.00  0.00    +0.000 A 
ATOM      5  N   UNL     1       4.186   2.962  19.880  0.00  0.00    +0.000 NA
ATOM      6  N   UNL     1       5.376   3.460  19.438  0.00  0.00    +0.000 NA
ATOM      7  C   UNL     1       5.219   4.736  19.136  0.00  0.00    +0.000 A 
BRANCH   4   8
ATOM      8  S   UNL     1       1.642   3.701  20.252  0.00  0.00    +0.000 S 
ATOM      9  H   UNL     1       1.097   3.649  19.033  0.00  0.00    +0.000 HD
ENDBRANCH   4   8
BRANCH   3  10
ATOM     10  C   UNL     1       3.336   6.431  19.418  0.00  0.00    +0.000 C 
BRANCH  10  12
ATOM     11  C   UNL     1       2.327   8.229  17.922  0.00  0.00    +0.000 C 
ATOM     12  C   UNL     1       2.520   6.741  18.155  0.00  0.00    +0.000 C 
ENDBRANCH  10  12
ENDBRANCH   3  10
ENDBRANCH   1   7
BRANCH   1  13
ATOM     13  N   UNL     1       6.498   4.989  17.061  0.00  0.00    +0.000 NA
ATOM     14  H   UNL     1       6.664   3.975  17.052  0.00  0.00    +0.000 HD
BRANCH  13  15
ATOM     15  S   UNL     1       5.298   5.302  15.894  0.00  0.00    +0.000 S 
ATOM     16  O   UNL     1       4.224   4.383  16.172  0.00  0.00    +0.000 OA
ATOM     17  O   UNL     1       5.085   6.734  15.840  0.00  0.00    +0.000 OA
BRANCH  15  18
ATOM     18  C   UNL     1       6.067   4.765  14.387  0.00  0.00    +0.000 A 
ATOM     19  C   UNL     1       7.277   5.338  13.989  0.00  0.00    +0.000 A 
ATOM     20  C   UNL     1       7.859   4.936  12.786  0.00  0.00    +0.000 A 
ATOM     21  C   UNL     1       7.239   3.972  11.992  0.00  0.00    +0.000 A 
ATOM     22  C   UNL     1       6.044   3.384  12.407  0.00  0.00    +0.000 A 
ATOM     23  C   UNL     1       5.462   3.769  13.613  0.00  0.00    +0.000 A 
ENDBRANCH  15  18
ENDBRANCH  13  15
ENDBRANCH   1  13
TORSDOF 7
ENDMDL
MODEL 7
REMARK VINA RESULT:      -6.7      2.189      3.321
REMARK  Name = 
REMARK  9 active torsions:
REMARK  status: ('A' for Active; 'I' for Inactive)
REMARK    1  A    between atoms: C_1  and  C_2
REMARK    2  A    between atoms: C_2  and  C_3
REMARK    3  A    between atoms: C_3  and  N_4
REMARK    4  A    between atoms: C_5  and  S_6
REMARK    5  A    between atoms: C_9  and  C_10
REMARK    6  A    between atoms: C_10  and  C_11
REMARK    7  A    between atoms: C_10  and  N_12
REMARK    8  A    between atoms: N_12  and  S_13
REMARK    9  A    between atoms: S_13  and  C_16
REMARK                            x       y       z     vdW  Elec       q    Type
REMARK                         _______ _______ _______ _____ _____    ______ ____
ROOT
ATOM      1  C   UNL     1       5.800   5.059  18.293  0.00  0.00    +0.000 C 
ATOM      2  C   UNL     1       7.056   5.013  19.152  0.00  0.00    +0.000 C 
ENDROOT
BRANCH   1   7
ATOM      3  N   UNL     1       3.293   4.416  18.751  0.00  0.00    +0.000 N 
ATOM      4  C   UNL     1       2.752   3.276  19.301  0.00  0.00    +0.000 A 
ATOM      5  N   UNL     1       3.696   2.563  19.865  0.00  0.00    +0.000 NA
ATOM      6  N   UNL     1       4.887   3.184  19.631  0.00  0.00    +0.000 NA
ATOM      7  C   UNL     1       4.669   4.263  18.901  0.00  0.00    +0.000 A 
BRANCH   4   8
ATOM      8  S   UNL     1       1.098   2.771  19.263  0.00  0.00    +0.000 S 
ATOM      9  H   UNL     1       1.011   2.057  20.389  0.00  0.00    +0.000 HD
ENDBRANCH   4   8
BRANCH   3  10
ATOM     10  C   UNL     1       2.590   5.494  18.088  0.00  0.00    +0.000 C 
BRANCH  10  12
ATOM     11  C   UNL     1       2.192   7.998  17.845  0.00  0.00    +0.000 C 
ATOM     12  C   UNL     1       2.677   6.877  18.747  0.00  0.00    +0.000 C 
ENDBRANCH  10  12
ENDBRANCH   3  10
ENDBRANCH   1   7
BRANCH   1  13
ATOM     13  N   UNL     1       6.015   4.649  16.889  0.00  0.00    +0.000 NA
ATOM     14  H   UNL     1       5.210   4.150  16.490  0.00  0.00    +0.000 HD
BRANCH  13  15
ATOM     15  S   UNL     1       6.449   5.856  15.769  0.00  0.00    +0.000 S 
ATOM     16  O   UNL     1       5.326   6.756  15.700  0.00  0.00    +0.000 OA
ATOM     17  O   UNL     1       7.782   6.318  16.099  0.00  0.00    +0.000 OA
BRANCH  15  18
ATOM     18  C   UNL     1       6.499   4.966  14.234  0.00  0.00    +0.000 A 
ATOM     19  C   UNL     1       5.537   3.988  13.974  0.00  0.00    +0.000 A 
ATOM     20  C   UNL     1       5.602   3.268  12.780  0.00  0.00    +0.000 A 
ATOM     21  C   UNL     1       6.616   3.524  11.858  0.00  0.00    +0.000 A 
ATOM     22  C   UNL     1       7.560   4.520  12.111  0.00  0.00    +0.000 A 
ATOM     23  C   UNL     1       7.496   5.253  13.295  0.00  0.00    +0.000 A 
ENDBRANCH  15  18
ENDBRANCH  13  15
ENDBRANCH   1  13
TORSDOF 7
ENDMDL
MODEL 8
REMARK VINA RESULT:      -6.5      3.304      6.522
REMARK  Name = 
REMARK  9 active torsions:
REMARK  status: ('A' for Active; 'I' for Inactive)
REMARK    1  A    between atoms: C_1  and  C_2
REMARK    2  A    between atoms: C_2  and  C_3
REMARK    3  A    between atoms: C_3  and  N_4
REMARK    4  A    between atoms: C_5  and  S_6
REMARK    5  A    between atoms: C_9  and  C_10
REMARK    6  A    between atoms: C_10  and  C_11
REMARK    7  A    between atoms: C_10  and  N_12
REMARK    8  A    between atoms: N_12  and  S_13
REMARK    9  A    between atoms: S_13  and  C_16
REMARK                            x       y       z     vdW  Elec       q    Type
REMARK                         _______ _______ _______ _____ _____    ______ ____
ROOT
ATOM      1  C   UNL     1       3.766   2.619  18.470  0.00  0.00    +0.000 C 
ATOM      2  C   UNL     1       4.201   1.242  17.989  0.00  0.00    +0.000 C 
ENDROOT
BRANCH   1   7
ATOM      3  N   UNL     1       5.471   4.397  17.557  0.00  0.00    +0.000 N 
ATOM      4  C   UNL     1       6.315   5.251  18.232  0.00  0.00    +0.000 A 
ATOM      5  N   UNL     1       6.389   4.899  19.492  0.00  0.00    +0.000 NA
ATOM      6  N   UNL     1       5.537   3.852  19.686  0.00  0.00    +0.000 NA
ATOM      7  C   UNL     1       4.925   3.585  18.546  0.00  0.00    +0.000 A 
BRANCH   4   8
ATOM      8  S   UNL     1       7.154   6.623  17.595  0.00  0.00    +0.000 S 
ATOM      9  H   UNL     1       7.931   6.054  16.669  0.00  0.00    +0.000 HD
ENDBRANCH   4   8
BRANCH   3  10
ATOM     10  C   UNL     1       5.160   4.402  16.143  0.00  0.00    +0.000 C 
BRANCH  10  12
ATOM     11  C   UNL     1       5.833   3.860  13.747  0.00  0.00    +0.000 C 
ATOM     12  C   UNL     1       6.288   3.982  15.191  0.00  0.00    +0.000 C 
ENDBRANCH  10  12
ENDBRANCH   3  10
ENDBRANCH   1   7
BRANCH   1  13
ATOM     13  N   UNL     1       3.030   2.603  19.752  0.00  0.00    +0.000 NA
ATOM     14  H   UNL     1       3.554   3.042  20.520  0.00  0.00    +0.000 HD
BRANCH  13  15
ATOM     15  S   UNL     1       1.466   3.278  19.776  0.00  0.00    +0.000 S 
ATOM     16  O   UNL     1       0.794   2.762  18.611  0.00  0.00    +0.000 OA
ATOM     17  O   UNL     1       0.924   3.112  21.109  0.00  0.00    +0.000 OA
BRANCH  15  18
ATOM     18  C   UNL     1       1.778   5.000  19.478  0.00  0.00    +0.000 A 
ATOM     19  C   UNL     1       2.054   5.434  18.180  0.00  0.00    +0.000 A 
ATOM     20  C   UNL     1       2.333   6.783  17.957  0.00  0.00    +0.000 A 
ATOM     21  C   UNL     1       2.333   7.687  19.019  0.00  0.00    +0.000 A 
ATOM     22  C   UNL     1       2.031   7.252  20.310  0.00  0.00    +0.000 A 
ATOM     23  C   UNL     1       1.739   5.909  20.541  0.00  0.00    +0.000 A 
ENDBRANCH  15  18
ENDBRANCH  13  15
ENDBRANCH   1  13
TORSDOF 7
ENDMDL
MODEL 9
REMARK VINA RESULT:      -6.5      2.303      3.352
REMARK  Name = 
REMARK  9 active torsions:
REMARK  status: ('A' for Active; 'I' for Inactive)
REMARK    1  A    between atoms: C_1  and  C_2
REMARK    2  A    between atoms: C_2  and  C_3
REMARK    3  A    between atoms: C_3  and  N_4
REMARK    4  A    between atoms: C_5  and  S_6
REMARK    5  A    between atoms: C_9  and  C_10
REMARK    6  A    between atoms: C_10  and  C_11
REMARK    7  A    between atoms: C_10  and  N_12
REMARK    8  A    between atoms: N_12  and  S_13
REMARK    9  A    between atoms: S_13  and  C_16
REMARK                            x       y       z     vdW  Elec       q    Type
REMARK                         _______ _______ _______ _____ _____    ______ ____
ROOT
ATOM      1  C   UNL     1       2.809   6.274  19.669  0.00  0.00    +0.000 C 
ATOM      2  C   UNL     1       1.881   5.427  20.527  0.00  0.00    +0.000 C 
ENDROOT
BRANCH   1   7
ATOM      3  N   UNL     1       1.537   8.561  19.912  0.00  0.00    +0.000 N 
ATOM      4  C   UNL     1       1.333   9.568  18.996  0.00  0.00    +0.000 A 
ATOM      5  N   UNL     1       1.642   9.146  17.794  0.00  0.00    +0.000 NA
ATOM      6  N   UNL     1       2.127   7.877  17.908  0.00  0.00    +0.000 NA
ATOM      7  C   UNL     1       2.137   7.537  19.184  0.00  0.00    +0.000 A 
BRANCH   4   8
ATOM      8  S   UNL     1       0.791  11.181  19.308  0.00  0.00    +0.000 S 
ATOM      9  H   UNL     1       1.839  11.899  18.894  0.00  0.00    +0.000 HD
ENDBRANCH   4   8
BRANCH   3  10
ATOM     10  C   UNL     1       1.265   8.594  21.334  0.00  0.00    +0.000 C 
BRANCH  10  12
ATOM     11  C   UNL     1      -0.508   9.590  22.868  0.00  0.00    +0.000 C 
ATOM     12  C   UNL     1      -0.213   8.606  21.749  0.00  0.00    +0.000 C 
ENDBRANCH  10  12
ENDBRANCH   3  10
ENDBRANCH   1   7
BRANCH   1  13
ATOM     13  N   UNL     1       3.409   5.546  18.530  0.00  0.00    +0.000 NA
ATOM     14  H   UNL     1       3.618   6.157  17.731  0.00  0.00    +0.000 HD
BRANCH  13  15
ATOM     15  S   UNL     1       4.812   4.628  18.828  0.00  0.00    +0.000 S 
ATOM     16  O   UNL     1       5.650   5.444  19.669  0.00  0.00    +0.000 OA
ATOM     17  O   UNL     1       4.403   3.295  19.218  0.00  0.00    +0.000 OA
BRANCH  15  18
ATOM     18  C   UNL     1       5.584   4.563  17.230  0.00  0.00    +0.000 A 
ATOM     19  C   UNL     1       6.956   4.796  17.119  0.00  0.00    +0.000 A 
ATOM     20  C   UNL     1       7.550   4.777  15.857  0.00  0.00    +0.000 A 
ATOM     21  C   UNL     1       6.782   4.528  14.720  0.00  0.00    +0.000 A 
ATOM     22  C   UNL     1       5.416   4.271  14.840  0.00  0.00    +0.000 A 
ATOM     23  C   UNL     1       4.815   4.274  16.097  0.00  0.00    +0.000 A 
ENDBRANCH  15  18
ENDBRANCH  13  15
ENDBRANCH   1  13
TORSDOF 7
ENDMDL
