MODEL 1
REMARK VINA RESULT:      -6.6      0.000      0.000
REMARK  Name = 
REMARK  3 active torsions:
REMARK  status: ('A' for Active; 'I' for Inactive)
REMARK    1  A    between atoms: N_1  and  C_2
REMARK    2  A    between atoms: C_2  and  C_3
REMARK    3  A    between atoms: C_9  and  O_10
REMARK                            x       y       z     vdW  Elec       q    Type
REMARK                         _______ _______ _______ _____ _____    ______ ____
ROOT
ATOM      1  C   UNL     1       2.417   5.129  19.273  0.00  0.00    +0.000 C 
ATOM      2  C   UNL     1       1.510   4.733  20.468  0.00  0.00    +0.000 C 
ATOM      3  C   UNL     1       1.407   3.204  20.593  0.00  0.00    +0.000 C 
ATOM      4  C   UNL     1       0.816   2.633  19.292  0.00  0.00    +0.000 C 
ATOM      5  C   UNL     1       1.722   2.982  18.100  0.00  0.00    +0.000 C 
ATOM      6  C   UNL     1       3.120   2.392  18.340  0.00  0.00    +0.000 C 
ATOM      7  C   UNL     1       3.718   2.972  19.631  0.00  0.00    +0.000 C 
ATOM      8  C   UNL     1       2.808   2.620  20.819  0.00  0.00    +0.000 C 
ATOM      9  C   UNL     1       3.818   4.502  19.503  0.00  0.00    +0.000 C 
ATOM     10  C   UNL     1       1.829   4.513  17.977  0.00  0.00    +0.000 C 
ENDROOT
BRANCH   7  11
ATOM     11  O   UNL     1       5.017   2.438  19.845  0.00  0.00    +0.000 OA
ATOM     12  H   UNL     1       5.290   2.668  20.751  0.00  0.00    +0.000 HD
ENDBRANCH   7  11
BRANCH   1  13
ATOM     13  C   UNL     1       2.561   6.664  19.153  0.00  0.00    +0.000 C 
BRANCH  13  14
ATOM     14  N   UNL     1       2.160   7.387  20.356  0.00  0.00    +0.000 NA
ATOM     15  H   UNL     1       2.828   8.137  20.537  0.00  0.00    +0.000 HD
ATOM     16  H   UNL     1       2.213   6.770  21.165  0.00  0.00    +0.000 HD
ENDBRANCH  13  14
ENDBRANCH   1  13
TORSDOF 3
ENDMDL
MODEL 2
REMARK VINA RESULT:      -6.5      1.769      3.165
REMARK  Name = 
REMARK  3 active torsions:
REMARK  status: ('A' for Active; 'I' for Inactive)
REMARK    1  A    between atoms: N_1  and  C_2
REMARK    2  A    between atoms: C_2  and  C_3
REMARK    3  A    between atoms: C_9  and  O_10
REMARK                            x       y       z     vdW  Elec       q    Type
REMARK                         _______ _______ _______ _____ _____    ______ ____
ROOT
ATOM      1  C   UNL     1       1.971   3.734  20.016  0.00  0.00    +0.000 C 
ATOM      2  C   UNL     1       1.386   3.693  18.579  0.00  0.00    +0.000 C 
ATOM      3  C   UNL     1       2.275   4.481  17.604  0.00  0.00    +0.000 C 
ATOM      4  C   UNL     1       2.367   5.942  18.076  0.00  0.00    +0.000 C 
ATOM      5  C   UNL     1       2.982   6.006  19.484  0.00  0.00    +0.000 C 
ATOM      6  C   UNL     1       4.385   5.381  19.450  0.00  0.00    +0.000 C 
ATOM      7  C   UNL     1       4.294   3.917  18.992  0.00  0.00    +0.000 C 
ATOM      8  C   UNL     1       3.678   3.858  17.585  0.00  0.00    +0.000 C 
ATOM      9  C   UNL     1       3.402   3.133  19.970  0.00  0.00    +0.000 C 
ATOM     10  C   UNL     1       2.093   5.215  20.461  0.00  0.00    +0.000 C 
ENDROOT
BRANCH   7  11
ATOM     11  O   UNL     1       5.589   3.333  18.976  0.00  0.00    +0.000 OA
ATOM     12  H   UNL     1       6.000   3.539  18.119  0.00  0.00    +0.000 HD
ENDBRANCH   7  11
BRANCH   1  13
ATOM     13  C   UNL     1       1.108   2.917  21.005  0.00  0.00    +0.000 C 
BRANCH  13  14
ATOM     14  N   UNL     1       1.826   2.496  22.203  0.00  0.00    +0.000 NA
ATOM     15  H   UNL     1       2.437   1.713  21.972  0.00  0.00    +0.000 HD
ATOM     16  H   UNL     1       1.168   2.136  22.893  0.00  0.00    +0.000 HD
ENDBRANCH  13  14
ENDBRANCH   1  13
TORSDOF 3
ENDMDL
MODEL 3
REMARK VINA RESULT:      -6.4      3.857      4.876
REMARK  Name = 
REMARK  3 active torsions:
REMARK  status: ('A' for Active; 'I' for Inactive)
REMARK    1  A    between atoms: N_1  and  C_2
REMARK    2  A    between atoms: C_2  and  C_3
REMARK    3  A    between atoms: C_9  and  O_10
REMARK                            x       y       z     vdW  Elec       q    Type
REMARK                         _______ _______ _______ _____ _____    ______ ____
ROOT
ATOM      1  C   UNL     1       6.849   5.692  18.190  0.00  0.00    +0.000 C 
ATOM      2  C   UNL     1       5.616   5.302  19.049  0.00  0.00    +0.000 C 
ATOM      3  C   UNL     1       4.394   5.026  18.157  0.00  0.00    +0.000 C 
ATOM      4  C   UNL     1       4.071   6.291  17.343  0.00  0.00    +0.000 C 
ATOM      5  C   UNL     1       5.267   6.671  16.456  0.00  0.00    +0.000 C 
ATOM      6  C   UNL     1       5.579   5.506  15.505  0.00  0.00    +0.000 C 
ATOM      7  C   UNL     1       5.917   4.245  16.316  0.00  0.00    +0.000 C 
ATOM      8  C   UNL     1       4.718   3.870  17.201  0.00  0.00    +0.000 C 
ATOM      9  C   UNL     1       7.139   4.526  17.207  0.00  0.00    +0.000 C 
ATOM     10  C   UNL     1       6.492   6.944  17.348  0.00  0.00    +0.000 C 
ENDROOT
BRANCH   7  11
ATOM     11  O   UNL     1       6.221   3.171  15.437  0.00  0.00    +0.000 OA
ATOM     12  H   UNL     1       5.420   2.628  15.339  0.00  0.00    +0.000 HD
ENDBRANCH   7  11
BRANCH   1  13
ATOM     13  C   UNL     1       8.097   5.939  19.068  0.00  0.00    +0.000 C 
BRANCH  13  14
ATOM     14  N   UNL     1       7.964   5.440  20.433  0.00  0.00    +0.000 NA
ATOM     15  H   UNL     1       7.860   6.228  21.071  0.00  0.00    +0.000 HD
ATOM     16  H   UNL     1       8.822   4.968  20.715  0.00  0.00    +0.000 HD
ENDBRANCH  13  14
ENDBRANCH   1  13
TORSDOF 3
ENDMDL
MODEL 4
REMARK VINA RESULT:      -6.4      1.063      1.063
REMARK  Name = 
REMARK  3 active torsions:
REMARK  status: ('A' for Active; 'I' for Inactive)
REMARK    1  A    between atoms: N_1  and  C_2
REMARK    2  A    between atoms: C_2  and  C_3
REMARK    3  A    between atoms: C_9  and  O_10
REMARK                            x       y       z     vdW  Elec       q    Type
REMARK                         _______ _______ _______ _____ _____    ______ ____
ROOT
ATOM      1  C   UNL     1       2.624   4.967  18.844  0.00  0.00    +0.000 C 
ATOM      2  C   UNL     1       1.670   4.916  20.067  0.00  0.00    +0.000 C 
ATOM      3  C   UNL     1       1.418   3.464  20.504  0.00  0.00    +0.000 C 
ATOM      4  C   UNL     1       0.789   2.689  19.333  0.00  0.00    +0.000 C 
ATOM      5  C   UNL     1       1.738   2.695  18.122  0.00  0.00    +0.000 C 
ATOM      6  C   UNL     1       3.068   2.042  18.523  0.00  0.00    +0.000 C 
ATOM      7  C   UNL     1       3.706   2.822  19.683  0.00  0.00    +0.000 C 
ATOM      8  C   UNL     1       2.754   2.814  20.889  0.00  0.00    +0.000 C 
ATOM      9  C   UNL     1       3.955   4.275  19.242  0.00  0.00    +0.000 C 
ATOM     10  C   UNL     1       1.992   4.149  17.687  0.00  0.00    +0.000 C 
ENDROOT
BRANCH   7  11
ATOM     11  O   UNL     1       4.945   2.229  20.043  0.00  0.00    +0.000 OA
ATOM     12  H   UNL     1       4.785   1.286  20.222  0.00  0.00    +0.000 HD
ENDBRANCH   7  11
BRANCH   1  13
ATOM     13  C   UNL     1       2.916   6.423  18.412  0.00  0.00    +0.000 C 
BRANCH  13  14
ATOM     14  N   UNL     1       3.994   6.541  17.435  0.00  0.00    +0.000 NA
ATOM     15  H   UNL     1       4.074   5.667  16.915  0.00  0.00    +0.000 HD
ATOM     16  H   UNL     1       4.885   6.658  17.915  0.00  0.00    +0.000 HD
ENDBRANCH  13  14
ENDBRANCH   1  13
TORSDOF 3
ENDMDL
MODEL 5
REMARK VINA RESULT:      -6.2      3.708      4.937
REMARK  Name = 
REMARK  3 active torsions:
REMARK  status: ('A' for Active; 'I' for Inactive)
REMARK    1  A    between atoms: N_1  and  C_2
REMARK    2  A    between atoms: C_2  and  C_3
REMARK    3  A    between atoms: C_9  and  O_10
REMARK                            x       y       z     vdW  Elec       q    Type
REMARK                         _______ _______ _______ _____ _____    ______ ____
ROOT
ATOM      1  C   UNL     1       6.842   5.646  18.102  0.00  0.00    +0.000 C 
ATOM      2  C   UNL     1       6.382   6.936  17.371  0.00  0.00    +0.000 C 
ATOM      3  C   UNL     1       5.146   6.659  16.501  0.00  0.00    +0.000 C 
ATOM      4  C   UNL     1       5.494   5.580  15.462  0.00  0.00    +0.000 C 
ATOM      5  C   UNL     1       5.915   4.280  16.167  0.00  0.00    +0.000 C 
ATOM      6  C   UNL     1       4.761   3.794  17.055  0.00  0.00    +0.000 C 
ATOM      7  C   UNL     1       4.421   4.864  18.105  0.00  0.00    +0.000 C 
ATOM      8  C   UNL     1       4.001   6.161  17.394  0.00  0.00    +0.000 C 
ATOM      9  C   UNL     1       5.661   5.138  18.972  0.00  0.00    +0.000 C 
ATOM     10  C   UNL     1       7.152   4.557  17.041  0.00  0.00    +0.000 C 
ENDROOT
BRANCH   7  11
ATOM     11  O   UNL     1       3.365   4.408  18.937  0.00  0.00    +0.000 OA
ATOM     12  H   UNL     1       3.033   3.570  18.569  0.00  0.00    +0.000 HD
ENDBRANCH   7  11
BRANCH   1  13
ATOM     13  C   UNL     1       8.065   5.913  19.010  0.00  0.00    +0.000 C 
BRANCH  13  14
ATOM     14  N   UNL     1       7.890   5.451  20.383  0.00  0.00    +0.000 NA
ATOM     15  H   UNL     1       6.995   4.969  20.464  0.00  0.00    +0.000 HD
ATOM     16  H   UNL     1       7.830   6.250  21.012  0.00  0.00    +0.000 HD
ENDBRANCH  13  14
ENDBRANCH   1  13
TORSDOF 3
ENDMDL
MODEL 6
REMARK VINA RESULT:      -6.1      1.108      1.455
REMARK  Name = 
REMARK  3 active torsions:
REMARK  status: ('A' for Active; 'I' for Inactive)
REMARK    1  A    between atoms: N_1  and  C_2
REMARK    2  A    between atoms: C_2  and  C_3
REMARK    3  A    between atoms: C_9  and  O_10
REMARK                            x       y       z     vdW  Elec       q    Type
REMARK                         _______ _______ _______ _____ _____    ______ ____
ROOT
ATOM      1  C   UNL     1       2.333   4.691  19.678  0.00  0.00    +0.000 C 
ATOM      2  C   UNL     1       1.959   3.305  20.266  0.00  0.00    +0.000 C 
ATOM      3  C   UNL     1       2.595   2.172  19.444  0.00  0.00    +0.000 C 
ATOM      4  C   UNL     1       2.093   2.263  17.993  0.00  0.00    +0.000 C 
ATOM      5  C   UNL     1       2.489   3.616  17.378  0.00  0.00    +0.000 C 
ATOM      6  C   UNL     1       4.018   3.755  17.410  0.00  0.00    +0.000 C 
ATOM      7  C   UNL     1       4.520   3.680  18.860  0.00  0.00    +0.000 C 
ATOM      8  C   UNL     1       4.122   2.326  19.469  0.00  0.00    +0.000 C 
ATOM      9  C   UNL     1       3.880   4.814  19.680  0.00  0.00    +0.000 C 
ATOM     10  C   UNL     1       1.855   4.751  18.203  0.00  0.00    +0.000 C 
ENDROOT
BRANCH   7  11
ATOM     11  O   UNL     1       5.933   3.825  18.892  0.00  0.00    +0.000 OA
ATOM     12  H   UNL     1       6.197   3.990  19.814  0.00  0.00    +0.000 HD
ENDBRANCH   7  11
BRANCH   1  13
ATOM     13  C   UNL     1       1.730   5.845  20.514  0.00  0.00    +0.000 C 
BRANCH  13  14
ATOM     14  N   UNL     1       2.316   7.149  20.223  0.00  0.00    +0.000 NA
ATOM     15  H   UNL     1       1.843   7.559  19.418  0.00  0.00    +0.000 HD
ATOM     16  H   UNL     1       3.289   7.037  19.943  0.00  0.00    +0.000 HD
ENDBRANCH  13  14
ENDBRANCH   1  13
TORSDOF 3
ENDMDL
MODEL 7
REMARK VINA RESULT:      -6.1      1.209      2.245
REMARK  Name = 
REMARK  3 active torsions:
REMARK  status: ('A' for Active; 'I' for Inactive)
REMARK    1  A    between atoms: N_1  and  C_2
REMARK    2  A    between atoms: C_2  and  C_3
REMARK    3  A    between atoms: C_9  and  O_10
REMARK                            x       y       z     vdW  Elec       q    Type
REMARK                         _______ _______ _______ _____ _____    ______ ____
ROOT
ATOM      1  C   UNL     1       2.598   5.088  19.259  0.00  0.00    +0.000 C 
ATOM      2  C   UNL     1       1.709   4.479  18.142  0.00  0.00    +0.000 C 
ATOM      3  C   UNL     1       1.706   2.944  18.221  0.00  0.00    +0.000 C 
ATOM      4  C   UNL     1       3.148   2.431  18.062  0.00  0.00    +0.000 C 
ATOM      5  C   UNL     1       4.038   2.993  19.183  0.00  0.00    +0.000 C 
ATOM      6  C   UNL     1       3.475   2.549  20.542  0.00  0.00    +0.000 C 
ATOM      7  C   UNL     1       2.040   3.073  20.710  0.00  0.00    +0.000 C 
ATOM      8  C   UNL     1       1.155   2.510  19.586  0.00  0.00    +0.000 C 
ATOM      9  C   UNL     1       2.047   4.610  20.629  0.00  0.00    +0.000 C 
ATOM     10  C   UNL     1       4.038   4.530  19.107  0.00  0.00    +0.000 C 
ENDROOT
BRANCH   7  11
ATOM     11  O   UNL     1       1.525   2.678  21.973  0.00  0.00    +0.000 OA
ATOM     12  H   UNL     1       0.588   2.442  21.854  0.00  0.00    +0.000 HD
ENDBRANCH   7  11
BRANCH   1  13
ATOM     13  C   UNL     1       2.585   6.634  19.217  0.00  0.00    +0.000 C 
BRANCH  13  14
ATOM     14  N   UNL     1       2.153   7.252  20.466  0.00  0.00    +0.000 NA
ATOM     15  H   UNL     1       1.211   7.624  20.350  0.00  0.00    +0.000 HD
ATOM     16  H   UNL     1       2.742   8.056  20.677  0.00  0.00    +0.000 HD
ENDBRANCH  13  14
ENDBRANCH   1  13
TORSDOF 3
ENDMDL
MODEL 8
REMARK VINA RESULT:      -6.1      2.281      3.599
REMARK  Name = 
REMARK  3 active torsions:
REMARK  status: ('A' for Active; 'I' for Inactive)
REMARK    1  A    between atoms: N_1  and  C_2
REMARK    2  A    between atoms: C_2  and  C_3
REMARK    3  A    between atoms: C_9  and  O_10
REMARK                            x       y       z     vdW  Elec       q    Type
REMARK                         _______ _______ _______ _____ _____    ______ ____
ROOT
ATOM      1  C   UNL     1       3.468   2.676  19.747  0.00  0.00    +0.000 C 
ATOM      2  C   UNL     1       2.543   2.213  18.590  0.00  0.00    +0.000 C 
ATOM      3  C   UNL     1       1.341   3.159  18.439  0.00  0.00    +0.000 C 
ATOM      4  C   UNL     1       0.545   3.174  19.755  0.00  0.00    +0.000 C 
ATOM      5  C   UNL     1       1.435   3.669  20.908  0.00  0.00    +0.000 C 
ATOM      6  C   UNL     1       1.934   5.085  20.586  0.00  0.00    +0.000 C 
ATOM      7  C   UNL     1       2.743   5.070  19.279  0.00  0.00    +0.000 C 
ATOM      8  C   UNL     1       1.849   4.575  18.131  0.00  0.00    +0.000 C 
ATOM      9  C   UNL     1       3.943   4.121  19.434  0.00  0.00    +0.000 C 
ATOM     10  C   UNL     1       2.640   2.723  21.058  0.00  0.00    +0.000 C 
ENDROOT
BRANCH   7  11
ATOM     11  O   UNL     1       3.219   6.376  18.989  0.00  0.00    +0.000 OA
ATOM     12  H   UNL     1       2.646   7.013  19.450  0.00  0.00    +0.000 HD
ENDBRANCH   7  11
BRANCH   1  13
ATOM     13  C   UNL     1       4.702   1.755  19.891  0.00  0.00    +0.000 C 
BRANCH  13  14
ATOM     14  N   UNL     1       5.190   1.637  21.261  0.00  0.00    +0.000 NA
ATOM     15  H   UNL     1       5.496   0.679  21.428  0.00  0.00    +0.000 HD
ATOM     16  H   UNL     1       4.427   1.800  21.916  0.00  0.00    +0.000 HD
ENDBRANCH  13  14
ENDBRANCH   1  13
TORSDOF 3
ENDMDL
MODEL 9
REMARK VINA RESULT:      -6.1      1.810      3.061
REMARK  Name = 
REMARK  3 active torsions:
REMARK  status: ('A' for Active; 'I' for Inactive)
REMARK    1  A    between atoms: N_1  and  C_2
REMARK    2  A    between atoms: C_2  and  C_3
REMARK    3  A    between atoms: C_9  and  O_10
REMARK                            x       y       z     vdW  Elec       q    Type
REMARK                         _______ _______ _______ _____ _____    ______ ____
ROOT
ATOM      1  C   UNL     1       2.709   3.140  20.195  0.00  0.00    +0.000 C 
ATOM      2  C   UNL     1       2.013   2.368  19.042  0.00  0.00    +0.000 C 
ATOM      3  C   UNL     1       2.310   3.028  17.685  0.00  0.00    +0.000 C 
ATOM      4  C   UNL     1       1.799   4.479  17.711  0.00  0.00    +0.000 C 
ATOM      5  C   UNL     1       2.506   5.271  18.823  0.00  0.00    +0.000 C 
ATOM      6  C   UNL     1       4.020   5.258  18.565  0.00  0.00    +0.000 C 
ATOM      7  C   UNL     1       4.536   3.810  18.555  0.00  0.00    +0.000 C 
ATOM      8  C   UNL     1       3.825   3.023  17.442  0.00  0.00    +0.000 C 
ATOM      9  C   UNL     1       4.235   3.153  19.913  0.00  0.00    +0.000 C 
ATOM     10  C   UNL     1       2.212   4.609  20.181  0.00  0.00    +0.000 C 
ENDROOT
BRANCH   7  11
ATOM     11  O   UNL     1       5.938   3.798  18.333  0.00  0.00    +0.000 OA
ATOM     12  H   UNL     1       6.118   4.301  17.520  0.00  0.00    +0.000 HD
ENDBRANCH   7  11
BRANCH   1  13
ATOM     13  C   UNL     1       2.450   2.469  21.564  0.00  0.00    +0.000 C 
BRANCH  13  14
ATOM     14  N   UNL     1       1.082   2.627  22.047  0.00  0.00    +0.000 NA
ATOM     15  H   UNL     1       0.718   1.718  22.330  0.00  0.00    +0.000 HD
ATOM     16  H   UNL     1       0.481   2.940  21.286  0.00  0.00    +0.000 HD
ENDBRANCH  13  14
ENDBRANCH   1  13
TORSDOF 3
ENDMDL
