MODEL 1
REMARK VINA RESULT:      -8.1      0.000      0.000
REMARK  Name = 
REMARK  6 active torsions:
REMARK  status: ('A' for Active; 'I' for Inactive)
REMARK    1  A    between atoms: C_1  and  C_2
REMARK    2  A    between atoms: C_2  and  C_4
REMARK    3  A    between atoms: C_8  and  N_9
REMARK    4  A    between atoms: C_10  and  C_12
REMARK    5  A    between atoms: C_13  and  N_14
REMARK    6  A    between atoms: N_27  and  C_28
REMARK                            x       y       z     vdW  Elec       q    Type
REMARK                         _______ _______ _______ _____ _____    ______ ____
ROOT
ATOM      1  C   UNL     1       2.561   6.743  18.708  0.00  0.00    +0.000 A 
ATOM      2  C   UNL     1       2.748   5.382  18.462  0.00  0.00    +0.000 A 
ATOM      3  C   UNL     1       3.721   5.218  17.446  0.00  0.00    +0.000 A 
ATOM      4  C   UNL     1       4.274   4.086  16.817  0.00  0.00    +0.000 A 
ATOM      5  C   UNL     1       5.382   4.248  16.000  0.00  0.00    +0.000 A 
ATOM      6  F   UNL     1       5.929   3.176  15.415  0.00  0.00    +0.000 F 
ATOM      7  C   UNL     1       5.951   5.501  15.805  0.00  0.00    +0.000 A 
ATOM      8  C   UNL     1       5.363   6.648  16.359  0.00  0.00    +0.000 A 
ATOM      9  C   UNL     1       4.211   6.487  17.151  0.00  0.00    +0.000 A 
ATOM     10  N   UNL     1       3.356   7.391  17.771  0.00  0.00    +0.000 N 
ATOM     11  C   UNL     1       3.344   8.808  17.480  0.00  0.00    +0.000 C 
ENDROOT
BRANCH   2  12
ATOM     12  N   UNL     1       2.280   4.322  19.228  0.00  0.00    +0.000 N 
ATOM     13  C   UNL     1       1.083   3.604  18.852  0.00  0.00    +0.000 C 
ATOM     14  C   UNL     1       0.943   2.557  19.929  0.00  0.00    +0.000 C 
ATOM     15  C   UNL     1       2.384   2.230  20.292  0.00  0.00    +0.000 C 
ATOM     16  C   UNL     1       3.137   3.501  19.968  0.00  0.00    +0.000 C 
ATOM     17  O   UNL     1       4.288   3.731  20.308  0.00  0.00    +0.000 OA
ENDBRANCH   2  12
BRANCH   1  19
ATOM     18  N   UNL     1       1.579   8.648  19.928  0.00  0.00    +0.000 N 
ATOM     19  C   UNL     1       1.855   7.289  19.870  0.00  0.00    +0.000 C 
ATOM     20  O   UNL     1       1.562   6.523  20.795  0.00  0.00    +0.000 OA
ATOM     21  H   UNL     1       1.984   9.259  19.243  0.00  0.00    +0.000 HD
BRANCH  18  26
ATOM     22  C   UNL     1      -0.880  10.920  21.604  0.00  0.00    +0.000 A 
ATOM     23  C   UNL     1      -0.754  10.527  22.940  0.00  0.00    +0.000 A 
ATOM     24  C   UNL     1       0.110   9.493  23.276  0.00  0.00    +0.000 A 
ATOM     25  C   UNL     1       0.867   8.869  22.285  0.00  0.00    +0.000 A 
ATOM     26  C   UNL     1       0.787   9.258  20.943  0.00  0.00    +0.000 A 
ATOM     27  C   UNL     1      -0.123  10.272  20.603  0.00  0.00    +0.000 A 
BRANCH  22  29
ATOM     28  C   UNL     1      -2.713  12.619  22.280  0.00  0.00    +0.000 C 
ATOM     29  C   UNL     1      -1.795  12.041  21.227  0.00  0.00    +0.000 C 
ATOM     30  O   UNL     1      -1.781  12.483  20.080  0.00  0.00    +0.000 OA
ENDBRANCH  22  29
ENDBRANCH  18  26
ENDBRANCH   1  19
TORSDOF 4
ENDMDL
MODEL 2
REMARK VINA RESULT:      -8.0      0.894      1.120
REMARK  Name = 
REMARK  6 active torsions:
REMARK  status: ('A' for Active; 'I' for Inactive)
REMARK    1  A    between atoms: C_1  and  C_2
REMARK    2  A    between atoms: C_2  and  C_4
REMARK    3  A    between atoms: C_8  and  N_9
REMARK    4  A    between atoms: C_10  and  C_12
REMARK    5  A    between atoms: C_13  and  N_14
REMARK    6  A    between atoms: N_27  and  C_28
REMARK                            x       y       z     vdW  Elec       q    Type
REMARK                         _______ _______ _______ _____ _____    ______ ____
ROOT
ATOM      1  C   UNL     1       2.452   6.686  18.834  0.00  0.00    +0.000 A 
ATOM      2  C   UNL     1       2.782   5.338  18.685  0.00  0.00    +0.000 A 
ATOM      3  C   UNL     1       3.748   5.202  17.657  0.00  0.00    +0.000 A 
ATOM      4  C   UNL     1       4.409   4.091  17.100  0.00  0.00    +0.000 A 
ATOM      5  C   UNL     1       5.476   4.308  16.243  0.00  0.00    +0.000 A 
ATOM      6  F   UNL     1       6.127   3.259  15.725  0.00  0.00    +0.000 F 
ATOM      7  C   UNL     1       5.900   5.596  15.939  0.00  0.00    +0.000 A 
ATOM      8  C   UNL     1       5.200   6.712  16.420  0.00  0.00    +0.000 A 
ATOM      9  C   UNL     1       4.088   6.489  17.255  0.00  0.00    +0.000 A 
ATOM     10  N   UNL     1       3.151   7.341  17.828  0.00  0.00    +0.000 N 
ATOM     11  C   UNL     1       2.978   8.722  17.432  0.00  0.00    +0.000 C 
ENDROOT
BRANCH   2  12
ATOM     12  N   UNL     1       2.448   4.297  19.541  0.00  0.00    +0.000 N 
ATOM     13  C   UNL     1       2.753   4.366  20.952  0.00  0.00    +0.000 C 
ATOM     14  C   UNL     1       2.228   3.061  21.496  0.00  0.00    +0.000 C 
ATOM     15  C   UNL     1       1.018   2.777  20.619  0.00  0.00    +0.000 C 
ATOM     16  C   UNL     1       1.342   3.471  19.315  0.00  0.00    +0.000 C 
ATOM     17  O   UNL     1       0.725   3.313  18.273  0.00  0.00    +0.000 OA
ENDBRANCH   2  12
BRANCH   1  19
ATOM     18  N   UNL     1       1.593   8.617  20.105  0.00  0.00    +0.000 N 
ATOM     19  C   UNL     1       1.712   7.241  19.970  0.00  0.00    +0.000 C 
ATOM     20  O   UNL     1       1.249   6.461  20.809  0.00  0.00    +0.000 OA
ATOM     21  H   UNL     1       2.127   9.215  19.501  0.00  0.00    +0.000 HD
BRANCH  18  26
ATOM     22  C   UNL     1      -0.855  10.961  21.694  0.00  0.00    +0.000 A 
ATOM     23  C   UNL     1      -0.772  10.581  23.037  0.00  0.00    +0.000 A 
ATOM     24  C   UNL     1       0.060   9.531  23.405  0.00  0.00    +0.000 A 
ATOM     25  C   UNL     1       0.827   8.880  22.440  0.00  0.00    +0.000 A 
ATOM     26  C   UNL     1       0.790   9.256  21.093  0.00  0.00    +0.000 A 
ATOM     27  C   UNL     1      -0.089  10.286  20.719  0.00  0.00    +0.000 A 
BRANCH  22  29
ATOM     28  C   UNL     1      -2.858  12.521  22.202  0.00  0.00    +0.000 C 
ATOM     29  C   UNL     1      -1.735  12.099  21.282  0.00  0.00    +0.000 C 
ATOM     30  O   UNL     1      -1.529  12.677  20.218  0.00  0.00    +0.000 OA
ENDBRANCH  22  29
ENDBRANCH  18  26
ENDBRANCH   1  19
TORSDOF 4
ENDMDL
MODEL 3
REMARK VINA RESULT:      -7.8      2.520      4.458
REMARK  Name = 
REMARK  6 active torsions:
REMARK  status: ('A' for Active; 'I' for Inactive)
REMARK    1  A    between atoms: C_1  and  C_2
REMARK    2  A    between atoms: C_2  and  C_4
REMARK    3  A    between atoms: C_8  and  N_9
REMARK    4  A    between atoms: C_10  and  C_12
REMARK    5  A    between atoms: C_13  and  N_14
REMARK    6  A    between atoms: N_27  and  C_28
REMARK                            x       y       z     vdW  Elec       q    Type
REMARK                         _______ _______ _______ _____ _____    ______ ____
ROOT
ATOM      1  C   UNL     1       4.846   5.101  17.185  0.00  0.00    +0.000 A 
ATOM      2  C   UNL     1       6.105   5.441  16.685  0.00  0.00    +0.000 A 
ATOM      3  C   UNL     1       6.288   4.830  15.420  0.00  0.00    +0.000 A 
ATOM      4  C   UNL     1       7.351   4.830  14.497  0.00  0.00    +0.000 A 
ATOM      5  C   UNL     1       7.139   4.306  13.232  0.00  0.00    +0.000 A 
ATOM      6  F   UNL     1       8.136   4.321  12.339  0.00  0.00    +0.000 F 
ATOM      7  C   UNL     1       5.900   3.796  12.866  0.00  0.00    +0.000 A 
ATOM      8  C   UNL     1       4.855   3.714  13.800  0.00  0.00    +0.000 A 
ATOM      9  C   UNL     1       5.087   4.205  15.099  0.00  0.00    +0.000 A 
ATOM     10  N   UNL     1       4.320   4.211  16.258  0.00  0.00    +0.000 N 
ATOM     11  C   UNL     1       3.125   3.411  16.430  0.00  0.00    +0.000 C 
ENDROOT
BRANCH   2  12
ATOM     12  N   UNL     1       6.965   6.413  17.179  0.00  0.00    +0.000 N 
ATOM     13  C   UNL     1       6.655   7.818  17.046  0.00  0.00    +0.000 C 
ATOM     14  C   UNL     1       7.824   8.506  17.705  0.00  0.00    +0.000 C 
ATOM     15  C   UNL     1       8.220   7.540  18.813  0.00  0.00    +0.000 C 
ATOM     16  C   UNL     1       7.781   6.190  18.292  0.00  0.00    +0.000 C 
ATOM     17  O   UNL     1       8.103   5.119  18.785  0.00  0.00    +0.000 OA
ENDBRANCH   2  12
BRANCH   1  19
ATOM     18  N   UNL     1       3.169   6.667  18.088  0.00  0.00    +0.000 N 
ATOM     19  C   UNL     1       4.195   5.762  18.319  0.00  0.00    +0.000 C 
ATOM     20  O   UNL     1       4.614   5.525  19.458  0.00  0.00    +0.000 OA
ATOM     21  H   UNL     1       2.977   6.959  17.148  0.00  0.00    +0.000 HD
BRANCH  18  26
ATOM     22  C   UNL     1       1.148   9.185  19.982  0.00  0.00    +0.000 A 
ATOM     23  C   UNL     1       0.876   8.490  21.164  0.00  0.00    +0.000 A 
ATOM     24  C   UNL     1       1.326   7.185  21.315  0.00  0.00    +0.000 A 
ATOM     25  C   UNL     1       2.069   6.584  20.301  0.00  0.00    +0.000 A 
ATOM     26  C   UNL     1       2.384   7.262  19.118  0.00  0.00    +0.000 A 
ATOM     27  C   UNL     1       1.885   8.564  18.951  0.00  0.00    +0.000 A 
BRANCH  22  29
ATOM     28  C   UNL     1      -0.418  10.883  18.810  0.00  0.00    +0.000 C 
ATOM     29  C   UNL     1       0.682  10.596  19.808  0.00  0.00    +0.000 C 
ATOM     30  O   UNL     1       1.185  11.494  20.479  0.00  0.00    +0.000 OA
ENDBRANCH  22  29
ENDBRANCH  18  26
ENDBRANCH   1  19
TORSDOF 4
ENDMDL
MODEL 4
REMARK VINA RESULT:      -7.7      4.402      9.410
REMARK  Name = 
REMARK  6 active torsions:
REMARK  status: ('A' for Active; 'I' for Inactive)
REMARK    1  A    between atoms: C_1  and  C_2
REMARK    2  A    between atoms: C_2  and  C_4
REMARK    3  A    between atoms: C_8  and  N_9
REMARK    4  A    between atoms: C_10  and  C_12
REMARK    5  A    between atoms: C_13  and  N_14
REMARK    6  A    between atoms: N_27  and  C_28
REMARK                            x       y       z     vdW  Elec       q    Type
REMARK                         _______ _______ _______ _____ _____    ______ ____
ROOT
ATOM      1  C   UNL     1       0.190  11.638  21.508  0.00  0.00    +0.000 A 
ATOM      2  C   UNL     1       0.520  12.883  20.969  0.00  0.00    +0.000 A 
ATOM      3  C   UNL     1      -0.152  13.900  21.690  0.00  0.00    +0.000 A 
ATOM      4  C   UNL     1      -0.186  15.303  21.570  0.00  0.00    +0.000 A 
ATOM      5  C   UNL     1      -0.776  16.047  22.579  0.00  0.00    +0.000 A 
ATOM      6  F   UNL     1      -0.794  17.382  22.487  0.00  0.00    +0.000 F 
ATOM      7  C   UNL     1      -1.322  15.430  23.699  0.00  0.00    +0.000 A 
ATOM      8  C   UNL     1      -1.369  14.031  23.794  0.00  0.00    +0.000 A 
ATOM      9  C   UNL     1      -0.809  13.276  22.746  0.00  0.00    +0.000 A 
ATOM     10  N   UNL     1      -0.754  11.910  22.489  0.00  0.00    +0.000 N 
ATOM     11  C   UNL     1      -1.559  10.933  23.190  0.00  0.00    +0.000 C 
ENDROOT
BRANCH   2  12
ATOM     12  N   UNL     1       1.528  13.156  20.053  0.00  0.00    +0.000 N 
ATOM     13  C   UNL     1       1.216  13.565  18.703  0.00  0.00    +0.000 C 
ATOM     14  C   UNL     1       2.570  13.757  18.066  0.00  0.00    +0.000 C 
ATOM     15  C   UNL     1       3.434  14.247  19.219  0.00  0.00    +0.000 C 
ATOM     16  C   UNL     1       2.776  13.653  20.444  0.00  0.00    +0.000 C 
ATOM     17  O   UNL     1       3.277  13.632  21.558  0.00  0.00    +0.000 OA
ENDBRANCH   2  12
BRANCH   1  19
ATOM     18  N   UNL     1       0.667   9.734  20.016  0.00  0.00    +0.000 N 
ATOM     19  C   UNL     1       0.899  10.390  21.216  0.00  0.00    +0.000 C 
ATOM     20  O   UNL     1       1.659   9.929  22.076  0.00  0.00    +0.000 OA
ATOM     21  H   UNL     1      -0.081  10.047  19.424  0.00  0.00    +0.000 HD
BRANCH  18  26
ATOM     22  C   UNL     1       2.005   6.241  19.861  0.00  0.00    +0.000 A 
ATOM     23  C   UNL     1       2.872   6.325  18.767  0.00  0.00    +0.000 A 
ATOM     24  C   UNL     1       2.982   7.518  18.064  0.00  0.00    +0.000 A 
ATOM     25  C   UNL     1       2.249   8.633  18.468  0.00  0.00    +0.000 A 
ATOM     26  C   UNL     1       1.396   8.591  19.577  0.00  0.00    +0.000 A 
ATOM     27  C   UNL     1       1.253   7.369  20.254  0.00  0.00    +0.000 A 
BRANCH  22  29
ATOM     28  C   UNL     1       0.885   3.929  20.183  0.00  0.00    +0.000 C 
ATOM     29  C   UNL     1       1.885   4.968  20.637  0.00  0.00    +0.000 C 
ATOM     30  O   UNL     1       2.602   4.779  21.617  0.00  0.00    +0.000 OA
ENDBRANCH  22  29
ENDBRANCH  18  26
ENDBRANCH   1  19
TORSDOF 4
ENDMDL
MODEL 5
REMARK VINA RESULT:      -7.7      3.796      8.862
REMARK  Name = 
REMARK  6 active torsions:
REMARK  status: ('A' for Active; 'I' for Inactive)
REMARK    1  A    between atoms: C_1  and  C_2
REMARK    2  A    between atoms: C_2  and  C_4
REMARK    3  A    between atoms: C_8  and  N_9
REMARK    4  A    between atoms: C_10  and  C_12
REMARK    5  A    between atoms: C_13  and  N_14
REMARK    6  A    between atoms: N_27  and  C_28
REMARK                            x       y       z     vdW  Elec       q    Type
REMARK                         _______ _______ _______ _____ _____    ______ ____
ROOT
ATOM      1  C   UNL     1       0.131   9.837  19.861  0.00  0.00    +0.000 A 
ATOM      2  C   UNL     1      -1.045  10.469  19.451  0.00  0.00    +0.000 A 
ATOM      3  C   UNL     1      -1.509  11.313  20.490  0.00  0.00    +0.000 A 
ATOM      4  C   UNL     1      -2.629  12.159  20.613  0.00  0.00    +0.000 A 
ATOM      5  C   UNL     1      -2.691  13.034  21.686  0.00  0.00    +0.000 A 
ATOM      6  F   UNL     1      -3.740  13.858  21.802  0.00  0.00    +0.000 F 
ATOM      7  C   UNL     1      -1.668  13.091  22.625  0.00  0.00    +0.000 A 
ATOM      8  C   UNL     1      -0.587  12.199  22.560  0.00  0.00    +0.000 A 
ATOM      9  C   UNL     1      -0.548  11.279  21.495  0.00  0.00    +0.000 A 
ATOM     10  N   UNL     1       0.312  10.234  21.179  0.00  0.00    +0.000 N 
ATOM     11  C   UNL     1       1.275   9.683  22.109  0.00  0.00    +0.000 C 
ENDROOT
BRANCH   2  12
ATOM     12  N   UNL     1      -1.572  10.502  18.167  0.00  0.00    +0.000 N 
ATOM     13  C   UNL     1      -2.627   9.598  17.772  0.00  0.00    +0.000 C 
ATOM     14  C   UNL     1      -2.897   9.969  16.335  0.00  0.00    +0.000 C 
ATOM     15  C   UNL     1      -2.626  11.466  16.302  0.00  0.00    +0.000 C 
ATOM     16  C   UNL     1      -1.619  11.678  17.411  0.00  0.00    +0.000 C 
ATOM     17  O   UNL     1      -0.983  12.707  17.582  0.00  0.00    +0.000 OA
ENDBRANCH   2  12
BRANCH   1  19
ATOM     18  N   UNL     1       1.768   8.039  19.451  0.00  0.00    +0.000 N 
ATOM     19  C   UNL     1       1.045   9.120  18.968  0.00  0.00    +0.000 C 
ATOM     20  O   UNL     1       1.180   9.532  17.810  0.00  0.00    +0.000 OA
ATOM     21  H   UNL     1       1.759   7.846  20.436  0.00  0.00    +0.000 HD
BRANCH  18  26
ATOM     22  C   UNL     1       3.119   4.966  17.794  0.00  0.00    +0.000 A 
ATOM     23  C   UNL     1       4.206   5.488  17.085  0.00  0.00    +0.000 A 
ATOM     24  C   UNL     1       4.464   6.852  17.127  0.00  0.00    +0.000 A 
ATOM     25  C   UNL     1       3.656   7.690  17.894  0.00  0.00    +0.000 A 
ATOM     26  C   UNL     1       2.579   7.195  18.639  0.00  0.00    +0.000 A 
ATOM     27  C   UNL     1       2.295   5.822  18.556  0.00  0.00    +0.000 A 
BRANCH  22  29
ATOM     28  C   UNL     1       3.793   2.559  18.473  0.00  0.00    +0.000 C 
ATOM     29  C   UNL     1       2.836   3.497  17.772  0.00  0.00    +0.000 C 
ATOM     30  O   UNL     1       1.832   3.076  17.202  0.00  0.00    +0.000 OA
ENDBRANCH  22  29
ENDBRANCH  18  26
ENDBRANCH   1  19
TORSDOF 4
ENDMDL
MODEL 6
REMARK VINA RESULT:      -7.6      6.501      8.730
REMARK  Name = 
REMARK  6 active torsions:
REMARK  status: ('A' for Active; 'I' for Inactive)
REMARK    1  A    between atoms: C_1  and  C_2
REMARK    2  A    between atoms: C_2  and  C_4
REMARK    3  A    between atoms: C_8  and  N_9
REMARK    4  A    between atoms: C_10  and  C_12
REMARK    5  A    between atoms: C_13  and  N_14
REMARK    6  A    between atoms: N_27  and  C_28
REMARK                            x       y       z     vdW  Elec       q    Type
REMARK                         _______ _______ _______ _____ _____    ______ ____
ROOT
ATOM      1  C   UNL     1      -3.379  12.616  19.911  0.00  0.00    +0.000 A 
ATOM      2  C   UNL     1      -2.339  11.849  19.382  0.00  0.00    +0.000 A 
ATOM      3  C   UNL     1      -2.791  11.187  18.214  0.00  0.00    +0.000 A 
ATOM      4  C   UNL     1      -2.172  10.302  17.311  0.00  0.00    +0.000 A 
ATOM      5  C   UNL     1      -2.822   9.993  16.126  0.00  0.00    +0.000 A 
ATOM      6  F   UNL     1      -2.234   9.170  15.250  0.00  0.00    +0.000 F 
ATOM      7  C   UNL     1      -4.058  10.548  15.821  0.00  0.00    +0.000 A 
ATOM      8  C   UNL     1      -4.723  11.367  16.746  0.00  0.00    +0.000 A 
ATOM      9  C   UNL     1      -4.082  11.643  17.969  0.00  0.00    +0.000 A 
ATOM     10  N   UNL     1      -4.477  12.334  19.109  0.00  0.00    +0.000 N 
ATOM     11  C   UNL     1      -5.847  12.719  19.375  0.00  0.00    +0.000 C 
ENDROOT
BRANCH   2  12
ATOM     12  N   UNL     1      -1.000  11.893  19.748  0.00  0.00    +0.000 N 
ATOM     13  C   UNL     1      -0.363  10.760  20.379  0.00  0.00    +0.000 C 
ATOM     14  C   UNL     1       1.056  11.222  20.596  0.00  0.00    +0.000 C 
ATOM     15  C   UNL     1       1.312  12.140  19.409  0.00  0.00    +0.000 C 
ATOM     16  C   UNL     1      -0.062  12.662  19.051  0.00  0.00    +0.000 C 
ATOM     17  O   UNL     1      -0.273  13.590  18.285  0.00  0.00    +0.000 OA
ENDBRANCH   2  12
BRANCH   1  19
ATOM     18  N   UNL     1      -3.734  13.442  22.207  0.00  0.00    +0.000 N 
ATOM     19  C   UNL     1      -3.214  13.648  20.937  0.00  0.00    +0.000 C 
ATOM     20  O   UNL     1      -2.649  14.703  20.627  0.00  0.00    +0.000 OA
ATOM     21  H   UNL     1      -4.332  12.652  22.368  0.00  0.00    +0.000 HD
BRANCH  18  26
ATOM     22  C   UNL     1      -4.230  16.226  24.660  0.00  0.00    +0.000 A 
ATOM     23  C   UNL     1      -3.085  16.104  25.453  0.00  0.00    +0.000 A 
ATOM     24  C   UNL     1      -2.178  15.083  25.200  0.00  0.00    +0.000 A 
ATOM     25  C   UNL     1      -2.397  14.203  24.142  0.00  0.00    +0.000 A 
ATOM     26  C   UNL     1      -3.517  14.317  23.310  0.00  0.00    +0.000 A 
ATOM     27  C   UNL     1      -4.456  15.321  23.600  0.00  0.00    +0.000 A 
BRANCH  22  29
ATOM     28  C   UNL     1      -6.307  17.572  23.896  0.00  0.00    +0.000 C 
ATOM     29  C   UNL     1      -5.211  17.328  24.909  0.00  0.00    +0.000 C 
ATOM     30  O   UNL     1      -5.123  18.006  25.930  0.00  0.00    +0.000 OA
ENDBRANCH  22  29
ENDBRANCH  18  26
ENDBRANCH   1  19
TORSDOF 4
ENDMDL
MODEL 7
REMARK VINA RESULT:      -7.6      3.525      8.460
REMARK  Name = 
REMARK  6 active torsions:
REMARK  status: ('A' for Active; 'I' for Inactive)
REMARK    1  A    between atoms: C_1  and  C_2
REMARK    2  A    between atoms: C_2  and  C_4
REMARK    3  A    between atoms: C_8  and  N_9
REMARK    4  A    between atoms: C_10  and  C_12
REMARK    5  A    between atoms: C_13  and  N_14
REMARK    6  A    between atoms: N_27  and  C_28
REMARK                            x       y       z     vdW  Elec       q    Type
REMARK                         _______ _______ _______ _____ _____    ______ ____
ROOT
ATOM      1  C   UNL     1       4.170   5.740  17.650  0.00  0.00    +0.000 A 
ATOM      2  C   UNL     1       3.293   5.202  18.594  0.00  0.00    +0.000 A 
ATOM      3  C   UNL     1       2.628   6.254  19.270  0.00  0.00    +0.000 A 
ATOM      4  C   UNL     1       1.667   6.281  20.299  0.00  0.00    +0.000 A 
ATOM      5  C   UNL     1       1.041   7.480  20.599  0.00  0.00    +0.000 A 
ATOM      6  F   UNL     1       0.110   7.512  21.561  0.00  0.00    +0.000 F 
ATOM      7  C   UNL     1       1.342   8.641  19.898  0.00  0.00    +0.000 A 
ATOM      8  C   UNL     1       2.355   8.648  18.927  0.00  0.00    +0.000 A 
ATOM      9  C   UNL     1       3.022   7.438  18.654  0.00  0.00    +0.000 A 
ATOM     10  N   UNL     1       4.094   7.115  17.832  0.00  0.00    +0.000 N 
ATOM     11  C   UNL     1       4.971   8.101  17.237  0.00  0.00    +0.000 C 
ENDROOT
BRANCH   2  12
ATOM     12  N   UNL     1       2.907   3.873  18.713  0.00  0.00    +0.000 N 
ATOM     13  C   UNL     1       3.277   3.093  19.872  0.00  0.00    +0.000 C 
ATOM     14  C   UNL     1       2.665   1.741  19.602  0.00  0.00    +0.000 C 
ATOM     15  C   UNL     1       1.398   2.077  18.829  0.00  0.00    +0.000 C 
ATOM     16  C   UNL     1       1.725   3.386  18.146  0.00  0.00    +0.000 C 
ATOM     17  O   UNL     1       1.052   3.894  17.262  0.00  0.00    +0.000 OA
ENDBRANCH   2  12
BRANCH   1  19
ATOM     18  N   UNL     1       5.023   5.568  15.342  0.00  0.00    +0.000 N 
ATOM     19  C   UNL     1       4.811   4.975  16.578  0.00  0.00    +0.000 C 
ATOM     20  O   UNL     1       5.109   3.794  16.795  0.00  0.00    +0.000 OA
ATOM     21  H   UNL     1       4.613   6.465  15.155  0.00  0.00    +0.000 HD
BRANCH  18  26
ATOM     22  C   UNL     1       5.819   3.448  12.361  0.00  0.00    +0.000 A 
ATOM     23  C   UNL     1       7.185   3.698  12.200  0.00  0.00    +0.000 A 
ATOM     24  C   UNL     1       7.827   4.591  13.049  0.00  0.00    +0.000 A 
ATOM     25  C   UNL     1       7.114   5.213  14.072  0.00  0.00    +0.000 A 
ATOM     26  C   UNL     1       5.752   4.962  14.280  0.00  0.00    +0.000 A 
ATOM     27  C   UNL     1       5.098   4.095  13.389  0.00  0.00    +0.000 A 
BRANCH  22  29
ATOM     28  C   UNL     1       3.770   2.863  10.889  0.00  0.00    +0.000 C 
ATOM     29  C   UNL     1       5.114   2.479  11.465  0.00  0.00    +0.000 C 
ATOM     30  O   UNL     1       5.637   1.399  11.201  0.00  0.00    +0.000 OA
ENDBRANCH  22  29
ENDBRANCH  18  26
ENDBRANCH   1  19
TORSDOF 4
ENDMDL
MODEL 8
REMARK VINA RESULT:      -7.6      4.405      9.620
REMARK  Name = 
REMARK  6 active torsions:
REMARK  status: ('A' for Active; 'I' for Inactive)
REMARK    1  A    between atoms: C_1  and  C_2
REMARK    2  A    between atoms: C_2  and  C_4
REMARK    3  A    between atoms: C_8  and  N_9
REMARK    4  A    between atoms: C_10  and  C_12
REMARK    5  A    between atoms: C_13  and  N_14
REMARK    6  A    between atoms: N_27  and  C_28
REMARK                            x       y       z     vdW  Elec       q    Type
REMARK                         _______ _______ _______ _____ _____    ______ ____
ROOT
ATOM      1  C   UNL     1       0.052  11.972  21.499  0.00  0.00    +0.000 A 
ATOM      2  C   UNL     1       0.281  13.270  21.041  0.00  0.00    +0.000 A 
ATOM      3  C   UNL     1      -0.408  14.189  21.871  0.00  0.00    +0.000 A 
ATOM      4  C   UNL     1      -0.527  15.592  21.861  0.00  0.00    +0.000 A 
ATOM      5  C   UNL     1      -1.103  16.222  22.952  0.00  0.00    +0.000 A 
ATOM      6  F   UNL     1      -1.202  17.557  22.964  0.00  0.00    +0.000 F 
ATOM      7  C   UNL     1      -1.549  15.493  24.048  0.00  0.00    +0.000 A 
ATOM      8  C   UNL     1      -1.512  14.091  24.038  0.00  0.00    +0.000 A 
ATOM      9  C   UNL     1      -0.968  13.450  22.908  0.00  0.00    +0.000 A 
ATOM     10  N   UNL     1      -0.850  12.113  22.545  0.00  0.00    +0.000 N 
ATOM     11  C   UNL     1      -1.559  11.039  23.209  0.00  0.00    +0.000 C 
ENDROOT
BRANCH   2  12
ATOM     12  N   UNL     1       1.219  13.671  20.099  0.00  0.00    +0.000 N 
ATOM     13  C   UNL     1       2.615  13.809  20.450  0.00  0.00    +0.000 C 
ATOM     14  C   UNL     1       3.265  14.248  19.162  0.00  0.00    +0.000 C 
ATOM     15  C   UNL     1       2.437  13.548  18.094  0.00  0.00    +0.000 C 
ATOM     16  C   UNL     1       1.078  13.383  18.737  0.00  0.00    +0.000 C 
ATOM     17  O   UNL     1       0.064  13.054  18.141  0.00  0.00    +0.000 OA
ENDBRANCH   2  12
BRANCH   1  19
ATOM     18  N   UNL     1       0.601  10.256  19.815  0.00  0.00    +0.000 N 
ATOM     19  C   UNL     1       0.814  10.794  21.076  0.00  0.00    +0.000 C 
ATOM     20  O   UNL     1       1.600  10.281  21.881  0.00  0.00    +0.000 OA
ATOM     21  H   UNL     1      -0.164  10.594  19.262  0.00  0.00    +0.000 HD
BRANCH  18  26
ATOM     22  C   UNL     1       2.269   6.928  19.413  0.00  0.00    +0.000 A 
ATOM     23  C   UNL     1       2.955   7.106  18.207  0.00  0.00    +0.000 A 
ATOM     24  C   UNL     1       2.834   8.304  17.516  0.00  0.00    +0.000 A 
ATOM     25  C   UNL     1       2.053   9.333  18.039  0.00  0.00    +0.000 A 
ATOM     26  C   UNL     1       1.377   9.199  19.258  0.00  0.00    +0.000 A 
ATOM     27  C   UNL     1       1.465   7.968  19.928  0.00  0.00    +0.000 A 
BRANCH  22  29
ATOM     28  C   UNL     1       3.428   4.634  19.731  0.00  0.00    +0.000 C 
ATOM     29  C   UNL     1       2.398   5.648  20.177  0.00  0.00    +0.000 C 
ATOM     30  O   UNL     1       1.683   5.444  21.154  0.00  0.00    +0.000 OA
ENDBRANCH  22  29
ENDBRANCH  18  26
ENDBRANCH   1  19
TORSDOF 4
ENDMDL
MODEL 9
REMARK VINA RESULT:      -7.5      5.991      8.335
REMARK  Name = 
REMARK  6 active torsions:
REMARK  status: ('A' for Active; 'I' for Inactive)
REMARK    1  A    between atoms: C_1  and  C_2
REMARK    2  A    between atoms: C_2  and  C_4
REMARK    3  A    between atoms: C_8  and  N_9
REMARK    4  A    between atoms: C_10  and  C_12
REMARK    5  A    between atoms: C_13  and  N_14
REMARK    6  A    between atoms: N_27  and  C_28
REMARK                            x       y       z     vdW  Elec       q    Type
REMARK                         _______ _______ _______ _____ _____    ______ ____
ROOT
ATOM      1  C   UNL     1      -0.308  14.436  20.007  0.00  0.00    +0.000 A 
ATOM      2  C   UNL     1       0.503  13.540  19.308  0.00  0.00    +0.000 A 
ATOM      3  C   UNL     1       1.722  14.176  18.970  0.00  0.00    +0.000 A 
ATOM      4  C   UNL     1       2.869  13.748  18.273  0.00  0.00    +0.000 A 
ATOM      5  C   UNL     1       4.002  14.546  18.296  0.00  0.00    +0.000 A 
ATOM      6  F   UNL     1       5.105  14.139  17.656  0.00  0.00    +0.000 F 
ATOM      7  C   UNL     1       4.020  15.745  18.998  0.00  0.00    +0.000 A 
ATOM      8  C   UNL     1       2.861  16.224  19.627  0.00  0.00    +0.000 A 
ATOM      9  C   UNL     1       1.697  15.433  19.565  0.00  0.00    +0.000 A 
ATOM     10  N   UNL     1       0.393  15.635  20.001  0.00  0.00    +0.000 N 
ATOM     11  C   UNL     1      -0.121  16.923  20.415  0.00  0.00    +0.000 C 
ENDROOT
BRANCH   2  12
ATOM     12  N   UNL     1       0.307  12.172  19.166  0.00  0.00    +0.000 N 
ATOM     13  C   UNL     1       0.818  11.242  20.146  0.00  0.00    +0.000 C 
ATOM     14  C   UNL     1       0.388   9.895  19.619  0.00  0.00    +0.000 C 
ATOM     15  C   UNL     1      -0.938  10.194  18.933  0.00  0.00    +0.000 C 
ATOM     16  C   UNL     1      -0.815  11.643  18.519  0.00  0.00    +0.000 C 
ATOM     17  O   UNL     1      -1.580  12.213  17.756  0.00  0.00    +0.000 OA
ENDBRANCH   2  12
BRANCH   1  19
ATOM     18  N   UNL     1      -2.757  14.195  20.167  0.00  0.00    +0.000 N 
ATOM     19  C   UNL     1      -1.508  14.061  20.758  0.00  0.00    +0.000 C 
ATOM     20  O   UNL     1      -1.376  13.675  21.925  0.00  0.00    +0.000 OA
ATOM     21  H   UNL     1      -2.833  14.672  19.288  0.00  0.00    +0.000 HD
BRANCH  18  26
ATOM     22  C   UNL     1      -5.895  12.231  20.724  0.00  0.00    +0.000 A 
ATOM     23  C   UNL     1      -6.411  12.851  21.866  0.00  0.00    +0.000 A 
ATOM     24  C   UNL     1      -5.705  13.885  22.467  0.00  0.00    +0.000 A 
ATOM     25  C   UNL     1      -4.500  14.318  21.915  0.00  0.00    +0.000 A 
ATOM     26  C   UNL     1      -3.972  13.738  20.756  0.00  0.00    +0.000 A 
ATOM     27  C   UNL     1      -4.666  12.662  20.180  0.00  0.00    +0.000 A 
BRANCH  22  29
ATOM     28  C   UNL     1      -6.741  11.113  18.547  0.00  0.00    +0.000 C 
ATOM     29  C   UNL     1      -6.649  11.125  20.056  0.00  0.00    +0.000 C 
ATOM     30  O   UNL     1      -7.169  10.242  20.734  0.00  0.00    +0.000 OA
ENDBRANCH  22  29
ENDBRANCH  18  26
ENDBRANCH   1  19
TORSDOF 4
ENDMDL
