MODEL 1
REMARK VINA RESULT:      -7.6      0.000      0.000
REMARK  Name = 
REMARK  10 active torsions:
REMARK  status: ('A' for Active; 'I' for Inactive)
REMARK    1  A    between atoms: C_1  and  C_2
REMARK    2  A    between atoms: C_2  and  O_3
REMARK    3  A    between atoms: O_3  and  C_4
REMARK    4  A    between atoms: C_10  and  C_12
REMARK    5  A    between atoms: C_12  and  S_13
REMARK    6  A    between atoms: S_13  and  C_14
REMARK    7  A    between atoms: C_14  and  C_15
REMARK    8  A    between atoms: C_20  and  C_21
REMARK    9  A    between atoms: C_24  and  O_25
REMARK   10  A    between atoms: O_25  and  C_26
REMARK                            x       y       z     vdW  Elec       q    Type
REMARK                         _______ _______ _______ _____ _____    ______ ____
ROOT
ATOM      1  C   UNL     1       2.146   7.025  19.801  0.00  0.00    +0.000 C 
ATOM      2  O   UNL     1       1.416   6.866  20.777  0.00  0.00    +0.000 OA
ATOM      3  N   UNL     1       2.184   8.118  18.964  0.00  0.00    +0.000 N 
ATOM      4  C   UNL     1       1.394   9.214  19.189  0.00  0.00    +0.000 A 
ATOM      5  N   UNL     1       0.643   9.475  20.223  0.00  0.00    +0.000 NA
ATOM      6  C   UNL     1      -0.004  10.690  20.050  0.00  0.00    +0.000 A 
ATOM      7  C   UNL     1       0.235  11.291  18.826  0.00  0.00    +0.000 A 
ATOM      8  S   UNL     1       1.389  10.370  17.938  0.00  0.00    +0.000 S 
ATOM      9  H   UNL     1       2.783   8.137  18.152  0.00  0.00    +0.000 HD
ENDROOT
BRANCH   6  10
ATOM     10  C   UNL     1      -0.851  11.234  21.107  0.00  0.00    +0.000 A 
ATOM     11  C   UNL     1      -0.810  10.748  22.418  0.00  0.00    +0.000 A 
ATOM     12  C   UNL     1      -1.694  11.239  23.385  0.00  0.00    +0.000 A 
ATOM     13  C   UNL     1      -2.618  12.234  23.067  0.00  0.00    +0.000 A 
ATOM     14  C   UNL     1      -2.667  12.732  21.769  0.00  0.00    +0.000 A 
ATOM     15  C   UNL     1      -1.791  12.230  20.795  0.00  0.00    +0.000 A 
BRANCH  13  16
ATOM     16  O   UNL     1      -3.455  12.591  24.088  0.00  0.00    +0.000 OA
ATOM     17  C   UNL     1      -3.960  13.921  24.044  0.00  0.00    +0.000 C 
ENDBRANCH  13  16
ENDBRANCH   6  10
BRANCH   1  18
ATOM     18  C   UNL     1       3.094   5.909  19.393  0.00  0.00    +0.000 C 
BRANCH  18  19
ATOM     19  S   UNL     1       2.835   4.382  20.342  0.00  0.00    +0.000 S 
BRANCH  19  20
ATOM     20  C   UNL     1       4.171   3.346  19.641  0.00  0.00    +0.000 C 
BRANCH  20  27
ATOM     21  C   UNL     1       7.006   4.732  13.994  0.00  0.00    +0.000 C 
ATOM     22  O   UNL     1       7.938   5.484  13.733  0.00  0.00    +0.000 OA
ATOM     23  N   UNL     1       6.741   4.247  15.256  0.00  0.00    +0.000 N 
ATOM     24  C   UNL     1       7.542   4.717  16.385  0.00  0.00    +0.000 C 
ATOM     25  C   UNL     1       6.650   5.360  17.454  0.00  0.00    +0.000 C 
ATOM     26  N   UNL     1       5.563   4.446  17.850  0.00  0.00    +0.000 N 
ATOM     27  C   UNL     1       5.323   4.246  19.199  0.00  0.00    +0.000 C 
ATOM     28  O   UNL     1       6.030   4.780  20.066  0.00  0.00    +0.000 OA
ATOM     29  C   UNL     1       4.742   3.976  16.724  0.00  0.00    +0.000 C 
ATOM     30  C   UNL     1       5.612   3.374  15.600  0.00  0.00    +0.000 C 
BRANCH  21  31
ATOM     31  O   UNL     1       6.065   4.358  13.086  0.00  0.00    +0.000 OA
BRANCH  31  33
ATOM     32  C   UNL     1       5.327   2.603  11.646  0.00  0.00    +0.000 C 
ATOM     33  C   UNL     1       6.523   3.424  12.097  0.00  0.00    +0.000 C 
ENDBRANCH  31  33
ENDBRANCH  21  31
ENDBRANCH  20  27
ENDBRANCH  19  20
ENDBRANCH  18  19
ENDBRANCH   1  18
TORSDOF 8
ENDMDL
MODEL 2
REMARK VINA RESULT:      -7.3      4.673     11.085
REMARK  Name = 
REMARK  10 active torsions:
REMARK  status: ('A' for Active; 'I' for Inactive)
REMARK    1  A    between atoms: C_1  and  C_2
REMARK    2  A    between atoms: C_2  and  O_3
REMARK    3  A    between atoms: O_3  and  C_4
REMARK    4  A    between atoms: C_10  and  C_12
REMARK    5  A    between atoms: C_12  and  S_13
REMARK    6  A    between atoms: S_13  and  C_14
REMARK    7  A    between atoms: C_14  and  C_15
REMARK    8  A    between atoms: C_20  and  C_21
REMARK    9  A    between atoms: C_24  and  O_25
REMARK   10  A    between atoms: O_25  and  C_26
REMARK                            x       y       z     vdW  Elec       q    Type
REMARK                         _______ _______ _______ _____ _____    ______ ____
ROOT
ATOM      1  C   UNL     1       1.472   8.318  20.412  0.00  0.00    +0.000 C 
ATOM      2  O   UNL     1       1.773   8.741  19.298  0.00  0.00    +0.000 OA
ATOM      3  N   UNL     1       1.682   7.048  20.902  0.00  0.00    +0.000 N 
ATOM      4  C   UNL     1       2.328   6.097  20.158  0.00  0.00    +0.000 A 
ATOM      5  N   UNL     1       2.948   6.240  19.019  0.00  0.00    +0.000 NA
ATOM      6  C   UNL     1       3.459   5.021  18.598  0.00  0.00    +0.000 A 
ATOM      7  C   UNL     1       3.143   3.956  19.423  0.00  0.00    +0.000 A 
ATOM      8  S   UNL     1       2.295   4.524  20.811  0.00  0.00    +0.000 S 
ATOM      9  H   UNL     1       1.351   6.776  21.816  0.00  0.00    +0.000 HD
ENDROOT
BRANCH   6  10
ATOM     10  C   UNL     1       4.257   4.936  17.378  0.00  0.00    +0.000 A 
ATOM     11  C   UNL     1       4.749   3.718  16.894  0.00  0.00    +0.000 A 
ATOM     12  C   UNL     1       5.579   3.685  15.769  0.00  0.00    +0.000 A 
ATOM     13  C   UNL     1       5.914   4.859  15.095  0.00  0.00    +0.000 A 
ATOM     14  C   UNL     1       5.427   6.077  15.560  0.00  0.00    +0.000 A 
ATOM     15  C   UNL     1       4.608   6.113  16.697  0.00  0.00    +0.000 A 
BRANCH  13  16
ATOM     16  O   UNL     1       6.769   4.695  14.040  0.00  0.00    +0.000 OA
ATOM     17  C   UNL     1       6.341   3.792  13.026  0.00  0.00    +0.000 C 
ENDBRANCH  13  16
ENDBRANCH   6  10
BRANCH   1  18
ATOM     18  C   UNL     1       0.742   9.234  21.381  0.00  0.00    +0.000 C 
BRANCH  18  19
ATOM     19  S   UNL     1      -0.364  10.407  20.544  0.00  0.00    +0.000 S 
BRANCH  19  20
ATOM     20  C   UNL     1       0.493  11.978  20.930  0.00  0.00    +0.000 C 
BRANCH  20  27
ATOM     21  C   UNL     1       4.444  16.923  19.593  0.00  0.00    +0.000 C 
ATOM     22  O   UNL     1       5.056  17.198  18.568  0.00  0.00    +0.000 OA
ATOM     23  N   UNL     1       3.365  16.066  19.634  0.00  0.00    +0.000 N 
ATOM     24  C   UNL     1       2.967  15.357  18.420  0.00  0.00    +0.000 C 
ATOM     25  C   UNL     1       2.999  13.840  18.641  0.00  0.00    +0.000 C 
ATOM     26  N   UNL     1       2.201  13.465  19.823  0.00  0.00    +0.000 N 
ATOM     27  C   UNL     1       1.296  12.423  19.709  0.00  0.00    +0.000 C 
ATOM     28  O   UNL     1       1.117  11.840  18.630  0.00  0.00    +0.000 OA
ATOM     29  C   UNL     1       2.599  14.163  21.055  0.00  0.00    +0.000 C 
ATOM     30  C   UNL     1       2.636  15.694  20.853  0.00  0.00    +0.000 C 
BRANCH  21  31
ATOM     31  O   UNL     1       4.810  17.356  20.828  0.00  0.00    +0.000 OA
BRANCH  31  33
ATOM     32  C   UNL     1       6.516  17.934  22.394  0.00  0.00    +0.000 C 
ATOM     33  C   UNL     1       6.159  17.836  20.921  0.00  0.00    +0.000 C 
ENDBRANCH  31  33
ENDBRANCH  21  31
ENDBRANCH  20  27
ENDBRANCH  19  20
ENDBRANCH  18  19
ENDBRANCH   1  18
TORSDOF 8
ENDMDL
MODEL 3
REMARK VINA RESULT:      -7.2      2.492     12.438
REMARK  Name = 
REMARK  10 active torsions:
REMARK  status: ('A' for Active; 'I' for Inactive)
REMARK    1  A    between atoms: C_1  and  C_2
REMARK    2  A    between atoms: C_2  and  O_3
REMARK    3  A    between atoms: O_3  and  C_4
REMARK    4  A    between atoms: C_10  and  C_12
REMARK    5  A    between atoms: C_12  and  S_13
REMARK    6  A    between atoms: S_13  and  C_14
REMARK    7  A    between atoms: C_14  and  C_15
REMARK    8  A    between atoms: C_20  and  C_21
REMARK    9  A    between atoms: C_24  and  O_25
REMARK   10  A    between atoms: O_25  and  C_26
REMARK                            x       y       z     vdW  Elec       q    Type
REMARK                         _______ _______ _______ _____ _____    ______ ____
ROOT
ATOM      1  C   UNL     1       1.567   7.669  20.531  0.00  0.00    +0.000 C 
ATOM      2  O   UNL     1       2.050   8.154  19.510  0.00  0.00    +0.000 OA
ATOM      3  N   UNL     1       1.710   6.375  20.982  0.00  0.00    +0.000 N 
ATOM      4  C   UNL     1       2.492   5.472  20.315  0.00  0.00    +0.000 A 
ATOM      5  N   UNL     1       3.299   5.681  19.311  0.00  0.00    +0.000 NA
ATOM      6  C   UNL     1       3.897   4.491  18.922  0.00  0.00    +0.000 A 
ATOM      7  C   UNL     1       3.460   3.380  19.622  0.00  0.00    +0.000 A 
ATOM      8  S   UNL     1       2.373   3.865  20.869  0.00  0.00    +0.000 S 
ATOM      9  H   UNL     1       1.229   6.052  21.809  0.00  0.00    +0.000 HD
ENDROOT
BRANCH   6  10
ATOM     10  C   UNL     1       4.897   4.479  17.859  0.00  0.00    +0.000 A 
ATOM     11  C   UNL     1       6.261   4.658  18.118  0.00  0.00    +0.000 A 
ATOM     12  C   UNL     1       7.180   4.722  17.065  0.00  0.00    +0.000 A 
ATOM     13  C   UNL     1       6.760   4.588  15.742  0.00  0.00    +0.000 A 
ATOM     14  C   UNL     1       5.409   4.403  15.469  0.00  0.00    +0.000 A 
ATOM     15  C   UNL     1       4.484   4.353  16.523  0.00  0.00    +0.000 A 
BRANCH  13  16
ATOM     16  O   UNL     1       7.751   4.716  14.807  0.00  0.00    +0.000 OA
ATOM     17  C   UNL     1       7.321   4.838  13.457  0.00  0.00    +0.000 C 
ENDBRANCH  13  16
ENDBRANCH   6  10
BRANCH   1  18
ATOM     18  C   UNL     1       0.663   8.525  21.402  0.00  0.00    +0.000 C 
BRANCH  18  19
ATOM     19  S   UNL     1      -0.237   9.788  20.458  0.00  0.00    +0.000 S 
BRANCH  19  20
ATOM     20  C   UNL     1       0.793  11.254  20.832  0.00  0.00    +0.000 C 
BRANCH  20  27
ATOM     21  C   UNL     1      -3.895  15.105  23.077  0.00  0.00    +0.000 C 
ATOM     22  O   UNL     1      -4.403  16.108  22.590  0.00  0.00    +0.000 OA
ATOM     23  N   UNL     1      -3.181  14.177  22.350  0.00  0.00    +0.000 N 
ATOM     24  C   UNL     1      -2.916  14.428  20.935  0.00  0.00    +0.000 C 
ATOM     25  C   UNL     1      -1.408  14.434  20.657  0.00  0.00    +0.000 C 
ATOM     26  N   UNL     1      -0.777  13.199  21.158  0.00  0.00    +0.000 N 
ATOM     27  C   UNL     1       0.084  12.508  20.323  0.00  0.00    +0.000 C 
ATOM     28  O   UNL     1       0.293  12.881  19.159  0.00  0.00    +0.000 OA
ATOM     29  C   UNL     1      -1.026  12.941  22.585  0.00  0.00    +0.000 C 
ATOM     30  C   UNL     1      -2.534  12.987  22.914  0.00  0.00    +0.000 C 
BRANCH  21  31
ATOM     31  O   UNL     1      -3.896  14.832  24.409  0.00  0.00    +0.000 OA
BRANCH  31  33
ATOM     32  C   UNL     1      -1.930  15.559  25.549  0.00  0.00    +0.000 C 
ATOM     33  C   UNL     1      -3.381  15.883  25.238  0.00  0.00    +0.000 C 
ENDBRANCH  31  33
ENDBRANCH  21  31
ENDBRANCH  20  27
ENDBRANCH  19  20
ENDBRANCH  18  19
ENDBRANCH   1  18
TORSDOF 8
ENDMDL
MODEL 4
REMARK VINA RESULT:      -7.2      1.829      2.944
REMARK  Name = 
REMARK  10 active torsions:
REMARK  status: ('A' for Active; 'I' for Inactive)
REMARK    1  A    between atoms: C_1  and  C_2
REMARK    2  A    between atoms: C_2  and  O_3
REMARK    3  A    between atoms: O_3  and  C_4
REMARK    4  A    between atoms: C_10  and  C_12
REMARK    5  A    between atoms: C_12  and  S_13
REMARK    6  A    between atoms: S_13  and  C_14
REMARK    7  A    between atoms: C_14  and  C_15
REMARK    8  A    between atoms: C_20  and  C_21
REMARK    9  A    between atoms: C_24  and  O_25
REMARK   10  A    between atoms: O_25  and  C_26
REMARK                            x       y       z     vdW  Elec       q    Type
REMARK                         _______ _______ _______ _____ _____    ______ ____
ROOT
ATOM      1  C   UNL     1       1.717   6.734  20.455  0.00  0.00    +0.000 C 
ATOM      2  O   UNL     1       0.797   6.754  21.269  0.00  0.00    +0.000 OA
ATOM      3  N   UNL     1       2.058   7.727  19.563  0.00  0.00    +0.000 N 
ATOM      4  C   UNL     1       1.387   8.919  19.537  0.00  0.00    +0.000 A 
ATOM      5  N   UNL     1       0.488   9.364  20.371  0.00  0.00    +0.000 NA
ATOM      6  C   UNL     1       0.049  10.619  19.977  0.00  0.00    +0.000 A 
ATOM      7  C   UNL     1       0.597  11.066  18.787  0.00  0.00    +0.000 A 
ATOM      8  S   UNL     1       1.775   9.938  18.228  0.00  0.00    +0.000 S 
ATOM      9  H   UNL     1       2.801   7.598  18.892  0.00  0.00    +0.000 HD
ENDROOT
BRANCH   6  10
ATOM     10  C   UNL     1      -0.912  11.357  20.792  0.00  0.00    +0.000 A 
ATOM     11  C   UNL     1      -1.834  12.249  20.232  0.00  0.00    +0.000 A 
ATOM     12  C   UNL     1      -2.683  12.999  21.051  0.00  0.00    +0.000 A 
ATOM     13  C   UNL     1      -2.643  12.860  22.439  0.00  0.00    +0.000 A 
ATOM     14  C   UNL     1      -1.736  11.973  23.010  0.00  0.00    +0.000 A 
ATOM     15  C   UNL     1      -0.873  11.231  22.190  0.00  0.00    +0.000 A 
BRANCH  13  16
ATOM     16  O   UNL     1      -3.490  13.684  23.126  0.00  0.00    +0.000 OA
ATOM     17  C   UNL     1      -3.869  13.245  24.425  0.00  0.00    +0.000 C 
ENDBRANCH  13  16
ENDBRANCH   6  10
BRANCH   1  18
ATOM     18  C   UNL     1       2.575   5.485  20.337  0.00  0.00    +0.000 C 
BRANCH  18  19
ATOM     19  S   UNL     1       1.763   4.005  21.008  0.00  0.00    +0.000 S 
BRANCH  19  20
ATOM     20  C   UNL     1       3.038   2.747  20.628  0.00  0.00    +0.000 C 
BRANCH  20  27
ATOM     21  C   UNL     1       6.717   5.801  16.271  0.00  0.00    +0.000 C 
ATOM     22  O   UNL     1       6.799   5.658  15.057  0.00  0.00    +0.000 OA
ATOM     23  N   UNL     1       5.651   5.361  17.025  0.00  0.00    +0.000 N 
ATOM     24  C   UNL     1       4.589   4.590  16.381  0.00  0.00    +0.000 C 
ATOM     25  C   UNL     1       4.433   3.218  17.048  0.00  0.00    +0.000 C 
ATOM     26  N   UNL     1       4.249   3.360  18.503  0.00  0.00    +0.000 N 
ATOM     27  C   UNL     1       3.221   2.661  19.114  0.00  0.00    +0.000 C 
ATOM     28  O   UNL     1       2.435   1.965  18.455  0.00  0.00    +0.000 OA
ATOM     29  C   UNL     1       5.317   4.124  19.166  0.00  0.00    +0.000 C 
ATOM     30  C   UNL     1       5.544   5.490  18.483  0.00  0.00    +0.000 C 
BRANCH  21  31
ATOM     31  O   UNL     1       7.709   6.331  17.035  0.00  0.00    +0.000 OA
BRANCH  31  33
ATOM     32  C   UNL     1       8.357   8.098  18.502  0.00  0.00    +0.000 C 
ATOM     33  C   UNL     1       7.640   7.753  17.207  0.00  0.00    +0.000 C 
ENDBRANCH  31  33
ENDBRANCH  21  31
ENDBRANCH  20  27
ENDBRANCH  19  20
ENDBRANCH  18  19
ENDBRANCH   1  18
TORSDOF 8
ENDMDL
MODEL 5
REMARK VINA RESULT:      -7.2      3.431     11.654
REMARK  Name = 
REMARK  10 active torsions:
REMARK  status: ('A' for Active; 'I' for Inactive)
REMARK    1  A    between atoms: C_1  and  C_2
REMARK    2  A    between atoms: C_2  and  O_3
REMARK    3  A    between atoms: O_3  and  C_4
REMARK    4  A    between atoms: C_10  and  C_12
REMARK    5  A    between atoms: C_12  and  S_13
REMARK    6  A    between atoms: S_13  and  C_14
REMARK    7  A    between atoms: C_14  and  C_15
REMARK    8  A    between atoms: C_20  and  C_21
REMARK    9  A    between atoms: C_24  and  O_25
REMARK   10  A    between atoms: O_25  and  C_26
REMARK                            x       y       z     vdW  Elec       q    Type
REMARK                         _______ _______ _______ _____ _____    ______ ____
ROOT
ATOM      1  C   UNL     1       1.709   7.372  20.502  0.00  0.00    +0.000 C 
ATOM      2  O   UNL     1       2.154   7.974  19.528  0.00  0.00    +0.000 OA
ATOM      3  N   UNL     1       1.905   6.045  20.818  0.00  0.00    +0.000 N 
ATOM      4  C   UNL     1       2.704   5.243  20.049  0.00  0.00    +0.000 A 
ATOM      5  N   UNL     1       3.482   5.581  19.058  0.00  0.00    +0.000 NA
ATOM      6  C   UNL     1       4.112   4.459  18.541  0.00  0.00    +0.000 A 
ATOM      7  C   UNL     1       3.728   3.267  19.132  0.00  0.00    +0.000 A 
ATOM      8  S   UNL     1       2.651   3.585  20.439  0.00  0.00    +0.000 S 
ATOM      9  H   UNL     1       1.452   5.623  21.615  0.00  0.00    +0.000 HD
ENDROOT
BRANCH   6  10
ATOM     10  C   UNL     1       5.091   4.589  17.465  0.00  0.00    +0.000 A 
ATOM     11  C   UNL     1       6.465   4.673  17.715  0.00  0.00    +0.000 A 
ATOM     12  C   UNL     1       7.366   4.881  16.665  0.00  0.00    +0.000 A 
ATOM     13  C   UNL     1       6.915   4.986  15.349  0.00  0.00    +0.000 A 
ATOM     14  C   UNL     1       5.552   4.898  15.084  0.00  0.00    +0.000 A 
ATOM     15  C   UNL     1       4.647   4.705  16.138  0.00  0.00    +0.000 A 
BRANCH  13  16
ATOM     16  O   UNL     1       7.892   5.234  14.424  0.00  0.00    +0.000 OA
ATOM     17  C   UNL     1       7.545   4.979  13.068  0.00  0.00    +0.000 C 
ENDBRANCH  13  16
ENDBRANCH   6  10
BRANCH   1  18
ATOM     18  C   UNL     1       0.794   8.103  21.471  0.00  0.00    +0.000 C 
BRANCH  18  19
ATOM     19  S   UNL     1      -0.044   9.525  20.714  0.00  0.00    +0.000 S 
BRANCH  19  20
ATOM     20  C   UNL     1       0.742  10.888  21.651  0.00  0.00    +0.000 C 
BRANCH  20  27
ATOM     21  C   UNL     1      -0.963  16.656  19.268  0.00  0.00    +0.000 C 
ATOM     22  O   UNL     1      -1.845  17.432  19.616  0.00  0.00    +0.000 OA
ATOM     23  N   UNL     1      -0.466  15.651  20.070  0.00  0.00    +0.000 N 
ATOM     24  C   UNL     1      -1.073  15.413  21.377  0.00  0.00    +0.000 C 
ATOM     25  C   UNL     1      -1.591  13.973  21.483  0.00  0.00    +0.000 C 
ATOM     26  N   UNL     1      -0.528  13.008  21.149  0.00  0.00    +0.000 N 
ATOM     27  C   UNL     1      -0.317  11.933  21.997  0.00  0.00    +0.000 C 
ATOM     28  O   UNL     1      -0.969  11.799  23.043  0.00  0.00    +0.000 OA
ATOM     29  C   UNL     1       0.084  13.229  19.830  0.00  0.00    +0.000 C 
ATOM     30  C   UNL     1       0.564  14.687  19.665  0.00  0.00    +0.000 C 
BRANCH  21  31
ATOM     31  O   UNL     1      -0.432  16.632  18.017  0.00  0.00    +0.000 OA
BRANCH  31  33
ATOM     32  C   UNL     1      -0.313  18.629  16.716  0.00  0.00    +0.000 C 
ATOM     33  C   UNL     1       0.422  17.742  17.706  0.00  0.00    +0.000 C 
ENDBRANCH  31  33
ENDBRANCH  21  31
ENDBRANCH  20  27
ENDBRANCH  19  20
ENDBRANCH  18  19
ENDBRANCH   1  18
TORSDOF 8
ENDMDL
MODEL 6
REMARK VINA RESULT:      -7.2      2.554      3.341
REMARK  Name = 
REMARK  10 active torsions:
REMARK  status: ('A' for Active; 'I' for Inactive)
REMARK    1  A    between atoms: C_1  and  C_2
REMARK    2  A    between atoms: C_2  and  O_3
REMARK    3  A    between atoms: O_3  and  C_4
REMARK    4  A    between atoms: C_10  and  C_12
REMARK    5  A    between atoms: C_12  and  S_13
REMARK    6  A    between atoms: S_13  and  C_14
REMARK    7  A    between atoms: C_14  and  C_15
REMARK    8  A    between atoms: C_20  and  C_21
REMARK    9  A    between atoms: C_24  and  O_25
REMARK   10  A    between atoms: O_25  and  C_26
REMARK                            x       y       z     vdW  Elec       q    Type
REMARK                         _______ _______ _______ _____ _____    ______ ____
ROOT
ATOM      1  C   UNL     1       1.693   6.772  20.495  0.00  0.00    +0.000 C 
ATOM      2  O   UNL     1       2.503   7.336  19.763  0.00  0.00    +0.000 OA
ATOM      3  N   UNL     1       0.781   7.367  21.339  0.00  0.00    +0.000 N 
ATOM      4  C   UNL     1       0.658   8.729  21.404  0.00  0.00    +0.000 A 
ATOM      5  N   UNL     1       1.213   9.633  20.643  0.00  0.00    +0.000 NA
ATOM      6  C   UNL     1       0.834  10.902  21.055  0.00  0.00    +0.000 A 
ATOM      7  C   UNL     1       0.036  10.919  22.186  0.00  0.00    +0.000 A 
ATOM      8  S   UNL     1      -0.340   9.305  22.659  0.00  0.00    +0.000 S 
ATOM      9  H   UNL     1       0.190   6.819  21.945  0.00  0.00    +0.000 HD
ENDROOT
BRANCH   6  10
ATOM     10  C   UNL     1       1.272  12.081  20.314  0.00  0.00    +0.000 A 
ATOM     11  C   UNL     1       1.258  13.362  20.878  0.00  0.00    +0.000 A 
ATOM     12  C   UNL     1       1.607  14.479  20.111  0.00  0.00    +0.000 A 
ATOM     13  C   UNL     1       1.995  14.336  18.778  0.00  0.00    +0.000 A 
ATOM     14  C   UNL     1       2.020  13.069  18.206  0.00  0.00    +0.000 A 
ATOM     15  C   UNL     1       1.656  11.950  18.969  0.00  0.00    +0.000 A 
BRANCH  13  16
ATOM     16  O   UNL     1       2.265  15.509  18.128  0.00  0.00    +0.000 OA
ATOM     17  C   UNL     1       1.982  16.702  18.850  0.00  0.00    +0.000 C 
ENDBRANCH  13  16
ENDBRANCH   6  10
BRANCH   1  18
ATOM     18  C   UNL     1       1.683   5.253  20.559  0.00  0.00    +0.000 C 
BRANCH  18  19
ATOM     19  S   UNL     1       2.241   4.479  19.014  0.00  0.00    +0.000 S 
BRANCH  19  20
ATOM     20  C   UNL     1       3.810   3.730  19.586  0.00  0.00    +0.000 C 
BRANCH  20  27
ATOM     21  C   UNL     1       7.003   4.731  14.049  0.00  0.00    +0.000 C 
ATOM     22  O   UNL     1       7.938   5.480  13.793  0.00  0.00    +0.000 OA
ATOM     23  N   UNL     1       6.660   4.340  15.326  0.00  0.00    +0.000 N 
ATOM     24  C   UNL     1       7.374   4.913  16.465  0.00  0.00    +0.000 C 
ATOM     25  C   UNL     1       6.401   5.619  17.417  0.00  0.00    +0.000 C 
ATOM     26  N   UNL     1       5.304   4.716  17.811  0.00  0.00    +0.000 N 
ATOM     27  C   UNL     1       4.976   4.617  19.153  0.00  0.00    +0.000 C 
ATOM     28  O   UNL     1       5.613   5.232  20.020  0.00  0.00    +0.000 OA
ATOM     29  C   UNL     1       4.569   4.142  16.674  0.00  0.00    +0.000 C 
ATOM     30  C   UNL     1       5.524   3.473  15.661  0.00  0.00    +0.000 C 
BRANCH  21  31
ATOM     31  O   UNL     1       6.132   4.267  13.113  0.00  0.00    +0.000 OA
BRANCH  31  33
ATOM     32  C   UNL     1       5.854   2.349  11.720  0.00  0.00    +0.000 C 
ATOM     33  C   UNL     1       6.740   3.542  12.035  0.00  0.00    +0.000 C 
ENDBRANCH  31  33
ENDBRANCH  21  31
ENDBRANCH  20  27
ENDBRANCH  19  20
ENDBRANCH  18  19
ENDBRANCH   1  18
TORSDOF 8
ENDMDL
MODEL 7
REMARK VINA RESULT:      -7.1      2.297      2.799
REMARK  Name = 
REMARK  10 active torsions:
REMARK  status: ('A' for Active; 'I' for Inactive)
REMARK    1  A    between atoms: C_1  and  C_2
REMARK    2  A    between atoms: C_2  and  O_3
REMARK    3  A    between atoms: O_3  and  C_4
REMARK    4  A    between atoms: C_10  and  C_12
REMARK    5  A    between atoms: C_12  and  S_13
REMARK    6  A    between atoms: S_13  and  C_14
REMARK    7  A    between atoms: C_14  and  C_15
REMARK    8  A    between atoms: C_20  and  C_21
REMARK    9  A    between atoms: C_24  and  O_25
REMARK   10  A    between atoms: O_25  and  C_26
REMARK                            x       y       z     vdW  Elec       q    Type
REMARK                         _______ _______ _______ _____ _____    ______ ____
ROOT
ATOM      1  C   UNL     1       2.245   7.453  18.928  0.00  0.00    +0.000 C 
ATOM      2  O   UNL     1       2.545   8.334  18.125  0.00  0.00    +0.000 OA
ATOM      3  N   UNL     1       1.609   7.617  20.139  0.00  0.00    +0.000 N 
ATOM      4  C   UNL     1       1.187   8.850  20.559  0.00  0.00    +0.000 A 
ATOM      5  N   UNL     1       1.165   9.972  19.893  0.00  0.00    +0.000 NA
ATOM      6  C   UNL     1       0.671  10.992  20.692  0.00  0.00    +0.000 A 
ATOM      7  C   UNL     1       0.390  10.611  21.992  0.00  0.00    +0.000 A 
ATOM      8  S   UNL     1       0.636   8.915  22.170  0.00  0.00    +0.000 S 
ATOM      9  H   UNL     1       1.451   6.837  20.759  0.00  0.00    +0.000 HD
ENDROOT
BRANCH   6  10
ATOM     10  C   UNL     1       0.484  12.334  20.147  0.00  0.00    +0.000 A 
ATOM     11  C   UNL     1       0.787  13.485  20.883  0.00  0.00    +0.000 A 
ATOM     12  C   UNL     1       0.518  14.754  20.359  0.00  0.00    +0.000 A 
ATOM     13  C   UNL     1      -0.036  14.897  19.086  0.00  0.00    +0.000 A 
ATOM     14  C   UNL     1      -0.336  13.763  18.340  0.00  0.00    +0.000 A 
ATOM     15  C   UNL     1      -0.081  12.489  18.871  0.00  0.00    +0.000 A 
BRANCH  13  16
ATOM     16  O   UNL     1      -0.292  16.187  18.712  0.00  0.00    +0.000 OA
ATOM     17  C   UNL     1       0.397  17.197  19.440  0.00  0.00    +0.000 C 
ENDBRANCH  13  16
ENDBRANCH   6  10
BRANCH   1  18
ATOM     18  C   UNL     1       2.637   6.015  18.633  0.00  0.00    +0.000 C 
BRANCH  18  19
ATOM     19  S   UNL     1       2.874   5.025  20.138  0.00  0.00    +0.000 S 
BRANCH  19  20
ATOM     20  C   UNL     1       4.149   3.853  19.545  0.00  0.00    +0.000 C 
BRANCH  20  27
ATOM     21  C   UNL     1       7.087   4.758  13.854  0.00  0.00    +0.000 C 
ATOM     22  O   UNL     1       8.076   5.422  13.564  0.00  0.00    +0.000 OA
ATOM     23  N   UNL     1       6.784   4.352  15.135  0.00  0.00    +0.000 N 
ATOM     24  C   UNL     1       7.619   4.807  16.245  0.00  0.00    +0.000 C 
ATOM     25  C   UNL     1       6.781   5.566  17.281  0.00  0.00    +0.000 C 
ATOM     26  N   UNL     1       5.625   4.759  17.713  0.00  0.00    +0.000 N 
ATOM     27  C   UNL     1       5.369   4.639  19.069  0.00  0.00    +0.000 C 
ATOM     28  O   UNL     1       6.116   5.154  19.914  0.00  0.00    +0.000 OA
ATOM     29  C   UNL     1       4.769   4.305  16.606  0.00  0.00    +0.000 C 
ATOM     30  C   UNL     1       5.590   3.587  15.513  0.00  0.00    +0.000 C 
BRANCH  21  31
ATOM     31  O   UNL     1       6.120   4.419  12.960  0.00  0.00    +0.000 OA
BRANCH  31  33
ATOM     32  C   UNL     1       5.095   2.802  11.535  0.00  0.00    +0.000 C 
ATOM     33  C   UNL     1       6.389   3.227  12.208  0.00  0.00    +0.000 C 
ENDBRANCH  31  33
ENDBRANCH  21  31
ENDBRANCH  20  27
ENDBRANCH  19  20
ENDBRANCH  18  19
ENDBRANCH   1  18
TORSDOF 8
ENDMDL
MODEL 8
REMARK VINA RESULT:      -7.0      4.187     10.597
REMARK  Name = 
REMARK  10 active torsions:
REMARK  status: ('A' for Active; 'I' for Inactive)
REMARK    1  A    between atoms: C_1  and  C_2
REMARK    2  A    between atoms: C_2  and  O_3
REMARK    3  A    between atoms: O_3  and  C_4
REMARK    4  A    between atoms: C_10  and  C_12
REMARK    5  A    between atoms: C_12  and  S_13
REMARK    6  A    between atoms: S_13  and  C_14
REMARK    7  A    between atoms: C_14  and  C_15
REMARK    8  A    between atoms: C_20  and  C_21
REMARK    9  A    between atoms: C_24  and  O_25
REMARK   10  A    between atoms: O_25  and  C_26
REMARK                            x       y       z     vdW  Elec       q    Type
REMARK                         _______ _______ _______ _____ _____    ______ ____
ROOT
ATOM      1  C   UNL     1       1.221   8.486  20.352  0.00  0.00    +0.000 C 
ATOM      2  O   UNL     1       1.669   8.899  19.285  0.00  0.00    +0.000 OA
ATOM      3  N   UNL     1       1.421   7.242  20.909  0.00  0.00    +0.000 N 
ATOM      4  C   UNL     1       2.228   6.315  20.306  0.00  0.00    +0.000 A 
ATOM      5  N   UNL     1       3.010   6.467  19.273  0.00  0.00    +0.000 NA
ATOM      6  C   UNL     1       3.648   5.272  18.976  0.00  0.00    +0.000 A 
ATOM      7  C   UNL     1       3.266   4.209  19.776  0.00  0.00    +0.000 A 
ATOM      8  S   UNL     1       2.181   4.758  20.997  0.00  0.00    +0.000 S 
ATOM      9  H   UNL     1       0.967   6.973  21.769  0.00  0.00    +0.000 HD
ENDROOT
BRANCH   6  10
ATOM     10  C   UNL     1       4.631   5.207  17.899  0.00  0.00    +0.000 A 
ATOM     11  C   UNL     1       4.794   4.063  17.108  0.00  0.00    +0.000 A 
ATOM     12  C   UNL     1       5.801   4.007  16.139  0.00  0.00    +0.000 A 
ATOM     13  C   UNL     1       6.649   5.095  15.928  0.00  0.00    +0.000 A 
ATOM     14  C   UNL     1       6.496   6.241  16.702  0.00  0.00    +0.000 A 
ATOM     15  C   UNL     1       5.495   6.293  17.683  0.00  0.00    +0.000 A 
BRANCH  13  16
ATOM     16  O   UNL     1       7.620   4.895  14.986  0.00  0.00    +0.000 OA
ATOM     17  C   UNL     1       7.198   4.974  13.629  0.00  0.00    +0.000 C 
ENDBRANCH  13  16
ENDBRANCH   6  10
BRANCH   1  18
ATOM     18  C   UNL     1       0.298   9.379  21.164  0.00  0.00    +0.000 C 
BRANCH  18  19
ATOM     19  S   UNL     1       0.733  11.138  21.045  0.00  0.00    +0.000 S 
BRANCH  19  20
ATOM     20  C   UNL     1      -0.371  11.643  19.675  0.00  0.00    +0.000 C 
BRANCH  20  27
ATOM     21  C   UNL     1       4.262  15.973  18.396  0.00  0.00    +0.000 C 
ATOM     22  O   UNL     1       4.206  17.193  18.289  0.00  0.00    +0.000 OA
ATOM     23  N   UNL     1       3.301  15.213  19.026  0.00  0.00    +0.000 N 
ATOM     24  C   UNL     1       2.086  15.860  19.517  0.00  0.00    +0.000 C 
ATOM     25  C   UNL     1       0.840  15.233  18.880  0.00  0.00    +0.000 C 
ATOM     26  N   UNL     1       0.836  13.770  19.063  0.00  0.00    +0.000 N 
ATOM     27  C   UNL     1      -0.319  13.163  19.525  0.00  0.00    +0.000 C 
ATOM     28  O   UNL     1      -1.321  13.827  19.826  0.00  0.00    +0.000 OA
ATOM     29  C   UNL     1       2.048  13.105  18.562  0.00  0.00    +0.000 C 
ATOM     30  C   UNL     1       3.328  13.749  19.137  0.00  0.00    +0.000 C 
BRANCH  21  31
ATOM     31  O   UNL     1       5.235  15.212  17.827  0.00  0.00    +0.000 OA
BRANCH  31  33
ATOM     32  C   UNL     1       6.880  14.891  19.525  0.00  0.00    +0.000 C 
ATOM     33  C   UNL     1       6.573  15.569  18.201  0.00  0.00    +0.000 C 
ENDBRANCH  31  33
ENDBRANCH  21  31
ENDBRANCH  20  27
ENDBRANCH  19  20
ENDBRANCH  18  19
ENDBRANCH   1  18
TORSDOF 8
ENDMDL
MODEL 9
REMARK VINA RESULT:      -6.9      3.977     11.258
REMARK  Name = 
REMARK  10 active torsions:
REMARK  status: ('A' for Active; 'I' for Inactive)
REMARK    1  A    between atoms: C_1  and  C_2
REMARK    2  A    between atoms: C_2  and  O_3
REMARK    3  A    between atoms: O_3  and  C_4
REMARK    4  A    between atoms: C_10  and  C_12
REMARK    5  A    between atoms: C_12  and  S_13
REMARK    6  A    between atoms: S_13  and  C_14
REMARK    7  A    between atoms: C_14  and  C_15
REMARK    8  A    between atoms: C_20  and  C_21
REMARK    9  A    between atoms: C_24  and  O_25
REMARK   10  A    between atoms: O_25  and  C_26
REMARK                            x       y       z     vdW  Elec       q    Type
REMARK                         _______ _______ _______ _____ _____    ______ ____
ROOT
ATOM      1  C   UNL     1       1.460   9.332  19.334  0.00  0.00    +0.000 C 
ATOM      2  O   UNL     1       1.845   9.476  18.176  0.00  0.00    +0.000 OA
ATOM      3  N   UNL     1       1.549   8.193  20.103  0.00  0.00    +0.000 N 
ATOM      4  C   UNL     1       2.157   7.062  19.628  0.00  0.00    +0.000 A 
ATOM      5  N   UNL     1       2.841   6.907  18.527  0.00  0.00    +0.000 NA
ATOM      6  C   UNL     1       3.279   5.596  18.416  0.00  0.00    +0.000 A 
ATOM      7  C   UNL     1       2.843   4.763  19.433  0.00  0.00    +0.000 A 
ATOM      8  S   UNL     1       1.975   5.679  20.606  0.00  0.00    +0.000 S 
ATOM      9  H   UNL     1       1.155   8.153  21.031  0.00  0.00    +0.000 HD
ENDROOT
BRANCH   6  10
ATOM     10  C   UNL     1       4.126   5.191  17.298  0.00  0.00    +0.000 A 
ATOM     11  C   UNL     1       4.463   3.853  17.067  0.00  0.00    +0.000 A 
ATOM     12  C   UNL     1       5.344   3.511  16.035  0.00  0.00    +0.000 A 
ATOM     13  C   UNL     1       5.885   4.493  15.205  0.00  0.00    +0.000 A 
ATOM     14  C   UNL     1       5.554   5.827  15.419  0.00  0.00    +0.000 A 
ATOM     15  C   UNL     1       4.683   6.172  16.463  0.00  0.00    +0.000 A 
BRANCH  13  16
ATOM     16  O   UNL     1       6.767   4.032  14.267  0.00  0.00    +0.000 OA
ATOM     17  C   UNL     1       6.220   3.745  12.985  0.00  0.00    +0.000 C 
ENDBRANCH  13  16
ENDBRANCH   6  10
BRANCH   1  18
ATOM     18  C   UNL     1       0.754  10.485  20.030  0.00  0.00    +0.000 C 
BRANCH  18  19
ATOM     19  S   UNL     1      -0.755  11.011  19.168  0.00  0.00    +0.000 S 
BRANCH  19  20
ATOM     20  C   UNL     1      -1.559  11.975  20.501  0.00  0.00    +0.000 C 
BRANCH  20  27
ATOM     21  C   UNL     1       2.325  16.870  18.828  0.00  0.00    +0.000 C 
ATOM     22  O   UNL     1       3.151  17.493  19.485  0.00  0.00    +0.000 OA
ATOM     23  N   UNL     1       1.838  15.631  19.183  0.00  0.00    +0.000 N 
ATOM     24  C   UNL     1       2.238  15.045  20.461  0.00  0.00    +0.000 C 
ATOM     25  C   UNL     1       1.010  14.749  21.331  0.00  0.00    +0.000 C 
ATOM     26  N   UNL     1       0.030  13.930  20.595  0.00  0.00    +0.000 N 
ATOM     27  C   UNL     1      -0.503  12.814  21.218  0.00  0.00    +0.000 C 
ATOM     28  O   UNL     1      -0.138  12.473  22.353  0.00  0.00    +0.000 OA
ATOM     29  C   UNL     1      -0.389  14.513  19.312  0.00  0.00    +0.000 C 
ATOM     30  C   UNL     1       0.825  14.880  18.432  0.00  0.00    +0.000 C 
BRANCH  21  31
ATOM     31  O   UNL     1       1.721  17.365  17.715  0.00  0.00    +0.000 OA
BRANCH  31  33
ATOM     32  C   UNL     1      -0.074  18.578  16.713  0.00  0.00    +0.000 C 
ATOM     33  C   UNL     1       0.775  18.415  17.962  0.00  0.00    +0.000 C 
ENDBRANCH  31  33
ENDBRANCH  21  31
ENDBRANCH  20  27
ENDBRANCH  19  20
ENDBRANCH  18  19
ENDBRANCH   1  18
TORSDOF 8
ENDMDL
