MODEL 1
REMARK VINA RESULT:      -8.3      0.000      0.000
REMARK  Name = 
REMARK  7 active torsions:
REMARK  status: ('A' for Active; 'I' for Inactive)
REMARK    1  A    between atoms: C_2  and  C_3
REMARK    2  A    between atoms: C_2  and  C_12
REMARK    3  A    between atoms: C_4  and  C_5
REMARK    4  A    between atoms: C_13  and  C_14
REMARK    5  A    between atoms: C_19  and  O_20
REMARK    6  A    between atoms: O_20  and  C_21
REMARK    7  A    between atoms: C_21  and  C_22
REMARK                            x       y       z     vdW  Elec       q    Type
REMARK                         _______ _______ _______ _____ _____    ______ ____
ROOT
ATOM      1  C   UNL     1       2.334   4.924  19.190  0.00  0.00    +0.000 A 
ATOM      2  C   UNL     1       1.895   5.065  20.522  0.00  0.00    +0.000 A 
ATOM      3  C   UNL     1       1.826   3.972  21.385  0.00  0.00    +0.000 A 
ATOM      4  C   UNL     1       2.222   2.722  20.936  0.00  0.00    +0.000 A 
ATOM      5  C   UNL     1       2.650   2.562  19.618  0.00  0.00    +0.000 A 
ATOM      6  C   UNL     1       2.671   3.644  18.715  0.00  0.00    +0.000 A 
ENDROOT
BRANCH   1   8
ATOM      7  C   UNL     1       2.396   7.367  19.074  0.00  0.00    +0.000 C 
ATOM      8  C   UNL     1       2.404   6.187  18.434  0.00  0.00    +0.000 C 
BRANCH   7  10
ATOM      9  O   UNL     1       2.363   8.858  17.203  0.00  0.00    +0.000 OA
ATOM     10  C   UNL     1       2.030   8.626  18.358  0.00  0.00    +0.000 C 
BRANCH  10  11
ATOM     11  C   UNL     1       1.134   9.533  19.135  0.00  0.00    +0.000 C 
ATOM     12  C   UNL     1       0.587   9.140  20.294  0.00  0.00    +0.000 C 
BRANCH  12  13
ATOM     13  C   UNL     1      -0.237  10.063  21.079  0.00  0.00    +0.000 A 
ATOM     14  C   UNL     1      -0.800  11.198  20.484  0.00  0.00    +0.000 A 
ATOM     15  C   UNL     1      -1.527  12.113  21.255  0.00  0.00    +0.000 A 
ATOM     16  C   UNL     1      -1.692  11.892  22.620  0.00  0.00    +0.000 A 
ATOM     17 CL   UNL     1      -2.557  13.033  23.576  0.00  0.00    +0.000 Cl
ATOM     18  C   UNL     1      -1.155  10.755  23.219  0.00  0.00    +0.000 A 
ATOM     19  C   UNL     1      -0.429   9.841  22.449  0.00  0.00    +0.000 A 
ENDBRANCH  12  13
ENDBRANCH  10  11
ENDBRANCH   7  10
ENDBRANCH   1   8
BRANCH   6  20
ATOM     20  O   UNL     1       2.991   3.490  17.382  0.00  0.00    +0.000 OA
BRANCH  20  21
ATOM     21  C   UNL     1       4.383   3.218  17.142  0.00  0.00    +0.000 C 
BRANCH  21  22
ATOM     22  C   UNL     1       5.266   4.441  17.196  0.00  0.00    +0.000 A 
ATOM     23  C   UNL     1       5.058   5.479  16.268  0.00  0.00    +0.000 A 
ATOM     24  C   UNL     1       5.780   6.671  16.359  0.00  0.00    +0.000 A 
ATOM     25  C   UNL     1       6.710   6.841  17.380  0.00  0.00    +0.000 A 
ATOM     26  C   UNL     1       6.919   5.821  18.309  0.00  0.00    +0.000 A 
ATOM     27  C   UNL     1       6.197   4.630  18.222  0.00  0.00    +0.000 A 
ENDBRANCH  21  22
ENDBRANCH  20  21
ENDBRANCH   6  20
TORSDOF 7
ENDMDL
MODEL 2
REMARK VINA RESULT:      -8.2      0.512      1.413
REMARK  Name = 
REMARK  7 active torsions:
REMARK  status: ('A' for Active; 'I' for Inactive)
REMARK    1  A    between atoms: C_2  and  C_3
REMARK    2  A    between atoms: C_2  and  C_12
REMARK    3  A    between atoms: C_4  and  C_5
REMARK    4  A    between atoms: C_13  and  C_14
REMARK    5  A    between atoms: C_19  and  O_20
REMARK    6  A    between atoms: O_20  and  C_21
REMARK    7  A    between atoms: C_21  and  C_22
REMARK                            x       y       z     vdW  Elec       q    Type
REMARK                         _______ _______ _______ _____ _____    ______ ____
ROOT
ATOM      1  C   UNL     1       2.444   5.237  18.935  0.00  0.00    +0.000 A 
ATOM      2  C   UNL     1       1.880   5.219  20.227  0.00  0.00    +0.000 A 
ATOM      3  C   UNL     1       1.776   4.038  20.960  0.00  0.00    +0.000 A 
ATOM      4  C   UNL     1       2.260   2.856  20.422  0.00  0.00    +0.000 A 
ATOM      5  C   UNL     1       2.812   2.853  19.141  0.00  0.00    +0.000 A 
ATOM      6  C   UNL     1       2.873   4.025  18.363  0.00  0.00    +0.000 A 
ENDROOT
BRANCH   1   8
ATOM      7  C   UNL     1       2.212   7.670  19.033  0.00  0.00    +0.000 C 
ATOM      8  C   UNL     1       2.533   6.575  18.325  0.00  0.00    +0.000 C 
BRANCH   7  10
ATOM      9  O   UNL     1       2.248   9.226  17.215  0.00  0.00    +0.000 OA
ATOM     10  C   UNL     1       1.872   8.954  18.349  0.00  0.00    +0.000 C 
BRANCH  10  11
ATOM     11  C   UNL     1       0.948   9.834  19.123  0.00  0.00    +0.000 C 
ATOM     12  C   UNL     1       0.532   9.491  20.350  0.00  0.00    +0.000 C 
BRANCH  12  13
ATOM     13  C   UNL     1      -0.322  10.396  21.125  0.00  0.00    +0.000 A 
ATOM     14  C   UNL     1      -0.497  10.207  22.501  0.00  0.00    +0.000 A 
ATOM     15  C   UNL     1      -1.369  11.032  23.223  0.00  0.00    +0.000 A 
ATOM     16  C   UNL     1      -2.065  12.045  22.567  0.00  0.00    +0.000 A 
ATOM     17 CL   UNL     1      -3.162  13.039  23.445  0.00  0.00    +0.000 Cl
ATOM     18  C   UNL     1      -1.882  12.256  21.203  0.00  0.00    +0.000 A 
ATOM     19  C   UNL     1      -1.011  11.433  20.483  0.00  0.00    +0.000 A 
ENDBRANCH  12  13
ENDBRANCH  10  11
ENDBRANCH   7  10
ENDBRANCH   1   8
BRANCH   6  20
ATOM     20  O   UNL     1       3.318   4.026  17.057  0.00  0.00    +0.000 OA
BRANCH  20  21
ATOM     21  C   UNL     1       4.720   3.731  16.917  0.00  0.00    +0.000 C 
BRANCH  21  22
ATOM     22  C   UNL     1       5.629   4.864  17.326  0.00  0.00    +0.000 A 
ATOM     23  C   UNL     1       6.626   4.631  18.292  0.00  0.00    +0.000 A 
ATOM     24  C   UNL     1       7.554   5.623  18.613  0.00  0.00    +0.000 A 
ATOM     25  C   UNL     1       7.502   6.854  17.967  0.00  0.00    +0.000 A 
ATOM     26  C   UNL     1       6.523   7.094  17.002  0.00  0.00    +0.000 A 
ATOM     27  C   UNL     1       5.595   6.103  16.679  0.00  0.00    +0.000 A 
ENDBRANCH  21  22
ENDBRANCH  20  21
ENDBRANCH   6  20
TORSDOF 7
ENDMDL
MODEL 3
REMARK VINA RESULT:      -8.0      2.164      2.618
REMARK  Name = 
REMARK  7 active torsions:
REMARK  status: ('A' for Active; 'I' for Inactive)
REMARK    1  A    between atoms: C_2  and  C_3
REMARK    2  A    between atoms: C_2  and  C_12
REMARK    3  A    between atoms: C_4  and  C_5
REMARK    4  A    between atoms: C_13  and  C_14
REMARK    5  A    between atoms: C_19  and  O_20
REMARK    6  A    between atoms: O_20  and  C_21
REMARK    7  A    between atoms: C_21  and  C_22
REMARK                            x       y       z     vdW  Elec       q    Type
REMARK                         _______ _______ _______ _____ _____    ______ ____
ROOT
ATOM      1  C   UNL     1       2.336   5.108  19.066  0.00  0.00    +0.000 A 
ATOM      2  C   UNL     1       1.824   5.206  20.375  0.00  0.00    +0.000 A 
ATOM      3  C   UNL     1       1.561   4.072  21.141  0.00  0.00    +0.000 A 
ATOM      4  C   UNL     1       1.833   2.817  20.618  0.00  0.00    +0.000 A 
ATOM      5  C   UNL     1       2.331   2.700  19.321  0.00  0.00    +0.000 A 
ATOM      6  C   UNL     1       2.548   3.832  18.511  0.00  0.00    +0.000 A 
ENDROOT
BRANCH   1   8
ATOM      7  C   UNL     1       2.130   7.542  18.938  0.00  0.00    +0.000 C 
ATOM      8  C   UNL     1       2.613   6.402  18.419  0.00  0.00    +0.000 C 
BRANCH   7  10
ATOM      9  O   UNL     1       2.983   9.350  17.624  0.00  0.00    +0.000 OA
ATOM     10  C   UNL     1       2.014   8.777  18.107  0.00  0.00    +0.000 C 
BRANCH  10  11
ATOM     11  C   UNL     1       0.609   9.196  17.824  0.00  0.00    +0.000 C 
ATOM     12  C   UNL     1      -0.011  10.100  18.595  0.00  0.00    +0.000 C 
BRANCH  12  13
ATOM     13  C   UNL     1      -1.367  10.551  18.266  0.00  0.00    +0.000 A 
ATOM     14  C   UNL     1      -1.985  11.557  19.018  0.00  0.00    +0.000 A 
ATOM     15  C   UNL     1      -3.305  11.935  18.743  0.00  0.00    +0.000 A 
ATOM     16  C   UNL     1      -4.006  11.306  17.717  0.00  0.00    +0.000 A 
ATOM     17 CL   UNL     1      -5.640  11.745  17.399  0.00  0.00    +0.000 Cl
ATOM     18  C   UNL     1      -3.394  10.319  16.948  0.00  0.00    +0.000 A 
ATOM     19  C   UNL     1      -2.075   9.942  17.223  0.00  0.00    +0.000 A 
ENDBRANCH  12  13
ENDBRANCH  10  11
ENDBRANCH   7  10
ENDBRANCH   1   8
BRANCH   6  20
ATOM     20  O   UNL     1       2.941   3.736  17.193  0.00  0.00    +0.000 OA
BRANCH  20  21
ATOM     21  C   UNL     1       4.315   3.345  17.018  0.00  0.00    +0.000 C 
BRANCH  21  22
ATOM     22  C   UNL     1       5.302   4.471  17.204  0.00  0.00    +0.000 A 
ATOM     23  C   UNL     1       5.327   5.524  16.271  0.00  0.00    +0.000 A 
ATOM     24  C   UNL     1       6.147   6.635  16.472  0.00  0.00    +0.000 A 
ATOM     25  C   UNL     1       6.945   6.710  17.609  0.00  0.00    +0.000 A 
ATOM     26  C   UNL     1       6.923   5.676  18.545  0.00  0.00    +0.000 A 
ATOM     27  C   UNL     1       6.102   4.564  18.347  0.00  0.00    +0.000 A 
ENDBRANCH  21  22
ENDBRANCH  20  21
ENDBRANCH   6  20
TORSDOF 7
ENDMDL
MODEL 4
REMARK VINA RESULT:      -7.9      1.558      4.008
REMARK  Name = 
REMARK  7 active torsions:
REMARK  status: ('A' for Active; 'I' for Inactive)
REMARK    1  A    between atoms: C_2  and  C_3
REMARK    2  A    between atoms: C_2  and  C_12
REMARK    3  A    between atoms: C_4  and  C_5
REMARK    4  A    between atoms: C_13  and  C_14
REMARK    5  A    between atoms: C_19  and  O_20
REMARK    6  A    between atoms: O_20  and  C_21
REMARK    7  A    between atoms: C_21  and  C_22
REMARK                            x       y       z     vdW  Elec       q    Type
REMARK                         _______ _______ _______ _____ _____    ______ ____
ROOT
ATOM      1  C   UNL     1       4.129   5.595  17.540  0.00  0.00    +0.000 A 
ATOM      2  C   UNL     1       5.115   6.601  17.590  0.00  0.00    +0.000 A 
ATOM      3  C   UNL     1       6.292   6.504  16.850  0.00  0.00    +0.000 A 
ATOM      4  C   UNL     1       6.490   5.410  16.023  0.00  0.00    +0.000 A 
ATOM      5  C   UNL     1       5.530   4.400  15.968  0.00  0.00    +0.000 A 
ATOM      6  C   UNL     1       4.362   4.452  16.753  0.00  0.00    +0.000 A 
ENDROOT
BRANCH   1   8
ATOM      7  C   UNL     1       2.827   7.018  19.044  0.00  0.00    +0.000 C 
ATOM      8  C   UNL     1       2.923   5.882  18.335  0.00  0.00    +0.000 C 
BRANCH   7  10
ATOM      9  O   UNL     1       1.547   6.200  20.893  0.00  0.00    +0.000 OA
ATOM     10  C   UNL     1       1.855   7.141  20.171  0.00  0.00    +0.000 C 
BRANCH  10  11
ATOM     11  C   UNL     1       1.368   8.531  20.412  0.00  0.00    +0.000 C 
ATOM     12  C   UNL     1       0.513   8.802  21.409  0.00  0.00    +0.000 C 
BRANCH  12  13
ATOM     13  C   UNL     1       0.096  10.182  21.675  0.00  0.00    +0.000 A 
ATOM     14  C   UNL     1       0.646  11.246  20.951  0.00  0.00    +0.000 A 
ATOM     15  C   UNL     1       0.295  12.566  21.258  0.00  0.00    +0.000 A 
ATOM     16  C   UNL     1      -0.606  12.821  22.289  0.00  0.00    +0.000 A 
ATOM     17 CL   UNL     1      -1.014  14.445  22.690  0.00  0.00    +0.000 Cl
ATOM     18  C   UNL     1      -1.177  11.769  23.002  0.00  0.00    +0.000 A 
ATOM     19  C   UNL     1      -0.827  10.451  22.694  0.00  0.00    +0.000 A 
ENDBRANCH  12  13
ENDBRANCH  10  11
ENDBRANCH   7  10
ENDBRANCH   1   8
BRANCH   6  20
ATOM     20  O   UNL     1       3.449   3.419  16.794  0.00  0.00    +0.000 OA
BRANCH  20  21
ATOM     21  C   UNL     1       3.746   2.414  17.781  0.00  0.00    +0.000 C 
BRANCH  21  22
ATOM     22  C   UNL     1       2.877   2.487  19.012  0.00  0.00    +0.000 A 
ATOM     23  C   UNL     1       3.485   2.579  20.278  0.00  0.00    +0.000 A 
ATOM     24  C   UNL     1       2.714   2.761  21.427  0.00  0.00    +0.000 A 
ATOM     25  C   UNL     1       1.330   2.860  21.324  0.00  0.00    +0.000 A 
ATOM     26  C   UNL     1       0.717   2.777  20.074  0.00  0.00    +0.000 A 
ATOM     27  C   UNL     1       1.485   2.597  18.923  0.00  0.00    +0.000 A 
ENDBRANCH  21  22
ENDBRANCH  20  21
ENDBRANCH   6  20
TORSDOF 7
ENDMDL
MODEL 5
REMARK VINA RESULT:      -7.9      2.449      2.992
REMARK  Name = 
REMARK  7 active torsions:
REMARK  status: ('A' for Active; 'I' for Inactive)
REMARK    1  A    between atoms: C_2  and  C_3
REMARK    2  A    between atoms: C_2  and  C_12
REMARK    3  A    between atoms: C_4  and  C_5
REMARK    4  A    between atoms: C_13  and  C_14
REMARK    5  A    between atoms: C_19  and  O_20
REMARK    6  A    between atoms: O_20  and  C_21
REMARK    7  A    between atoms: C_21  and  C_22
REMARK                            x       y       z     vdW  Elec       q    Type
REMARK                         _______ _______ _______ _____ _____    ______ ____
ROOT
ATOM      1  C   UNL     1       2.005   5.276  19.747  0.00  0.00    +0.000 A 
ATOM      2  C   UNL     1       1.273   4.413  20.588  0.00  0.00    +0.000 A 
ATOM      3  C   UNL     1       1.126   3.059  20.291  0.00  0.00    +0.000 A 
ATOM      4  C   UNL     1       1.733   2.539  19.159  0.00  0.00    +0.000 A 
ATOM      5  C   UNL     1       2.453   3.380  18.310  0.00  0.00    +0.000 A 
ATOM      6  C   UNL     1       2.563   4.761  18.563  0.00  0.00    +0.000 A 
ENDROOT
BRANCH   1   8
ATOM      7  C   UNL     1       1.249   7.130  21.152  0.00  0.00    +0.000 C 
ATOM      8  C   UNL     1       2.112   6.661  20.237  0.00  0.00    +0.000 C 
BRANCH   7  10
ATOM      9  O   UNL     1       1.869   9.316  21.901  0.00  0.00    +0.000 OA
ATOM     10  C   UNL     1       1.051   8.599  21.340  0.00  0.00    +0.000 C 
BRANCH  10  11
ATOM     11  C   UNL     1      -0.182   9.138  20.693  0.00  0.00    +0.000 C 
ATOM     12  C   UNL     1      -0.107   9.922  19.608  0.00  0.00    +0.000 C 
BRANCH  12  13
ATOM     13  C   UNL     1      -1.327  10.390  18.943  0.00  0.00    +0.000 A 
ATOM     14  C   UNL     1      -1.832   9.717  17.825  0.00  0.00    +0.000 A 
ATOM     15  C   UNL     1      -2.958  10.209  17.153  0.00  0.00    +0.000 A 
ATOM     16  C   UNL     1      -3.577  11.374  17.600  0.00  0.00    +0.000 A 
ATOM     17 CL   UNL     1      -4.940  12.000  16.756  0.00  0.00    +0.000 Cl
ATOM     18  C   UNL     1      -3.095  12.040  18.725  0.00  0.00    +0.000 A 
ATOM     19  C   UNL     1      -1.972  11.548  19.396  0.00  0.00    +0.000 A 
ENDBRANCH  12  13
ENDBRANCH  10  11
ENDBRANCH   7  10
ENDBRANCH   1   8
BRANCH   6  20
ATOM     20  O   UNL     1       3.180   5.628  17.685  0.00  0.00    +0.000 OA
BRANCH  20  21
ATOM     21  C   UNL     1       4.337   5.074  17.032  0.00  0.00    +0.000 C 
BRANCH  21  22
ATOM     22  C   UNL     1       5.650   5.615  17.545  0.00  0.00    +0.000 A 
ATOM     23  C   UNL     1       6.174   6.794  16.984  0.00  0.00    +0.000 A 
ATOM     24  C   UNL     1       7.326   7.382  17.508  0.00  0.00    +0.000 A 
ATOM     25  C   UNL     1       7.961   6.804  18.603  0.00  0.00    +0.000 A 
ATOM     26  C   UNL     1       7.446   5.639  19.172  0.00  0.00    +0.000 A 
ATOM     27  C   UNL     1       6.294   5.050  18.650  0.00  0.00    +0.000 A 
ENDBRANCH  21  22
ENDBRANCH  20  21
ENDBRANCH   6  20
TORSDOF 7
ENDMDL
MODEL 6
REMARK VINA RESULT:      -7.8      2.260      4.415
REMARK  Name = 
REMARK  7 active torsions:
REMARK  status: ('A' for Active; 'I' for Inactive)
REMARK    1  A    between atoms: C_2  and  C_3
REMARK    2  A    between atoms: C_2  and  C_12
REMARK    3  A    between atoms: C_4  and  C_5
REMARK    4  A    between atoms: C_13  and  C_14
REMARK    5  A    between atoms: C_19  and  O_20
REMARK    6  A    between atoms: O_20  and  C_21
REMARK    7  A    between atoms: C_21  and  C_22
REMARK                            x       y       z     vdW  Elec       q    Type
REMARK                         _______ _______ _______ _____ _____    ______ ____
ROOT
ATOM      1  C   UNL     1       4.392   5.448  17.228  0.00  0.00    +0.000 A 
ATOM      2  C   UNL     1       5.498   6.323  17.218  0.00  0.00    +0.000 A 
ATOM      3  C   UNL     1       6.705   5.964  16.620  0.00  0.00    +0.000 A 
ATOM      4  C   UNL     1       6.817   4.731  15.997  0.00  0.00    +0.000 A 
ATOM      5  C   UNL     1       5.737   3.849  16.005  0.00  0.00    +0.000 A 
ATOM      6  C   UNL     1       4.530   4.171  16.654  0.00  0.00    +0.000 A 
ENDROOT
BRANCH   1   8
ATOM      7  C   UNL     1       3.267   6.963  18.785  0.00  0.00    +0.000 C 
ATOM      8  C   UNL     1       3.177   6.006  17.847  0.00  0.00    +0.000 C 
BRANCH   7  10
ATOM      9  O   UNL     1       1.680   6.380  20.477  0.00  0.00    +0.000 OA
ATOM     10  C   UNL     1       2.134   7.229  19.721  0.00  0.00    +0.000 C 
BRANCH  10  11
ATOM     11  C   UNL     1       1.670   8.648  19.732  0.00  0.00    +0.000 C 
ATOM     12  C   UNL     1       1.665   9.383  18.612  0.00  0.00    +0.000 C 
BRANCH  12  13
ATOM     13  C   UNL     1       1.144  10.754  18.624  0.00  0.00    +0.000 A 
ATOM     14  C   UNL     1       1.984  11.838  18.347  0.00  0.00    +0.000 A 
ATOM     15  C   UNL     1       1.497  13.148  18.429  0.00  0.00    +0.000 A 
ATOM     16  C   UNL     1       0.171  13.373  18.788  0.00  0.00    +0.000 A 
ATOM     17 CL   UNL     1      -0.422  14.984  18.922  0.00  0.00    +0.000 Cl
ATOM     18  C   UNL     1      -0.681  12.301  19.046  0.00  0.00    +0.000 A 
ATOM     19  C   UNL     1      -0.194  10.992  18.963  0.00  0.00    +0.000 A 
ENDBRANCH  12  13
ENDBRANCH  10  11
ENDBRANCH   7  10
ENDBRANCH   1   8
BRANCH   6  20
ATOM     20  O   UNL     1       3.486   3.275  16.765  0.00  0.00    +0.000 OA
BRANCH  20  21
ATOM     21  C   UNL     1       3.653   2.309  17.819  0.00  0.00    +0.000 C 
BRANCH  21  22
ATOM     22  C   UNL     1       2.872   2.626  19.071  0.00  0.00    +0.000 A 
ATOM     23  C   UNL     1       1.492   2.887  18.972  0.00  0.00    +0.000 A 
ATOM     24  C   UNL     1       0.718   3.073  20.119  0.00  0.00    +0.000 A 
ATOM     25  C   UNL     1       1.312   2.993  21.375  0.00  0.00    +0.000 A 
ATOM     26  C   UNL     1       2.677   2.728  21.485  0.00  0.00    +0.000 A 
ATOM     27  C   UNL     1       3.452   2.540  20.340  0.00  0.00    +0.000 A 
ENDBRANCH  21  22
ENDBRANCH  20  21
ENDBRANCH   6  20
TORSDOF 7
ENDMDL
MODEL 7
REMARK VINA RESULT:      -7.8      0.657      1.110
REMARK  Name = 
REMARK  7 active torsions:
REMARK  status: ('A' for Active; 'I' for Inactive)
REMARK    1  A    between atoms: C_2  and  C_3
REMARK    2  A    between atoms: C_2  and  C_12
REMARK    3  A    between atoms: C_4  and  C_5
REMARK    4  A    between atoms: C_13  and  C_14
REMARK    5  A    between atoms: C_19  and  O_20
REMARK    6  A    between atoms: O_20  and  C_21
REMARK    7  A    between atoms: C_21  and  C_22
REMARK                            x       y       z     vdW  Elec       q    Type
REMARK                         _______ _______ _______ _____ _____    ______ ____
ROOT
ATOM      1  C   UNL     1       2.130   4.811  18.881  0.00  0.00    +0.000 A 
ATOM      2  C   UNL     1       1.443   4.802  20.111  0.00  0.00    +0.000 A 
ATOM      3  C   UNL     1       1.382   3.655  20.902  0.00  0.00    +0.000 A 
ATOM      4  C   UNL     1       2.034   2.505  20.487  0.00  0.00    +0.000 A 
ATOM      5  C   UNL     1       2.710   2.493  19.268  0.00  0.00    +0.000 A 
ATOM      6  C   UNL     1       2.732   3.623  18.428  0.00  0.00    +0.000 A 
ENDROOT
BRANCH   1   8
ATOM      7  C   UNL     1       2.440   7.238  18.881  0.00  0.00    +0.000 C 
ATOM      8  C   UNL     1       2.146   6.118  18.200  0.00  0.00    +0.000 C 
BRANCH   7  10
ATOM      9  O   UNL     1       2.419   9.006  17.269  0.00  0.00    +0.000 OA
ATOM     10  C   UNL     1       2.049   8.580  18.356  0.00  0.00    +0.000 C 
BRANCH  10  11
ATOM     11  C   UNL     1       1.082   9.318  19.222  0.00  0.00    +0.000 C 
ATOM     12  C   UNL     1       1.333   9.520  20.523  0.00  0.00    +0.000 C 
BRANCH  12  13
ATOM     13  C   UNL     1       0.407  10.304  21.346  0.00  0.00    +0.000 A 
ATOM     14  C   UNL     1      -0.216   9.731  22.460  0.00  0.00    +0.000 A 
ATOM     15  C   UNL     1      -1.153  10.463  23.201  0.00  0.00    +0.000 A 
ATOM     16  C   UNL     1      -1.465  11.767  22.826  0.00  0.00    +0.000 A 
ATOM     17 CL   UNL     1      -2.640  12.658  23.714  0.00  0.00    +0.000 Cl
ATOM     18  C   UNL     1      -0.834  12.356  21.732  0.00  0.00    +0.000 A 
ATOM     19  C   UNL     1       0.101  11.624  20.993  0.00  0.00    +0.000 A 
ENDBRANCH  12  13
ENDBRANCH  10  11
ENDBRANCH   7  10
ENDBRANCH   1   8
BRANCH   6  20
ATOM     20  O   UNL     1       3.306   3.603  17.173  0.00  0.00    +0.000 OA
BRANCH  20  21
ATOM     21  C   UNL     1       4.680   3.176  17.164  0.00  0.00    +0.000 C 
BRANCH  21  22
ATOM     22  C   UNL     1       5.664   4.265  17.517  0.00  0.00    +0.000 A 
ATOM     23  C   UNL     1       6.198   5.066  16.491  0.00  0.00    +0.000 A 
ATOM     24  C   UNL     1       7.023   6.152  16.790  0.00  0.00    +0.000 A 
ATOM     25  C   UNL     1       7.316   6.453  18.117  0.00  0.00    +0.000 A 
ATOM     26  C   UNL     1       6.786   5.669  19.143  0.00  0.00    +0.000 A 
ATOM     27  C   UNL     1       5.960   4.584  18.845  0.00  0.00    +0.000 A 
ENDBRANCH  21  22
ENDBRANCH  20  21
ENDBRANCH   6  20
TORSDOF 7
ENDMDL
MODEL 8
REMARK VINA RESULT:      -7.7      4.644      7.954
REMARK  Name = 
REMARK  7 active torsions:
REMARK  status: ('A' for Active; 'I' for Inactive)
REMARK    1  A    between atoms: C_2  and  C_3
REMARK    2  A    between atoms: C_2  and  C_12
REMARK    3  A    between atoms: C_4  and  C_5
REMARK    4  A    between atoms: C_13  and  C_14
REMARK    5  A    between atoms: C_19  and  O_20
REMARK    6  A    between atoms: O_20  and  C_21
REMARK    7  A    between atoms: C_21  and  C_22
REMARK                            x       y       z     vdW  Elec       q    Type
REMARK                         _______ _______ _______ _____ _____    ______ ____
ROOT
ATOM      1  C   UNL     1       6.733   4.777  15.778  0.00  0.00    +0.000 A 
ATOM      2  C   UNL     1       7.517   5.097  14.651  0.00  0.00    +0.000 A 
ATOM      3  C   UNL     1       7.180   4.639  13.378  0.00  0.00    +0.000 A 
ATOM      4  C   UNL     1       6.037   3.876  13.207  0.00  0.00    +0.000 A 
ATOM      5  C   UNL     1       5.255   3.541  14.313  0.00  0.00    +0.000 A 
ATOM      6  C   UNL     1       5.611   3.945  15.614  0.00  0.00    +0.000 A 
ENDROOT
BRANCH   1   8
ATOM      7  C   UNL     1       7.120   6.718  17.217  0.00  0.00    +0.000 C 
ATOM      8  C   UNL     1       7.195   5.389  17.037  0.00  0.00    +0.000 C 
BRANCH   7  10
ATOM      9  O   UNL     1       8.417   6.819  19.224  0.00  0.00    +0.000 OA
ATOM     10  C   UNL     1       7.952   7.401  18.252  0.00  0.00    +0.000 C 
BRANCH  10  11
ATOM     11  C   UNL     1       8.257   8.830  17.947  0.00  0.00    +0.000 C 
ATOM     12  C   UNL     1       9.029   9.561  18.763  0.00  0.00    +0.000 C 
BRANCH  12  13
ATOM     13  C   UNL     1       9.376  10.943  18.418  0.00  0.00    +0.000 A 
ATOM     14  C   UNL     1      10.651  11.449  18.694  0.00  0.00    +0.000 A 
ATOM     15  C   UNL     1      10.953  12.790  18.426  0.00  0.00    +0.000 A 
ATOM     16  C   UNL     1       9.980  13.623  17.881  0.00  0.00    +0.000 A 
ATOM     17 CL   UNL     1      10.338  15.280  17.581  0.00  0.00    +0.000 Cl
ATOM     18  C   UNL     1       8.714  13.125  17.581  0.00  0.00    +0.000 A 
ATOM     19  C   UNL     1       8.413  11.786  17.849  0.00  0.00    +0.000 A 
ENDBRANCH  12  13
ENDBRANCH  10  11
ENDBRANCH   7  10
ENDBRANCH   1   8
BRANCH   6  20
ATOM     20  O   UNL     1       4.912   3.540  16.733  0.00  0.00    +0.000 OA
BRANCH  20  21
ATOM     21  C   UNL     1       3.521   3.911  16.720  0.00  0.00    +0.000 C 
BRANCH  21  22
ATOM     22  C   UNL     1       3.014   4.436  18.041  0.00  0.00    +0.000 A 
ATOM     23  C   UNL     1       3.153   5.805  18.335  0.00  0.00    +0.000 A 
ATOM     24  C   UNL     1       2.597   6.345  19.496  0.00  0.00    +0.000 A 
ATOM     25  C   UNL     1       1.890   5.526  20.371  0.00  0.00    +0.000 A 
ATOM     26  C   UNL     1       1.740   4.168  20.085  0.00  0.00    +0.000 A 
ATOM     27  C   UNL     1       2.293   3.626  18.925  0.00  0.00    +0.000 A 
ENDBRANCH  21  22
ENDBRANCH  20  21
ENDBRANCH   6  20
TORSDOF 7
ENDMDL
MODEL 9
REMARK VINA RESULT:      -7.7      2.169      4.415
REMARK  Name = 
REMARK  7 active torsions:
REMARK  status: ('A' for Active; 'I' for Inactive)
REMARK    1  A    between atoms: C_2  and  C_3
REMARK    2  A    between atoms: C_2  and  C_12
REMARK    3  A    between atoms: C_4  and  C_5
REMARK    4  A    between atoms: C_13  and  C_14
REMARK    5  A    between atoms: C_19  and  O_20
REMARK    6  A    between atoms: O_20  and  C_21
REMARK    7  A    between atoms: C_21  and  C_22
REMARK                            x       y       z     vdW  Elec       q    Type
REMARK                         _______ _______ _______ _____ _____    ______ ____
ROOT
ATOM      1  C   UNL     1       4.695   5.556  17.696  0.00  0.00    +0.000 A 
ATOM      2  C   UNL     1       5.849   6.365  17.725  0.00  0.00    +0.000 A 
ATOM      3  C   UNL     1       6.898   6.168  16.829  0.00  0.00    +0.000 A 
ATOM      4  C   UNL     1       6.798   5.173  15.869  0.00  0.00    +0.000 A 
ATOM      5  C   UNL     1       5.668   4.357  15.832  0.00  0.00    +0.000 A 
ATOM      6  C   UNL     1       4.624   4.503  16.766  0.00  0.00    +0.000 A 
ENDROOT
BRANCH   1   8
ATOM      7  C   UNL     1       2.776   6.910  18.385  0.00  0.00    +0.000 C 
ATOM      8  C   UNL     1       3.657   5.937  18.670  0.00  0.00    +0.000 C 
BRANCH   7  10
ATOM      9  O   UNL     1       1.825   7.107  20.571  0.00  0.00    +0.000 OA
ATOM     10  C   UNL     1       2.022   7.606  19.470  0.00  0.00    +0.000 C 
BRANCH  10  11
ATOM     11  C   UNL     1       1.619   9.004  19.136  0.00  0.00    +0.000 C 
ATOM     12  C   UNL     1       0.876   9.731  19.982  0.00  0.00    +0.000 C 
BRANCH  12  13
ATOM     13  C   UNL     1       0.544  11.124  19.671  0.00  0.00    +0.000 A 
ATOM     14  C   UNL     1      -0.436  11.428  18.719  0.00  0.00    +0.000 A 
ATOM     15  C   UNL     1      -0.699  12.760  18.376  0.00  0.00    +0.000 A 
ATOM     16  C   UNL     1       0.017  13.786  18.986  0.00  0.00    +0.000 A 
ATOM     17 CL   UNL     1      -0.281  15.423  18.542  0.00  0.00    +0.000 Cl
ATOM     18  C   UNL     1       0.979  13.497  19.951  0.00  0.00    +0.000 A 
ATOM     19  C   UNL     1       1.241  12.167  20.293  0.00  0.00    +0.000 A 
ENDBRANCH  12  13
ENDBRANCH  10  11
ENDBRANCH   7  10
ENDBRANCH   1   8
BRANCH   6  20
ATOM     20  O   UNL     1       3.546   3.643  16.813  0.00  0.00    +0.000 OA
BRANCH  20  21
ATOM     21  C   UNL     1       3.710   2.550  17.735  0.00  0.00    +0.000 C 
BRANCH  21  22
ATOM     22  C   UNL     1       2.826   2.639  18.955  0.00  0.00    +0.000 A 
ATOM     23  C   UNL     1       3.409   2.558  20.233  0.00  0.00    +0.000 A 
ATOM     24  C   UNL     1       2.638   2.747  21.381  0.00  0.00    +0.000 A 
ATOM     25  C   UNL     1       1.280   3.026  21.265  0.00  0.00    +0.000 A 
ATOM     26  C   UNL     1       0.693   3.116  20.003  0.00  0.00    +0.000 A 
ATOM     27  C   UNL     1       1.462   2.929  18.853  0.00  0.00    +0.000 A 
ENDBRANCH  21  22
ENDBRANCH  20  21
ENDBRANCH   6  20
TORSDOF 7
ENDMDL
