MODEL 1
REMARK VINA RESULT:      -7.1      0.000      0.000
REMARK  Name = 
REMARK  5 active torsions:
REMARK  status: ('A' for Active; 'I' for Inactive)
REMARK    1  A    between atoms: C_1  and  O_2
REMARK    2  A    between atoms: O_2  and  C_3
REMARK    3  A    between atoms: C_5  and  C_6
REMARK    4  A    between atoms: C_9  and  C_10
REMARK    5  A    between atoms: C_16  and  C_17
REMARK                            x       y       z     vdW  Elec       q    Type
REMARK                         _______ _______ _______ _____ _____    ______ ____
ROOT
ATOM      1  C   UNL     1       3.364   4.380  17.627  0.00  0.00    +0.000 C 
ATOM      2  O   UNL     1       2.631   3.688  16.920  0.00  0.00    +0.000 OA
ATOM      3  N   UNL     1       4.767   4.347  17.477  0.00  0.00    +0.000 N 
ATOM      4  C   UNL     1       5.348   3.544  16.401  0.00  0.00    +0.000 C 
ATOM      5  C   UNL     1       6.517   4.271  15.723  0.00  0.00    +0.000 C 
ATOM      6  C   UNL     1       7.535   4.790  16.737  0.00  0.00    +0.000 C 
ATOM      7  C   UNL     1       6.872   5.634  17.831  0.00  0.00    +0.000 C 
ATOM      8  C   UNL     1       6.399   6.985  17.299  0.00  0.00    +0.000 C 
ATOM      9  F   UNL     1       7.818   5.882  18.788  0.00  0.00    +0.000 F 
ATOM     10  C   UNL     1       5.739   4.820  18.475  0.00  0.00    +0.000 C 
ENDROOT
BRANCH   1  17
ATOM     11  C   UNL     1       2.244   4.911  19.868  0.00  0.00    +0.000 A 
ATOM     12  C   UNL     1       1.783   5.906  20.742  0.00  0.00    +0.000 A 
ATOM     13  C   UNL     1       1.791   7.250  20.362  0.00  0.00    +0.000 A 
ATOM     14  C   UNL     1       1.352   8.334  21.294  0.00  0.00    +0.000 C 
ATOM     15  C   UNL     1       2.218   7.548  19.082  0.00  0.00    +0.000 A 
ATOM     16  N   UNL     1       2.678   6.632  18.209  0.00  0.00    +0.000 NA
ATOM     17  C   UNL     1       2.744   5.332  18.627  0.00  0.00    +0.000 A 
BRANCH  11  19
ATOM     18  C   UNL     1       1.905   3.309  21.578  0.00  0.00    +0.000 C 
ATOM     19  O   UNL     1       2.284   3.590  20.229  0.00  0.00    +0.000 OA
ENDBRANCH  11  19
ENDBRANCH   1  17
TORSDOF 2
ENDMDL
MODEL 2
REMARK VINA RESULT:      -6.9      2.742      5.651
REMARK  Name = 
REMARK  5 active torsions:
REMARK  status: ('A' for Active; 'I' for Inactive)
REMARK    1  A    between atoms: C_1  and  O_2
REMARK    2  A    between atoms: O_2  and  C_3
REMARK    3  A    between atoms: C_5  and  C_6
REMARK    4  A    between atoms: C_9  and  C_10
REMARK    5  A    between atoms: C_16  and  C_17
REMARK                            x       y       z     vdW  Elec       q    Type
REMARK                         _______ _______ _______ _____ _____    ______ ____
ROOT
ATOM      1  C   UNL     1       4.268   5.521  18.868  0.00  0.00    +0.000 C 
ATOM      2  O   UNL     1       4.061   6.639  19.340  0.00  0.00    +0.000 OA
ATOM      3  N   UNL     1       3.629   4.377  19.393  0.00  0.00    +0.000 N 
ATOM      4  C   UNL     1       2.636   4.542  20.454  0.00  0.00    +0.000 C 
ATOM      5  C   UNL     1       1.427   3.620  20.245  0.00  0.00    +0.000 C 
ATOM      6  C   UNL     1       1.847   2.172  19.999  0.00  0.00    +0.000 C 
ATOM      7  C   UNL     1       2.877   2.059  18.870  0.00  0.00    +0.000 C 
ATOM      8  C   UNL     1       2.253   2.330  17.503  0.00  0.00    +0.000 C 
ATOM      9  F   UNL     1       3.334   0.770  18.859  0.00  0.00    +0.000 F 
ATOM     10  C   UNL     1       4.062   2.988  19.176  0.00  0.00    +0.000 C 
ENDROOT
BRANCH   1  17
ATOM     11  C   UNL     1       6.511   4.977  17.759  0.00  0.00    +0.000 A 
ATOM     12  C   UNL     1       7.211   4.795  16.557  0.00  0.00    +0.000 A 
ATOM     13  C   UNL     1       6.599   5.048  15.328  0.00  0.00    +0.000 A 
ATOM     14  C   UNL     1       7.308   4.814  14.032  0.00  0.00    +0.000 C 
ATOM     15  C   UNL     1       5.305   5.533  15.348  0.00  0.00    +0.000 A 
ATOM     16  N   UNL     1       4.587   5.717  16.472  0.00  0.00    +0.000 NA
ATOM     17  C   UNL     1       5.172   5.382  17.661  0.00  0.00    +0.000 A 
BRANCH  11  19
ATOM     18  C   UNL     1       7.909   5.723  19.517  0.00  0.00    +0.000 C 
ATOM     19  O   UNL     1       7.073   4.697  18.976  0.00  0.00    +0.000 OA
ENDBRANCH  11  19
ENDBRANCH   1  17
TORSDOF 2
ENDMDL
MODEL 3
REMARK VINA RESULT:      -6.9      2.532      5.418
REMARK  Name = 
REMARK  5 active torsions:
REMARK  status: ('A' for Active; 'I' for Inactive)
REMARK    1  A    between atoms: C_1  and  O_2
REMARK    2  A    between atoms: O_2  and  C_3
REMARK    3  A    between atoms: C_5  and  C_6
REMARK    4  A    between atoms: C_9  and  C_10
REMARK    5  A    between atoms: C_16  and  C_17
REMARK                            x       y       z     vdW  Elec       q    Type
REMARK                         _______ _______ _______ _____ _____    ______ ____
ROOT
ATOM      1  C   UNL     1       4.110   3.369  17.609  0.00  0.00    +0.000 C 
ATOM      2  O   UNL     1       4.297   2.336  16.966  0.00  0.00    +0.000 OA
ATOM      3  N   UNL     1       2.889   3.603  18.277  0.00  0.00    +0.000 N 
ATOM      4  C   UNL     1       1.867   2.556  18.277  0.00  0.00    +0.000 C 
ATOM      5  C   UNL     1       1.186   2.432  19.647  0.00  0.00    +0.000 C 
ATOM      6  C   UNL     1       0.699   3.783  20.169  0.00  0.00    +0.000 C 
ATOM      7  C   UNL     1       1.814   4.834  20.158  0.00  0.00    +0.000 C 
ATOM      8  C   UNL     1       2.864   4.562  21.233  0.00  0.00    +0.000 C 
ATOM      9  F   UNL     1       1.240   6.042  20.448  0.00  0.00    +0.000 F 
ATOM     10  C   UNL     1       2.415   4.914  18.746  0.00  0.00    +0.000 C 
ENDROOT
BRANCH   1  17
ATOM     11  C   UNL     1       5.720   5.117  16.654  0.00  0.00    +0.000 A 
ATOM     12  C   UNL     1       6.699   6.083  16.928  0.00  0.00    +0.000 A 
ATOM     13  C   UNL     1       7.188   6.257  18.224  0.00  0.00    +0.000 A 
ATOM     14  C   UNL     1       8.194   7.313  18.550  0.00  0.00    +0.000 C 
ATOM     15  C   UNL     1       6.710   5.408  19.205  0.00  0.00    +0.000 A 
ATOM     16  N   UNL     1       5.765   4.472  18.996  0.00  0.00    +0.000 NA
ATOM     17  C   UNL     1       5.235   4.373  17.740  0.00  0.00    +0.000 A 
BRANCH  11  19
ATOM     18  C   UNL     1       6.025   4.254  14.470  0.00  0.00    +0.000 C 
ATOM     19  O   UNL     1       5.193   4.952  15.400  0.00  0.00    +0.000 OA
ENDBRANCH  11  19
ENDBRANCH   1  17
TORSDOF 2
ENDMDL
MODEL 4
REMARK VINA RESULT:      -6.6      2.928      5.896
REMARK  Name = 
REMARK  5 active torsions:
REMARK  status: ('A' for Active; 'I' for Inactive)
REMARK    1  A    between atoms: C_1  and  O_2
REMARK    2  A    between atoms: O_2  and  C_3
REMARK    3  A    between atoms: C_5  and  C_6
REMARK    4  A    between atoms: C_9  and  C_10
REMARK    5  A    between atoms: C_16  and  C_17
REMARK                            x       y       z     vdW  Elec       q    Type
REMARK                         _______ _______ _______ _____ _____    ______ ____
ROOT
ATOM      1  C   UNL     1       4.649   5.062  19.106  0.00  0.00    +0.000 C 
ATOM      2  O   UNL     1       5.098   5.921  19.866  0.00  0.00    +0.000 OA
ATOM      3  N   UNL     1       3.525   4.286  19.463  0.00  0.00    +0.000 N 
ATOM      4  C   UNL     1       2.832   4.576  20.718  0.00  0.00    +0.000 C 
ATOM      5  C   UNL     1       1.308   4.492  20.553  0.00  0.00    +0.000 C 
ATOM      6  C   UNL     1       0.875   3.189  19.884  0.00  0.00    +0.000 C 
ATOM      7  C   UNL     1       1.624   2.945  18.570  0.00  0.00    +0.000 C 
ATOM      8  C   UNL     1       1.172   3.904  17.471  0.00  0.00    +0.000 C 
ATOM      9  F   UNL     1       1.320   1.678  18.153  0.00  0.00    +0.000 F 
ATOM     10  C   UNL     1       3.136   3.015  18.833  0.00  0.00    +0.000 C 
ENDROOT
BRANCH   1  17
ATOM     11  C   UNL     1       6.635   4.595  17.557  0.00  0.00    +0.000 A 
ATOM     12  C   UNL     1       7.067   4.358  16.244  0.00  0.00    +0.000 A 
ATOM     13  C   UNL     1       6.177   4.448  15.172  0.00  0.00    +0.000 A 
ATOM     14  C   UNL     1       6.603   4.151  13.769  0.00  0.00    +0.000 C 
ATOM     15  C   UNL     1       4.879   4.829  15.451  0.00  0.00    +0.000 A 
ATOM     16  N   UNL     1       4.412   5.059  16.693  0.00  0.00    +0.000 NA
ATOM     17  C   UNL     1       5.274   4.883  17.739  0.00  0.00    +0.000 A 
BRANCH  11  19
ATOM     18  C   UNL     1       8.134   5.678  19.036  0.00  0.00    +0.000 C 
ATOM     19  O   UNL     1       7.475   4.475  18.631  0.00  0.00    +0.000 OA
ENDBRANCH  11  19
ENDBRANCH   1  17
TORSDOF 2
ENDMDL
MODEL 5
REMARK VINA RESULT:      -6.5      2.486      5.619
REMARK  Name = 
REMARK  5 active torsions:
REMARK  status: ('A' for Active; 'I' for Inactive)
REMARK    1  A    between atoms: C_1  and  O_2
REMARK    2  A    between atoms: O_2  and  C_3
REMARK    3  A    between atoms: C_5  and  C_6
REMARK    4  A    between atoms: C_9  and  C_10
REMARK    5  A    between atoms: C_16  and  C_17
REMARK                            x       y       z     vdW  Elec       q    Type
REMARK                         _______ _______ _______ _____ _____    ______ ____
ROOT
ATOM      1  C   UNL     1       3.985   5.821  18.281  0.00  0.00    +0.000 C 
ATOM      2  O   UNL     1       3.371   6.887  18.328  0.00  0.00    +0.000 OA
ATOM      3  N   UNL     1       3.804   4.829  19.270  0.00  0.00    +0.000 N 
ATOM      4  C   UNL     1       2.801   5.041  20.313  0.00  0.00    +0.000 C 
ATOM      5  C   UNL     1       2.023   3.754  20.617  0.00  0.00    +0.000 C 
ATOM      6  C   UNL     1       2.953   2.569  20.873  0.00  0.00    +0.000 C 
ATOM      7  C   UNL     1       3.972   2.388  19.743  0.00  0.00    +0.000 C 
ATOM      8  C   UNL     1       3.317   1.868  18.465  0.00  0.00    +0.000 C 
ATOM      9  F   UNL     1       4.873   1.444  20.151  0.00  0.00    +0.000 F 
ATOM     10  C   UNL     1       4.723   3.711  19.528  0.00  0.00    +0.000 C 
ENDROOT
BRANCH   1  17
ATOM     11  C   UNL     1       6.221   6.007  17.046  0.00  0.00    +0.000 A 
ATOM     12  C   UNL     1       6.990   5.599  15.947  0.00  0.00    +0.000 A 
ATOM     13  C   UNL     1       6.437   4.800  14.944  0.00  0.00    +0.000 A 
ATOM     14  C   UNL     1       7.251   4.312  13.789  0.00  0.00    +0.000 C 
ATOM     15  C   UNL     1       5.098   4.477  15.054  0.00  0.00    +0.000 A 
ATOM     16  N   UNL     1       4.319   4.835  16.091  0.00  0.00    +0.000 NA
ATOM     17  C   UNL     1       4.898   5.543  17.106  0.00  0.00    +0.000 A 
BRANCH  11  19
ATOM     18  C   UNL     1       7.760   6.113  18.842  0.00  0.00    +0.000 C 
ATOM     19  O   UNL     1       6.748   6.757  18.064  0.00  0.00    +0.000 OA
ENDBRANCH  11  19
ENDBRANCH   1  17
TORSDOF 2
ENDMDL
MODEL 6
REMARK VINA RESULT:      -6.3      2.862      5.810
REMARK  Name = 
REMARK  5 active torsions:
REMARK  status: ('A' for Active; 'I' for Inactive)
REMARK    1  A    between atoms: C_1  and  O_2
REMARK    2  A    between atoms: O_2  and  C_3
REMARK    3  A    between atoms: C_5  and  C_6
REMARK    4  A    between atoms: C_9  and  C_10
REMARK    5  A    between atoms: C_16  and  C_17
REMARK                            x       y       z     vdW  Elec       q    Type
REMARK                         _______ _______ _______ _____ _____    ______ ____
ROOT
ATOM      1  C   UNL     1       5.081   4.788  19.048  0.00  0.00    +0.000 C 
ATOM      2  O   UNL     1       5.677   5.455  19.894  0.00  0.00    +0.000 OA
ATOM      3  N   UNL     1       3.959   4.004  19.394  0.00  0.00    +0.000 N 
ATOM      4  C   UNL     1       3.447   4.061  20.763  0.00  0.00    +0.000 C 
ATOM      5  C   UNL     1       1.913   4.077  20.791  0.00  0.00    +0.000 C 
ATOM      6  C   UNL     1       1.313   2.957  19.943  0.00  0.00    +0.000 C 
ATOM      7  C   UNL     1       1.875   2.954  18.518  0.00  0.00    +0.000 C 
ATOM      8  C   UNL     1       1.358   4.135  17.700  0.00  0.00    +0.000 C 
ATOM      9  F   UNL     1       1.436   1.813  17.906  0.00  0.00    +0.000 F 
ATOM     10  C   UNL     1       3.410   2.906  18.585  0.00  0.00    +0.000 C 
ENDROOT
BRANCH   1  17
ATOM     11  C   UNL     1       4.829   5.618  16.639  0.00  0.00    +0.000 A 
ATOM     12  C   UNL     1       5.393   5.683  15.356  0.00  0.00    +0.000 A 
ATOM     13  C   UNL     1       6.568   4.990  15.056  0.00  0.00    +0.000 A 
ATOM     14  C   UNL     1       7.214   5.084  13.711  0.00  0.00    +0.000 C 
ATOM     15  C   UNL     1       7.115   4.203  16.051  0.00  0.00    +0.000 A 
ATOM     16  N   UNL     1       6.619   4.113  17.299  0.00  0.00    +0.000 NA
ATOM     17  C   UNL     1       5.519   4.865  17.601  0.00  0.00    +0.000 A 
BRANCH  11  19
ATOM     18  C   UNL     1       3.917   7.667  17.396  0.00  0.00    +0.000 C 
ATOM     19  O   UNL     1       3.701   6.319  16.972  0.00  0.00    +0.000 OA
ENDBRANCH  11  19
ENDBRANCH   1  17
TORSDOF 2
ENDMDL
MODEL 7
REMARK VINA RESULT:      -6.2      1.847      3.039
REMARK  Name = 
REMARK  5 active torsions:
REMARK  status: ('A' for Active; 'I' for Inactive)
REMARK    1  A    between atoms: C_1  and  O_2
REMARK    2  A    between atoms: O_2  and  C_3
REMARK    3  A    between atoms: C_5  and  C_6
REMARK    4  A    between atoms: C_9  and  C_10
REMARK    5  A    between atoms: C_16  and  C_17
REMARK                            x       y       z     vdW  Elec       q    Type
REMARK                         _______ _______ _______ _____ _____    ______ ____
ROOT
ATOM      1  C   UNL     1       3.088   6.189  18.033  0.00  0.00    +0.000 C 
ATOM      2  O   UNL     1       2.368   7.133  17.709  0.00  0.00    +0.000 OA
ATOM      3  N   UNL     1       4.415   6.087  17.563  0.00  0.00    +0.000 N 
ATOM      4  C   UNL     1       4.967   7.172  16.753  0.00  0.00    +0.000 C 
ATOM      5  C   UNL     1       6.420   7.480  17.136  0.00  0.00    +0.000 C 
ATOM      6  C   UNL     1       7.284   6.221  17.168  0.00  0.00    +0.000 C 
ATOM      7  C   UNL     1       6.664   5.125  18.041  0.00  0.00    +0.000 C 
ATOM      8  C   UNL     1       6.743   5.470  19.527  0.00  0.00    +0.000 C 
ATOM      9  F   UNL     1       7.395   3.985  17.849  0.00  0.00    +0.000 F 
ATOM     10  C   UNL     1       5.226   4.860  17.569  0.00  0.00    +0.000 C 
ENDROOT
BRANCH   1  17
ATOM     11  C   UNL     1       2.053   3.915  18.596  0.00  0.00    +0.000 A 
ATOM     12  C   UNL     1       1.687   3.010  19.603  0.00  0.00    +0.000 A 
ATOM     13  C   UNL     1       1.791   3.360  20.951  0.00  0.00    +0.000 A 
ATOM     14  C   UNL     1       1.454   2.396  22.043  0.00  0.00    +0.000 C 
ATOM     15  C   UNL     1       2.216   4.642  21.245  0.00  0.00    +0.000 A 
ATOM     16  N   UNL     1       2.587   5.544  20.317  0.00  0.00    +0.000 NA
ATOM     17  C   UNL     1       2.561   5.156  19.007  0.00  0.00    +0.000 A 
BRANCH  11  19
ATOM     18  C   UNL     1       2.678   2.378  16.906  0.00  0.00    +0.000 C 
ATOM     19  O   UNL     1       2.000   3.584  17.268  0.00  0.00    +0.000 OA
ENDBRANCH  11  19
ENDBRANCH   1  17
TORSDOF 2
ENDMDL
MODEL 8
REMARK VINA RESULT:      -6.1      2.618      5.425
REMARK  Name = 
REMARK  5 active torsions:
REMARK  status: ('A' for Active; 'I' for Inactive)
REMARK    1  A    between atoms: C_1  and  O_2
REMARK    2  A    between atoms: O_2  and  C_3
REMARK    3  A    between atoms: C_5  and  C_6
REMARK    4  A    between atoms: C_9  and  C_10
REMARK    5  A    between atoms: C_16  and  C_17
REMARK                            x       y       z     vdW  Elec       q    Type
REMARK                         _______ _______ _______ _____ _____    ______ ____
ROOT
ATOM      1  C   UNL     1       4.804   2.994  19.049  0.00  0.00    +0.000 C 
ATOM      2  O   UNL     1       5.312   2.102  19.729  0.00  0.00    +0.000 OA
ATOM      3  N   UNL     1       3.424   2.988  18.749  0.00  0.00    +0.000 N 
ATOM      4  C   UNL     1       2.575   1.951  19.334  0.00  0.00    +0.000 C 
ATOM      5  C   UNL     1       1.226   2.521  19.796  0.00  0.00    +0.000 C 
ATOM      6  C   UNL     1       0.548   3.343  18.702  0.00  0.00    +0.000 C 
ATOM      7  C   UNL     1       1.479   4.420  18.136  0.00  0.00    +0.000 C 
ATOM      8  C   UNL     1       1.712   5.552  19.135  0.00  0.00    +0.000 C 
ATOM      9  F   UNL     1       0.862   4.964  17.043  0.00  0.00    +0.000 F 
ATOM     10  C   UNL     1       2.787   3.760  17.672  0.00  0.00    +0.000 C 
ENDROOT
BRANCH   1  17
ATOM     11  C   UNL     1       5.990   4.363  17.239  0.00  0.00    +0.000 A 
ATOM     12  C   UNL     1       6.711   5.526  16.932  0.00  0.00    +0.000 A 
ATOM     13  C   UNL     1       7.111   6.405  17.940  0.00  0.00    +0.000 A 
ATOM     14  C   UNL     1       7.837   7.676  17.634  0.00  0.00    +0.000 C 
ATOM     15  C   UNL     1       6.817   6.056  19.245  0.00  0.00    +0.000 A 
ATOM     16  N   UNL     1       6.121   4.957  19.591  0.00  0.00    +0.000 NA
ATOM     17  C   UNL     1       5.662   4.152  18.586  0.00  0.00    +0.000 A 
BRANCH  11  19
ATOM     18  C   UNL     1       6.018   3.779  14.945  0.00  0.00    +0.000 C 
ATOM     19  O   UNL     1       5.549   3.504  16.267  0.00  0.00    +0.000 OA
ENDBRANCH  11  19
ENDBRANCH   1  17
TORSDOF 2
ENDMDL
MODEL 9
REMARK VINA RESULT:      -6.1      2.918      4.753
REMARK  Name = 
REMARK  5 active torsions:
REMARK  status: ('A' for Active; 'I' for Inactive)
REMARK    1  A    between atoms: C_1  and  O_2
REMARK    2  A    between atoms: O_2  and  C_3
REMARK    3  A    between atoms: C_5  and  C_6
REMARK    4  A    between atoms: C_9  and  C_10
REMARK    5  A    between atoms: C_16  and  C_17
REMARK                            x       y       z     vdW  Elec       q    Type
REMARK                         _______ _______ _______ _____ _____    ______ ____
ROOT
ATOM      1  C   UNL     1       4.233   5.299  19.277  0.00  0.00    +0.000 C 
ATOM      2  O   UNL     1       5.396   5.407  19.668  0.00  0.00    +0.000 OA
ATOM      3  N   UNL     1       3.601   4.039  19.204  0.00  0.00    +0.000 N 
ATOM      4  C   UNL     1       4.313   2.858  19.690  0.00  0.00    +0.000 C 
ATOM      5  C   UNL     1       3.381   1.917  20.467  0.00  0.00    +0.000 C 
ATOM      6  C   UNL     1       2.105   1.603  19.688  0.00  0.00    +0.000 C 
ATOM      7  C   UNL     1       1.396   2.877  19.216  0.00  0.00    +0.000 C 
ATOM      8  C   UNL     1       0.752   3.632  20.377  0.00  0.00    +0.000 C 
ATOM      9  F   UNL     1       0.390   2.497  18.371  0.00  0.00    +0.000 F 
ATOM     10  C   UNL     1       2.390   3.741  18.424  0.00  0.00    +0.000 C 
ENDROOT
BRANCH   1  17
ATOM     11  C   UNL     1       3.597   7.225  17.713  0.00  0.00    +0.000 A 
ATOM     12  C   UNL     1       2.742   8.312  17.479  0.00  0.00    +0.000 A 
ATOM     13  C   UNL     1       1.817   8.714  18.445  0.00  0.00    +0.000 A 
ATOM     14  C   UNL     1       0.861   9.837  18.199  0.00  0.00    +0.000 C 
ATOM     15  C   UNL     1       1.817   8.035  19.649  0.00  0.00    +0.000 A 
ATOM     16  N   UNL     1       2.610   6.982  19.920  0.00  0.00    +0.000 NA
ATOM     17  C   UNL     1       3.449   6.548  18.932  0.00  0.00    +0.000 A 
BRANCH  11  19
ATOM     18  C   UNL     1       5.832   7.238  16.932  0.00  0.00    +0.000 C 
ATOM     19  O   UNL     1       4.486   6.785  16.769  0.00  0.00    +0.000 OA
ENDBRANCH  11  19
ENDBRANCH   1  17
TORSDOF 2
ENDMDL
