MODEL 1
REMARK VINA RESULT:      -7.4      0.000      0.000
REMARK  Name = 
REMARK  5 active torsions:
REMARK  status: ('A' for Active; 'I' for Inactive)
REMARK    1  A    between atoms: C_1  and  C_2
REMARK    2  A    between atoms: C_2  and  C_9
REMARK    3  A    between atoms: N_3  and  O_4
REMARK    4  A    between atoms: O_4  and  C_5
REMARK    5  A    between atoms: C_5  and  C_7
REMARK                            x       y       z     vdW  Elec       q    Type
REMARK                         _______ _______ _______ _____ _____    ______ ____
ROOT
ATOM      1  C   UNL     1       5.077   4.341  18.346  0.00  0.00    +0.000 A 
ATOM      2  N   UNL     1       4.450   5.208  19.120  0.00  0.00    +0.000 NA
ATOM      3  C   UNL     1       3.355   4.543  19.611  0.00  0.00    +0.000 A 
ATOM      4  C   UNL     1       2.344   5.000  20.470  0.00  0.00    +0.000 A 
ATOM      5  C   UNL     1       1.312   4.120  20.819  0.00  0.00    +0.000 A 
ATOM      6  C   UNL     1       1.291   2.813  20.328  0.00  0.00    +0.000 A 
ATOM      7  C   UNL     1       2.295   2.337  19.474  0.00  0.00    +0.000 A 
ATOM      8  C   UNL     1       3.310   3.237  19.138  0.00  0.00    +0.000 A 
ATOM      9  N   UNL     1       4.424   3.130  18.343  0.00  0.00    +0.000 N 
ATOM     10  H   UNL     1       4.726   2.316  17.824  0.00  0.00    +0.000 HD
ENDROOT
BRANCH   1  12
ATOM     11  C   UNL     1       7.452   5.172  18.406  0.00  0.00    +0.000 C 
ATOM     12  C   UNL     1       6.282   4.649  17.605  0.00  0.00    +0.000 C 
ATOM     13  N   UNL     1       6.272   4.466  16.316  0.00  0.00    +0.000 NA
BRANCH  13  14
ATOM     14  O   UNL     1       7.496   4.810  15.711  0.00  0.00    +0.000 OA
BRANCH  14  15
ATOM     15  C   UNL     1       7.334   4.907  14.342  0.00  0.00    +0.000 C 
ATOM     16  O   UNL     1       7.990   5.622  13.594  0.00  0.00    +0.000 OA
BRANCH  15  17
ATOM     17  C   UNL     1       6.210   3.982  13.938  0.00  0.00    +0.000 C 
ATOM     18 CL   UNL     1       6.351   3.483  12.239  0.00  0.00    +0.000 Cl
ENDBRANCH  15  17
ENDBRANCH  14  15
ENDBRANCH  13  14
ENDBRANCH   1  12
TORSDOF 4
ENDMDL
MODEL 2
REMARK VINA RESULT:      -7.4      0.918      1.135
REMARK  Name = 
REMARK  5 active torsions:
REMARK  status: ('A' for Active; 'I' for Inactive)
REMARK    1  A    between atoms: C_1  and  C_2
REMARK    2  A    between atoms: C_2  and  C_9
REMARK    3  A    between atoms: N_3  and  O_4
REMARK    4  A    between atoms: O_4  and  C_5
REMARK    5  A    between atoms: C_5  and  C_7
REMARK                            x       y       z     vdW  Elec       q    Type
REMARK                         _______ _______ _______ _____ _____    ______ ____
ROOT
ATOM      1  C   UNL     1       4.921   4.171  18.384  0.00  0.00    +0.000 A 
ATOM      2  N   UNL     1       4.926   3.456  19.493  0.00  0.00    +0.000 NA
ATOM      3  C   UNL     1       3.613   3.352  19.876  0.00  0.00    +0.000 A 
ATOM      4  C   UNL     1       3.055   2.710  20.991  0.00  0.00    +0.000 A 
ATOM      5  C   UNL     1       1.666   2.758  21.169  0.00  0.00    +0.000 A 
ATOM      6  C   UNL     1       0.852   3.428  20.253  0.00  0.00    +0.000 A 
ATOM      7  C   UNL     1       1.390   4.071  19.130  0.00  0.00    +0.000 A 
ATOM      8  C   UNL     1       2.779   4.010  18.979  0.00  0.00    +0.000 A 
ATOM      9  N   UNL     1       3.635   4.514  18.033  0.00  0.00    +0.000 N 
ATOM     10  H   UNL     1       3.389   5.058  17.216  0.00  0.00    +0.000 HD
ENDROOT
BRANCH   1  12
ATOM     11  C   UNL     1       7.117   5.400  18.399  0.00  0.00    +0.000 C 
ATOM     12  C   UNL     1       6.118   4.540  17.659  0.00  0.00    +0.000 C 
ATOM     13  N   UNL     1       6.246   4.120  16.433  0.00  0.00    +0.000 NA
BRANCH  13  14
ATOM     14  O   UNL     1       7.445   4.553  15.835  0.00  0.00    +0.000 OA
BRANCH  14  15
ATOM     15  C   UNL     1       7.221   4.875  14.510  0.00  0.00    +0.000 C 
ATOM     16  O   UNL     1       7.906   5.631  13.833  0.00  0.00    +0.000 OA
BRANCH  15  17
ATOM     17  C   UNL     1       5.987   4.134  14.052  0.00  0.00    +0.000 C 
ATOM     18 CL   UNL     1       6.214   3.416  12.443  0.00  0.00    +0.000 Cl
ENDBRANCH  15  17
ENDBRANCH  14  15
ENDBRANCH  13  14
ENDBRANCH   1  12
TORSDOF 4
ENDMDL
MODEL 3
REMARK VINA RESULT:      -7.3      0.477      1.404
REMARK  Name = 
REMARK  5 active torsions:
REMARK  status: ('A' for Active; 'I' for Inactive)
REMARK    1  A    between atoms: C_1  and  C_2
REMARK    2  A    between atoms: C_2  and  C_9
REMARK    3  A    between atoms: N_3  and  O_4
REMARK    4  A    between atoms: O_4  and  C_5
REMARK    5  A    between atoms: C_5  and  C_7
REMARK                            x       y       z     vdW  Elec       q    Type
REMARK                         _______ _______ _______ _____ _____    ______ ____
ROOT
ATOM      1  C   UNL     1       4.821   4.393  18.188  0.00  0.00    +0.000 A 
ATOM      2  N   UNL     1       3.943   3.511  17.750  0.00  0.00    +0.000 NA
ATOM      3  C   UNL     1       2.915   3.526  18.659  0.00  0.00    +0.000 A 
ATOM      4  C   UNL     1       1.732   2.773  18.683  0.00  0.00    +0.000 A 
ATOM      5  C   UNL     1       0.835   2.966  19.741  0.00  0.00    +0.000 A 
ATOM      6  C   UNL     1       1.108   3.893  20.749  0.00  0.00    +0.000 A 
ATOM      7  C   UNL     1       2.281   4.659  20.739  0.00  0.00    +0.000 A 
ATOM      8  C   UNL     1       3.161   4.443  19.675  0.00  0.00    +0.000 A 
ATOM      9  N   UNL     1       4.376   4.990  19.346  0.00  0.00    +0.000 N 
ATOM     10  H   UNL     1       4.884   5.700  19.857  0.00  0.00    +0.000 HD
ENDROOT
BRANCH   1  12
ATOM     11  C   UNL     1       7.116   5.417  18.338  0.00  0.00    +0.000 C 
ATOM     12  C   UNL     1       6.080   4.671  17.528  0.00  0.00    +0.000 C 
ATOM     13  N   UNL     1       6.227   4.273  16.297  0.00  0.00    +0.000 NA
BRANCH  13  14
ATOM     14  O   UNL     1       7.487   4.611  15.767  0.00  0.00    +0.000 OA
BRANCH  14  15
ATOM     15  C   UNL     1       7.375   4.865  14.413  0.00  0.00    +0.000 C 
ATOM     16  O   UNL     1       8.053   5.663  13.777  0.00  0.00    +0.000 OA
BRANCH  15  17
ATOM     17  C   UNL     1       6.273   3.990  13.863  0.00  0.00    +0.000 C 
ATOM     18 CL   UNL     1       6.568   3.554  12.166  0.00  0.00    +0.000 Cl
ENDBRANCH  15  17
ENDBRANCH  14  15
ENDBRANCH  13  14
ENDBRANCH   1  12
TORSDOF 4
ENDMDL
MODEL 4
REMARK VINA RESULT:      -6.7      1.482      1.752
REMARK  Name = 
REMARK  5 active torsions:
REMARK  status: ('A' for Active; 'I' for Inactive)
REMARK    1  A    between atoms: C_1  and  C_2
REMARK    2  A    between atoms: C_2  and  C_9
REMARK    3  A    between atoms: N_3  and  O_4
REMARK    4  A    between atoms: O_4  and  C_5
REMARK    5  A    between atoms: C_5  and  C_7
REMARK                            x       y       z     vdW  Elec       q    Type
REMARK                         _______ _______ _______ _____ _____    ______ ____
ROOT
ATOM      1  C   UNL     1       4.974   4.181  18.704  0.00  0.00    +0.000 A 
ATOM      2  N   UNL     1       4.955   3.270  19.658  0.00  0.00    +0.000 NA
ATOM      3  C   UNL     1       3.662   3.239  20.118  0.00  0.00    +0.000 A 
ATOM      4  C   UNL     1       3.095   2.459  21.136  0.00  0.00    +0.000 A 
ATOM      5  C   UNL     1       1.735   2.624  21.430  0.00  0.00    +0.000 A 
ATOM      6  C   UNL     1       0.958   3.542  20.720  0.00  0.00    +0.000 A 
ATOM      7  C   UNL     1       1.506   4.326  19.696  0.00  0.00    +0.000 A 
ATOM      8  C   UNL     1       2.865   4.144  19.427  0.00  0.00    +0.000 A 
ATOM      9  N   UNL     1       3.722   4.724  18.525  0.00  0.00    +0.000 N 
ATOM     10  H   UNL     1       3.498   5.439  17.845  0.00  0.00    +0.000 HD
ENDROOT
BRANCH   1  12
ATOM     11  C   UNL     1       7.133   5.474  18.669  0.00  0.00    +0.000 C 
ATOM     12  C   UNL     1       6.164   4.550  17.967  0.00  0.00    +0.000 C 
ATOM     13  N   UNL     1       6.311   4.075  16.764  0.00  0.00    +0.000 NA
BRANCH  13  14
ATOM     14  O   UNL     1       7.500   4.514  16.150  0.00  0.00    +0.000 OA
BRANCH  14  15
ATOM     15  C   UNL     1       7.212   5.109  14.936  0.00  0.00    +0.000 C 
ATOM     16  O   UNL     1       8.036   5.522  14.130  0.00  0.00    +0.000 OA
BRANCH  15  17
ATOM     17  C   UNL     1       5.710   5.159  14.786  0.00  0.00    +0.000 C 
ATOM     18 CL   UNL     1       5.049   6.716  15.328  0.00  0.00    +0.000 Cl
ENDBRANCH  15  17
ENDBRANCH  14  15
ENDBRANCH  13  14
ENDBRANCH   1  12
TORSDOF 4
ENDMDL
MODEL 5
REMARK VINA RESULT:      -6.7      3.084      3.861
REMARK  Name = 
REMARK  5 active torsions:
REMARK  status: ('A' for Active; 'I' for Inactive)
REMARK    1  A    between atoms: C_1  and  C_2
REMARK    2  A    between atoms: C_2  and  C_9
REMARK    3  A    between atoms: N_3  and  O_4
REMARK    4  A    between atoms: O_4  and  C_5
REMARK    5  A    between atoms: C_5  and  C_7
REMARK                            x       y       z     vdW  Elec       q    Type
REMARK                         _______ _______ _______ _____ _____    ______ ____
ROOT
ATOM      1  C   UNL     1       4.552   4.828  17.736  0.00  0.00    +0.000 A 
ATOM      2  N   UNL     1       4.084   3.685  17.270  0.00  0.00    +0.000 NA
ATOM      3  C   UNL     1       2.978   3.398  18.029  0.00  0.00    +0.000 A 
ATOM      4  C   UNL     1       2.113   2.296  17.967  0.00  0.00    +0.000 A 
ATOM      5  C   UNL     1       1.048   2.226  18.874  0.00  0.00    +0.000 A 
ATOM      6  C   UNL     1       0.847   3.235  19.818  0.00  0.00    +0.000 A 
ATOM      7  C   UNL     1       1.697   4.347  19.892  0.00  0.00    +0.000 A 
ATOM      8  C   UNL     1       2.754   4.389  18.978  0.00  0.00    +0.000 A 
ATOM      9  N   UNL     1       3.763   5.293  18.764  0.00  0.00    +0.000 N 
ATOM     10  H   UNL     1       3.928   6.154  19.269  0.00  0.00    +0.000 HD
ENDROOT
BRANCH   1  12
ATOM     11  C   UNL     1       6.742   4.596  16.517  0.00  0.00    +0.000 C 
ATOM     12  C   UNL     1       5.740   5.479  17.225  0.00  0.00    +0.000 C 
ATOM     13  N   UNL     1       5.866   6.760  17.417  0.00  0.00    +0.000 NA
BRANCH  13  14
ATOM     14  O   UNL     1       7.065   7.272  16.884  0.00  0.00    +0.000 OA
BRANCH  14  15
ATOM     15  C   UNL     1       7.872   7.739  17.904  0.00  0.00    +0.000 C 
ATOM     16  O   UNL     1       8.376   7.055  18.787  0.00  0.00    +0.000 OA
BRANCH  15  17
ATOM     17  C   UNL     1       8.020   9.233  17.736  0.00  0.00    +0.000 C 
ATOM     18 CL   UNL     1       9.110   9.925  18.956  0.00  0.00    +0.000 Cl
ENDBRANCH  15  17
ENDBRANCH  14  15
ENDBRANCH  13  14
ENDBRANCH   1  12
TORSDOF 4
ENDMDL
MODEL 6
REMARK VINA RESULT:      -6.7      3.197      3.780
REMARK  Name = 
REMARK  5 active torsions:
REMARK  status: ('A' for Active; 'I' for Inactive)
REMARK    1  A    between atoms: C_1  and  C_2
REMARK    2  A    between atoms: C_2  and  C_9
REMARK    3  A    between atoms: N_3  and  O_4
REMARK    4  A    between atoms: O_4  and  C_5
REMARK    5  A    between atoms: C_5  and  C_7
REMARK                            x       y       z     vdW  Elec       q    Type
REMARK                         _______ _______ _______ _____ _____    ______ ____
ROOT
ATOM      1  C   UNL     1       4.906   4.721  17.638  0.00  0.00    +0.000 A 
ATOM      2  N   UNL     1       3.662   4.982  17.284  0.00  0.00    +0.000 NA
ATOM      3  C   UNL     1       2.889   4.042  17.917  0.00  0.00    +0.000 A 
ATOM      4  C   UNL     1       1.500   3.852  17.877  0.00  0.00    +0.000 A 
ATOM      5  C   UNL     1       0.944   2.798  18.613  0.00  0.00    +0.000 A 
ATOM      6  C   UNL     1       1.755   1.955  19.375  0.00  0.00    +0.000 A 
ATOM      7  C   UNL     1       3.144   2.132  19.433  0.00  0.00    +0.000 A 
ATOM      8  C   UNL     1       3.672   3.188  18.686  0.00  0.00    +0.000 A 
ATOM      9  N   UNL     1       4.952   3.648  18.500  0.00  0.00    +0.000 N 
ATOM     10  H   UNL     1       5.799   3.273  18.905  0.00  0.00    +0.000 HD
ENDROOT
BRANCH   1  12
ATOM     11  C   UNL     1       7.126   4.679  16.454  0.00  0.00    +0.000 C 
ATOM     12  C   UNL     1       6.052   5.469  17.165  0.00  0.00    +0.000 C 
ATOM     13  N   UNL     1       6.082   6.751  17.390  0.00  0.00    +0.000 NA
BRANCH  13  14
ATOM     14  O   UNL     1       7.249   7.361  16.891  0.00  0.00    +0.000 OA
BRANCH  14  15
ATOM     15  C   UNL     1       8.016   7.836  17.937  0.00  0.00    +0.000 C 
ATOM     16  O   UNL     1       8.509   7.154  18.828  0.00  0.00    +0.000 OA
BRANCH  15  17
ATOM     17  C   UNL     1       8.135   9.334  17.787  0.00  0.00    +0.000 C 
ATOM     18 CL   UNL     1       9.176  10.038  19.043  0.00  0.00    +0.000 Cl
ENDBRANCH  15  17
ENDBRANCH  14  15
ENDBRANCH  13  14
ENDBRANCH   1  12
TORSDOF 4
ENDMDL
MODEL 7
REMARK VINA RESULT:      -6.7      3.102      3.626
REMARK  Name = 
REMARK  5 active torsions:
REMARK  status: ('A' for Active; 'I' for Inactive)
REMARK    1  A    between atoms: C_1  and  C_2
REMARK    2  A    between atoms: C_2  and  C_9
REMARK    3  A    between atoms: N_3  and  O_4
REMARK    4  A    between atoms: O_4  and  C_5
REMARK    5  A    between atoms: C_5  and  C_7
REMARK                            x       y       z     vdW  Elec       q    Type
REMARK                         _______ _______ _______ _____ _____    ______ ____
ROOT
ATOM      1  C   UNL     1       4.541   4.876  17.783  0.00  0.00    +0.000 A 
ATOM      2  N   UNL     1       3.827   5.341  18.791  0.00  0.00    +0.000 NA
ATOM      3  C   UNL     1       2.812   4.437  18.976  0.00  0.00    +0.000 A 
ATOM      4  C   UNL     1       1.761   4.452  19.905  0.00  0.00    +0.000 A 
ATOM      5  C   UNL     1       0.831   3.405  19.882  0.00  0.00    +0.000 A 
ATOM      6  C   UNL     1       0.949   2.364  18.959  0.00  0.00    +0.000 A 
ATOM      7  C   UNL     1       1.995   2.329  18.027  0.00  0.00    +0.000 A 
ATOM      8  C   UNL     1       2.906   3.388  18.068  0.00  0.00    +0.000 A 
ATOM      9  N   UNL     1       4.022   3.686  17.327  0.00  0.00    +0.000 N 
ATOM     10  H   UNL     1       4.408   3.146  16.563  0.00  0.00    +0.000 HD
ENDROOT
BRANCH   1  12
ATOM     11  C   UNL     1       6.685   4.691  16.478  0.00  0.00    +0.000 C 
ATOM     12  C   UNL     1       5.703   5.549  17.242  0.00  0.00    +0.000 C 
ATOM     13  N   UNL     1       5.825   6.828  17.455  0.00  0.00    +0.000 NA
BRANCH  13  14
ATOM     14  O   UNL     1       6.999   7.361  16.887  0.00  0.00    +0.000 OA
BRANCH  14  15
ATOM     15  C   UNL     1       7.859   7.775  17.887  0.00  0.00    +0.000 C 
ATOM     16  O   UNL     1       8.350   7.057  18.748  0.00  0.00    +0.000 OA
BRANCH  15  17
ATOM     17  C   UNL     1       8.079   9.261  17.727  0.00  0.00    +0.000 C 
ATOM     18 CL   UNL     1       9.100   9.915  19.026  0.00  0.00    +0.000 Cl
ENDBRANCH  15  17
ENDBRANCH  14  15
ENDBRANCH  13  14
ENDBRANCH   1  12
TORSDOF 4
ENDMDL
MODEL 8
REMARK VINA RESULT:      -6.7      1.256      1.800
REMARK  Name = 
REMARK  5 active torsions:
REMARK  status: ('A' for Active; 'I' for Inactive)
REMARK    1  A    between atoms: C_1  and  C_2
REMARK    2  A    between atoms: C_2  and  C_9
REMARK    3  A    between atoms: N_3  and  O_4
REMARK    4  A    between atoms: O_4  and  C_5
REMARK    5  A    between atoms: C_5  and  C_7
REMARK                            x       y       z     vdW  Elec       q    Type
REMARK                         _______ _______ _______ _____ _____    ______ ____
ROOT
ATOM      1  C   UNL     1       4.480   5.082  18.038  0.00  0.00    +0.000 A 
ATOM      2  N   UNL     1       4.743   3.866  18.479  0.00  0.00    +0.000 NA
ATOM      3  C   UNL     1       3.872   3.650  19.517  0.00  0.00    +0.000 A 
ATOM      4  C   UNL     1       3.731   2.528  20.346  0.00  0.00    +0.000 A 
ATOM      5  C   UNL     1       2.763   2.557  21.357  0.00  0.00    +0.000 A 
ATOM      6  C   UNL     1       1.950   3.679  21.535  0.00  0.00    +0.000 A 
ATOM      7  C   UNL     1       2.072   4.807  20.713  0.00  0.00    +0.000 A 
ATOM      8  C   UNL     1       3.049   4.753  19.715  0.00  0.00    +0.000 A 
ATOM      9  N   UNL     1       3.448   5.646  18.753  0.00  0.00    +0.000 N 
ATOM     10  H   UNL     1       3.074   6.571  18.588  0.00  0.00    +0.000 HD
ENDROOT
BRANCH   1  12
ATOM     11  C   UNL     1       5.938   6.992  17.290  0.00  0.00    +0.000 C 
ATOM     12  C   UNL     1       5.198   5.718  16.953  0.00  0.00    +0.000 C 
ATOM     13  N   UNL     1       5.150   5.161  15.778  0.00  0.00    +0.000 NA
BRANCH  13  14
ATOM     14  O   UNL     1       5.879   5.879  14.809  0.00  0.00    +0.000 OA
BRANCH  14  15
ATOM     15  C   UNL     1       6.877   5.081  14.284  0.00  0.00    +0.000 C 
ATOM     16  O   UNL     1       8.017   5.443  14.021  0.00  0.00    +0.000 OA
BRANCH  15  17
ATOM     17  C   UNL     1       6.312   3.693  14.091  0.00  0.00    +0.000 C 
ATOM     18 CL   UNL     1       5.608   3.491  12.472  0.00  0.00    +0.000 Cl
ENDBRANCH  15  17
ENDBRANCH  14  15
ENDBRANCH  13  14
ENDBRANCH   1  12
TORSDOF 4
ENDMDL
MODEL 9
REMARK VINA RESULT:      -6.7      4.076      6.362
REMARK  Name = 
REMARK  5 active torsions:
REMARK  status: ('A' for Active; 'I' for Inactive)
REMARK    1  A    between atoms: C_1  and  C_2
REMARK    2  A    between atoms: C_2  and  C_9
REMARK    3  A    between atoms: N_3  and  O_4
REMARK    4  A    between atoms: O_4  and  C_5
REMARK    5  A    between atoms: C_5  and  C_7
REMARK                            x       y       z     vdW  Elec       q    Type
REMARK                         _______ _______ _______ _____ _____    ______ ____
ROOT
ATOM      1  C   UNL     1       4.738   4.191  18.153  0.00  0.00    +0.000 A 
ATOM      2  N   UNL     1       4.749   5.240  17.353  0.00  0.00    +0.000 NA
ATOM      3  C   UNL     1       5.891   5.935  17.666  0.00  0.00    +0.000 A 
ATOM      4  C   UNL     1       6.383   7.133  17.129  0.00  0.00    +0.000 A 
ATOM      5  C   UNL     1       7.582   7.652  17.634  0.00  0.00    +0.000 A 
ATOM      6  C   UNL     1       8.276   6.990  18.649  0.00  0.00    +0.000 A 
ATOM      7  C   UNL     1       7.802   5.789  19.194  0.00  0.00    +0.000 A 
ATOM      8  C   UNL     1       6.603   5.295  18.675  0.00  0.00    +0.000 A 
ATOM      9  N   UNL     1       5.853   4.181  18.960  0.00  0.00    +0.000 N 
ATOM     10  H   UNL     1       6.058   3.469  19.649  0.00  0.00    +0.000 HD
ENDROOT
BRANCH   1  12
ATOM     11  C   UNL     1       2.969   2.955  16.858  0.00  0.00    +0.000 C 
ATOM     12  C   UNL     1       3.680   3.202  18.168  0.00  0.00    +0.000 C 
ATOM     13  N   UNL     1       3.413   2.608  19.296  0.00  0.00    +0.000 NA
BRANCH  13  14
ATOM     14  O   UNL     1       2.361   1.678  19.182  0.00  0.00    +0.000 OA
BRANCH  14  15
ATOM     15  C   UNL     1       1.160   2.285  19.494  0.00  0.00    +0.000 C 
ATOM     16  O   UNL     1       0.147   2.262  18.805  0.00  0.00    +0.000 OA
BRANCH  15  17
ATOM     17  C   UNL     1       1.320   2.979  20.827  0.00  0.00    +0.000 C 
ATOM     18 CL   UNL     1       1.196   4.744  20.666  0.00  0.00    +0.000 Cl
ENDBRANCH  15  17
ENDBRANCH  14  15
ENDBRANCH  13  14
ENDBRANCH   1  12
TORSDOF 4
ENDMDL
