MODEL 1
REMARK VINA RESULT:      -8.8      0.000      0.000
REMARK  Name = 
REMARK  7 active torsions:
REMARK  status: ('A' for Active; 'I' for Inactive)
REMARK    1  A    between atoms: C_1  and  C_2
REMARK    2  A    between atoms: C_7  and  C_8
REMARK    3  A    between atoms: C_11  and  C_12
REMARK    4  A    between atoms: C_15  and  O_16
REMARK    5  A    between atoms: O_16  and  C_17
REMARK    6  A    between atoms: C_20  and  C_21
REMARK    7  A    between atoms: C_21  and  O_23
REMARK                            x       y       z     vdW  Elec       q    Type
REMARK                         _______ _______ _______ _____ _____    ______ ____
ROOT
ATOM      1  C   UNL     1       2.725   7.483  18.656  0.00  0.00    +0.000 A 
ATOM      2  C   UNL     1       2.361   6.993  19.910  0.00  0.00    +0.000 A 
ATOM      3  C   UNL     1       1.559   7.762  20.757  0.00  0.00    +0.000 A 
ATOM      4  C   UNL     1       1.137   9.025  20.346  0.00  0.00    +0.000 A 
ATOM      5  N   UNL     1       1.491   9.524  19.134  0.00  0.00    +0.000 NA
ATOM      6  C   UNL     1       2.270   8.754  18.332  0.00  0.00    +0.000 A 
ENDROOT
BRANCH   1  13
ATOM      7  C   UNL     1       7.296   4.880  13.722  0.00  0.00    +0.000 C 
ATOM      8  C   UNL     1       6.293   4.872  14.840  0.00  0.00    +0.000 A 
ATOM      9  C   UNL     1       5.893   3.656  15.407  0.00  0.00    +0.000 A 
ATOM     10  C   UNL     1       4.966   3.637  16.448  0.00  0.00    +0.000 A 
ATOM     11  C   UNL     1       4.507   4.888  16.842  0.00  0.00    +0.000 A 
ATOM     12  N   UNL     1       3.624   5.309  17.796  0.00  0.00    +0.000 N 
ATOM     13  C   UNL     1       3.554   6.685  17.757  0.00  0.00    +0.000 A 
ATOM     14  N   UNL     1       4.365   7.155  16.825  0.00  0.00    +0.000 NA
ATOM     15  C   UNL     1       4.947   6.060  16.247  0.00  0.00    +0.000 A 
ATOM     16  N   UNL     1       5.842   6.086  15.237  0.00  0.00    +0.000 NA
ATOM     17  H   UNL     1       3.134   4.712  18.446  0.00  0.00    +0.000 HD
ENDBRANCH   1  13
BRANCH   4  18
ATOM     18  C   UNL     1       0.313   9.913  21.183  0.00  0.00    +0.000 A 
ATOM     19  C   UNL     1      -0.328   9.492  22.359  0.00  0.00    +0.000 A 
ATOM     20  C   UNL     1      -1.086  10.389  23.114  0.00  0.00    +0.000 A 
ATOM     21  C   UNL     1      -1.206  11.691  22.663  0.00  0.00    +0.000 A 
ATOM     22  N   UNL     1      -0.609  12.150  21.547  0.00  0.00    +0.000 NA
ATOM     23  C   UNL     1       0.124  11.254  20.840  0.00  0.00    +0.000 A 
BRANCH  21  24
ATOM     24  O   UNL     1      -2.009  12.532  23.404  0.00  0.00    +0.000 OA
BRANCH  24  25
ATOM     25  C   UNL     1      -3.410  12.233  23.305  0.00  0.00    +0.000 C 
ATOM     26  C   UNL     1      -4.168  12.826  24.503  0.00  0.00    +0.000 C 
ATOM     27  C   UNL     1      -5.675  12.661  24.358  0.00  0.00    +0.000 C 
ATOM     28  C   UNL     1      -6.199  13.317  23.079  0.00  0.00    +0.000 C 
ATOM     29  C   UNL     1      -5.442  12.771  21.856  0.00  0.00    +0.000 C 
ATOM     30  C   UNL     1      -3.919  12.855  21.998  0.00  0.00    +0.000 C 
BRANCH  28  31
ATOM     31  C   UNL     1      -6.144  14.841  23.150  0.00  0.00    +0.000 C 
ATOM     32  O   UNL     1      -5.973  15.583  22.196  0.00  0.00    +0.000 OA
BRANCH  31  33
ATOM     33  O   UNL     1      -6.343  15.328  24.397  0.00  0.00    +0.000 OA
ATOM     34  H   UNL     1      -6.356  16.301  24.454  0.00  0.00    +0.000 HD
ENDBRANCH  31  33
ENDBRANCH  28  31
ENDBRANCH  24  25
ENDBRANCH  21  24
ENDBRANCH   4  18
TORSDOF 6
ENDMDL
MODEL 2
REMARK VINA RESULT:      -8.7      1.248      1.765
REMARK  Name = 
REMARK  7 active torsions:
REMARK  status: ('A' for Active; 'I' for Inactive)
REMARK    1  A    between atoms: C_1  and  C_2
REMARK    2  A    between atoms: C_7  and  C_8
REMARK    3  A    between atoms: C_11  and  C_12
REMARK    4  A    between atoms: C_15  and  O_16
REMARK    5  A    between atoms: O_16  and  C_17
REMARK    6  A    between atoms: C_20  and  C_21
REMARK    7  A    between atoms: C_21  and  O_23
REMARK                            x       y       z     vdW  Elec       q    Type
REMARK                         _______ _______ _______ _____ _____    ______ ____
ROOT
ATOM      1  C   UNL     1       2.170   7.976  18.990  0.00  0.00    +0.000 A 
ATOM      2  C   UNL     1       1.823   7.628  20.295  0.00  0.00    +0.000 A 
ATOM      3  C   UNL     1       1.005   8.471  21.052  0.00  0.00    +0.000 A 
ATOM      4  C   UNL     1       0.550   9.666  20.499  0.00  0.00    +0.000 A 
ATOM      5  N   UNL     1       0.887  10.028  19.234  0.00  0.00    +0.000 NA
ATOM      6  C   UNL     1       1.682   9.189  18.522  0.00  0.00    +0.000 A 
ENDROOT
BRANCH   1  13
ATOM      7  C   UNL     1       6.972   4.929  14.556  0.00  0.00    +0.000 C 
ATOM      8  C   UNL     1       5.869   5.021  15.571  0.00  0.00    +0.000 A 
ATOM      9  C   UNL     1       5.319   3.851  16.108  0.00  0.00    +0.000 A 
ATOM     10  C   UNL     1       4.297   3.925  17.054  0.00  0.00    +0.000 A 
ATOM     11  C   UNL     1       3.905   5.215  17.387  0.00  0.00    +0.000 A 
ATOM     12  N   UNL     1       2.970   5.722  18.246  0.00  0.00    +0.000 N 
ATOM     13  C   UNL     1       3.015   7.099  18.186  0.00  0.00    +0.000 A 
ATOM     14  N   UNL     1       3.948   7.486  17.332  0.00  0.00    +0.000 NA
ATOM     15  C   UNL     1       4.493   6.337  16.826  0.00  0.00    +0.000 A 
ATOM     16  N   UNL     1       5.481   6.274  15.908  0.00  0.00    +0.000 NA
ATOM     17  H   UNL     1       2.373   5.178  18.851  0.00  0.00    +0.000 HD
ENDBRANCH   1  13
BRANCH   4  18
ATOM     18  C   UNL     1      -0.292  10.626  21.232  0.00  0.00    +0.000 A 
ATOM     19  C   UNL     1      -0.829  11.785  20.650  0.00  0.00    +0.000 A 
ATOM     20  C   UNL     1      -1.632  12.648  21.398  0.00  0.00    +0.000 A 
ATOM     21  C   UNL     1      -1.863  12.344  22.728  0.00  0.00    +0.000 A 
ATOM     22  N   UNL     1      -1.378  11.246  23.336  0.00  0.00    +0.000 NA
ATOM     23  C   UNL     1      -0.608  10.425  22.578  0.00  0.00    +0.000 A 
BRANCH  21  24
ATOM     24  O   UNL     1      -2.612  13.250  23.449  0.00  0.00    +0.000 OA
BRANCH  24  25
ATOM     25  C   UNL     1      -3.800  13.689  22.773  0.00  0.00    +0.000 C 
ATOM     26  C   UNL     1      -4.638  12.481  22.327  0.00  0.00    +0.000 C 
ATOM     27  C   UNL     1      -5.978  12.906  21.741  0.00  0.00    +0.000 C 
ATOM     28  C   UNL     1      -6.801  13.725  22.738  0.00  0.00    +0.000 C 
ATOM     29  C   UNL     1      -5.984  14.931  23.233  0.00  0.00    +0.000 C 
ATOM     30  C   UNL     1      -4.598  14.548  23.764  0.00  0.00    +0.000 C 
BRANCH  28  31
ATOM     31  C   UNL     1      -7.318  12.873  23.894  0.00  0.00    +0.000 C 
ATOM     32  O   UNL     1      -7.400  11.655  23.887  0.00  0.00    +0.000 OA
BRANCH  31  33
ATOM     33  O   UNL     1      -7.661  13.598  24.984  0.00  0.00    +0.000 OA
ATOM     34  H   UNL     1      -8.588  13.898  24.997  0.00  0.00    +0.000 HD
ENDBRANCH  31  33
ENDBRANCH  28  31
ENDBRANCH  24  25
ENDBRANCH  21  24
ENDBRANCH   4  18
TORSDOF 6
ENDMDL
MODEL 3
REMARK VINA RESULT:      -8.7      0.989      1.536
REMARK  Name = 
REMARK  7 active torsions:
REMARK  status: ('A' for Active; 'I' for Inactive)
REMARK    1  A    between atoms: C_1  and  C_2
REMARK    2  A    between atoms: C_7  and  C_8
REMARK    3  A    between atoms: C_11  and  C_12
REMARK    4  A    between atoms: C_15  and  O_16
REMARK    5  A    between atoms: O_16  and  C_17
REMARK    6  A    between atoms: C_20  and  C_21
REMARK    7  A    between atoms: C_21  and  O_23
REMARK                            x       y       z     vdW  Elec       q    Type
REMARK                         _______ _______ _______ _____ _____    ______ ____
ROOT
ATOM      1  C   UNL     1       2.580   7.763  18.614  0.00  0.00    +0.000 A 
ATOM      2  C   UNL     1       2.090   8.973  18.123  0.00  0.00    +0.000 A 
ATOM      3  C   UNL     1       1.309   9.796  18.938  0.00  0.00    +0.000 A 
ATOM      4  C   UNL     1       1.013   9.394  20.239  0.00  0.00    +0.000 A 
ATOM      5  N   UNL     1       1.471   8.214  20.731  0.00  0.00    +0.000 NA
ATOM      6  C   UNL     1       2.228   7.436  19.917  0.00  0.00    +0.000 A 
ENDROOT
BRANCH   1  13
ATOM      7  C   UNL     1       7.151   4.796  13.890  0.00  0.00    +0.000 C 
ATOM      8  C   UNL     1       6.142   4.872  15.000  0.00  0.00    +0.000 A 
ATOM      9  C   UNL     1       5.725   3.699  15.641  0.00  0.00    +0.000 A 
ATOM     10  C   UNL     1       4.791   3.758  16.675  0.00  0.00    +0.000 A 
ATOM     11  C   UNL     1       4.344   5.037  16.984  0.00  0.00    +0.000 A 
ATOM     12  N   UNL     1       3.460   5.528  17.903  0.00  0.00    +0.000 N 
ATOM     13  C   UNL     1       3.406   6.900  17.775  0.00  0.00    +0.000 A 
ATOM     14  N   UNL     1       4.228   7.299  16.819  0.00  0.00    +0.000 NA
ATOM     15  C   UNL     1       4.801   6.163  16.317  0.00  0.00    +0.000 A 
ATOM     16  N   UNL     1       5.702   6.113  15.314  0.00  0.00    +0.000 NA
ATOM     17  H   UNL     1       2.960   4.980  18.587  0.00  0.00    +0.000 HD
ENDBRANCH   1  13
BRANCH   4  18
ATOM     18  C   UNL     1       0.176  10.184  21.158  0.00  0.00    +0.000 A 
ATOM     19  C   UNL     1      -0.339   9.679  22.361  0.00  0.00    +0.000 A 
ATOM     20  C   UNL     1      -1.116  10.487  23.195  0.00  0.00    +0.000 A 
ATOM     21  C   UNL     1      -1.382  11.783  22.792  0.00  0.00    +0.000 A 
ATOM     22  N   UNL     1      -0.911  12.320  21.652  0.00  0.00    +0.000 NA
ATOM     23  C   UNL     1      -0.154  11.511  20.869  0.00  0.00    +0.000 A 
BRANCH  21  24
ATOM     24  O   UNL     1      -2.201  12.530  23.613  0.00  0.00    +0.000 OA
BRANCH  24  25
ATOM     25  C   UNL     1      -3.178  13.308  22.905  0.00  0.00    +0.000 C 
ATOM     26  C   UNL     1      -4.190  12.387  22.206  0.00  0.00    +0.000 C 
ATOM     27  C   UNL     1      -5.328  13.174  21.570  0.00  0.00    +0.000 C 
ATOM     28  C   UNL     1      -6.076  14.024  22.599  0.00  0.00    +0.000 C 
ATOM     29  C   UNL     1      -5.092  14.941  23.344  0.00  0.00    +0.000 C 
ATOM     30  C   UNL     1      -3.893  14.192  23.936  0.00  0.00    +0.000 C 
BRANCH  28  31
ATOM     31  C   UNL     1      -6.900  13.171  23.560  0.00  0.00    +0.000 C 
ATOM     32  O   UNL     1      -7.155  11.987  23.406  0.00  0.00    +0.000 OA
BRANCH  31  33
ATOM     33  O   UNL     1      -7.312  13.845  24.659  0.00  0.00    +0.000 OA
ATOM     34  H   UNL     1      -8.271  13.798  24.828  0.00  0.00    +0.000 HD
ENDBRANCH  31  33
ENDBRANCH  28  31
ENDBRANCH  24  25
ENDBRANCH  21  24
ENDBRANCH   4  18
TORSDOF 6
ENDMDL
MODEL 4
REMARK VINA RESULT:      -8.6      1.308      1.717
REMARK  Name = 
REMARK  7 active torsions:
REMARK  status: ('A' for Active; 'I' for Inactive)
REMARK    1  A    between atoms: C_1  and  C_2
REMARK    2  A    between atoms: C_7  and  C_8
REMARK    3  A    between atoms: C_11  and  C_12
REMARK    4  A    between atoms: C_15  and  O_16
REMARK    5  A    between atoms: O_16  and  C_17
REMARK    6  A    between atoms: C_20  and  C_21
REMARK    7  A    between atoms: C_21  and  O_23
REMARK                            x       y       z     vdW  Elec       q    Type
REMARK                         _______ _______ _______ _____ _____    ______ ____
ROOT
ATOM      1  C   UNL     1       2.069   8.011  19.014  0.00  0.00    +0.000 A 
ATOM      2  C   UNL     1       1.825   7.735  20.359  0.00  0.00    +0.000 A 
ATOM      3  C   UNL     1       0.996   8.574  21.108  0.00  0.00    +0.000 A 
ATOM      4  C   UNL     1       0.426   9.694  20.506  0.00  0.00    +0.000 A 
ATOM      5  N   UNL     1       0.661   9.985  19.200  0.00  0.00    +0.000 NA
ATOM      6  C   UNL     1       1.469   9.152  18.497  0.00  0.00    +0.000 A 
ENDROOT
BRANCH   1  13
ATOM      7  C   UNL     1       6.996   4.970  14.714  0.00  0.00    +0.000 C 
ATOM      8  C   UNL     1       5.842   5.062  15.671  0.00  0.00    +0.000 A 
ATOM      9  C   UNL     1       5.222   3.892  16.127  0.00  0.00    +0.000 A 
ATOM     10  C   UNL     1       4.153   3.966  17.019  0.00  0.00    +0.000 A 
ATOM     11  C   UNL     1       3.789   5.255  17.387  0.00  0.00    +0.000 A 
ATOM     12  N   UNL     1       2.827   5.760  18.216  0.00  0.00    +0.000 N 
ATOM     13  C   UNL     1       2.925   7.136  18.218  0.00  0.00    +0.000 A 
ATOM     14  N   UNL     1       3.917   7.522  17.434  0.00  0.00    +0.000 NA
ATOM     15  C   UNL     1       4.447   6.376  16.908  0.00  0.00    +0.000 A 
ATOM     16  N   UNL     1       5.482   6.313  16.042  0.00  0.00    +0.000 NA
ATOM     17  H   UNL     1       2.179   5.215  18.763  0.00  0.00    +0.000 HD
ENDBRANCH   1  13
BRANCH   4  18
ATOM     18  C   UNL     1      -0.438  10.646  21.224  0.00  0.00    +0.000 A 
ATOM     19  C   UNL     1      -0.795  10.499  22.573  0.00  0.00    +0.000 A 
ATOM     20  C   UNL     1      -1.608  11.445  23.199  0.00  0.00    +0.000 A 
ATOM     21  C   UNL     1      -2.069  12.513  22.451  0.00  0.00    +0.000 A 
ATOM     22  N   UNL     1      -1.754  12.707  21.157  0.00  0.00    +0.000 NA
ATOM     23  C   UNL     1      -0.957  11.772  20.581  0.00  0.00    +0.000 A 
BRANCH  21  24
ATOM     24  O   UNL     1      -2.916  13.396  23.088  0.00  0.00    +0.000 OA
BRANCH  24  25
ATOM     25  C   UNL     1      -4.132  13.655  22.369  0.00  0.00    +0.000 C 
ATOM     26  C   UNL     1      -4.905  12.347  22.139  0.00  0.00    +0.000 C 
ATOM     27  C   UNL     1      -6.270  12.598  21.513  0.00  0.00    +0.000 C 
ATOM     28  C   UNL     1      -7.130  13.525  22.376  0.00  0.00    +0.000 C 
ATOM     29  C   UNL     1      -6.377  14.837  22.655  0.00  0.00    +0.000 C 
ATOM     30  C   UNL     1      -4.969  14.621  23.218  0.00  0.00    +0.000 C 
BRANCH  28  31
ATOM     31  C   UNL     1      -7.592  12.847  23.663  0.00  0.00    +0.000 C 
ATOM     32  O   UNL     1      -7.869  13.427  24.701  0.00  0.00    +0.000 OA
BRANCH  31  33
ATOM     33  O   UNL     1      -7.711  11.504  23.551  0.00  0.00    +0.000 OA
ATOM     34  H   UNL     1      -7.157  10.994  24.171  0.00  0.00    +0.000 HD
ENDBRANCH  31  33
ENDBRANCH  28  31
ENDBRANCH  24  25
ENDBRANCH  21  24
ENDBRANCH   4  18
TORSDOF 6
ENDMDL
MODEL 5
REMARK VINA RESULT:      -8.5      0.557      1.064
REMARK  Name = 
REMARK  7 active torsions:
REMARK  status: ('A' for Active; 'I' for Inactive)
REMARK    1  A    between atoms: C_1  and  C_2
REMARK    2  A    between atoms: C_7  and  C_8
REMARK    3  A    between atoms: C_11  and  C_12
REMARK    4  A    between atoms: C_15  and  O_16
REMARK    5  A    between atoms: O_16  and  C_17
REMARK    6  A    between atoms: C_20  and  C_21
REMARK    7  A    between atoms: C_21  and  O_23
REMARK                            x       y       z     vdW  Elec       q    Type
REMARK                         _______ _______ _______ _____ _____    ______ ____
ROOT
ATOM      1  C   UNL     1       2.558   7.757  18.573  0.00  0.00    +0.000 A 
ATOM      2  C   UNL     1       2.019   8.924  18.032  0.00  0.00    +0.000 A 
ATOM      3  C   UNL     1       1.225   9.760  18.821  0.00  0.00    +0.000 A 
ATOM      4  C   UNL     1       0.965   9.413  20.145  0.00  0.00    +0.000 A 
ATOM      5  N   UNL     1       1.471   8.275  20.686  0.00  0.00    +0.000 NA
ATOM      6  C   UNL     1       2.240   7.483  19.896  0.00  0.00    +0.000 A 
ENDROOT
BRANCH   1  13
ATOM      7  C   UNL     1       7.233   4.717  13.999  0.00  0.00    +0.000 C 
ATOM      8  C   UNL     1       6.191   4.809  15.077  0.00  0.00    +0.000 A 
ATOM      9  C   UNL     1       5.739   3.643  15.707  0.00  0.00    +0.000 A 
ATOM     10  C   UNL     1       4.775   3.718  16.713  0.00  0.00    +0.000 A 
ATOM     11  C   UNL     1       4.335   5.002  17.004  0.00  0.00    +0.000 A 
ATOM     12  N   UNL     1       3.430   5.508  17.895  0.00  0.00    +0.000 N 
ATOM     13  C   UNL     1       3.398   6.880  17.761  0.00  0.00    +0.000 A 
ATOM     14  N   UNL     1       4.254   7.266  16.831  0.00  0.00    +0.000 NA
ATOM     15  C   UNL     1       4.827   6.121  16.349  0.00  0.00    +0.000 A 
ATOM     16  N   UNL     1       5.758   6.057  15.374  0.00  0.00    +0.000 NA
ATOM     17  H   UNL     1       2.902   4.969  18.564  0.00  0.00    +0.000 HD
ENDBRANCH   1  13
BRANCH   4  18
ATOM     18  C   UNL     1       0.118  10.220  21.040  0.00  0.00    +0.000 A 
ATOM     19  C   UNL     1      -0.318   9.778  22.298  0.00  0.00    +0.000 A 
ATOM     20  C   UNL     1      -1.110  10.599  23.104  0.00  0.00    +0.000 A 
ATOM     21  C   UNL     1      -1.470  11.844  22.621  0.00  0.00    +0.000 A 
ATOM     22  N   UNL     1      -1.076  12.321  21.426  0.00  0.00    +0.000 NA
ATOM     23  C   UNL     1      -0.302  11.501  20.671  0.00  0.00    +0.000 A 
BRANCH  21  24
ATOM     24  O   UNL     1      -2.299  12.602  23.420  0.00  0.00    +0.000 OA
BRANCH  24  25
ATOM     25  C   UNL     1      -3.691  12.277  23.285  0.00  0.00    +0.000 C 
ATOM     26  C   UNL     1      -4.489  12.842  24.470  0.00  0.00    +0.000 C 
ATOM     27  C   UNL     1      -5.989  12.648  24.287  0.00  0.00    +0.000 C 
ATOM     28  C   UNL     1      -6.495  13.309  23.003  0.00  0.00    +0.000 C 
ATOM     29  C   UNL     1      -5.699  12.792  21.793  0.00  0.00    +0.000 C 
ATOM     30  C   UNL     1      -4.182  12.904  21.972  0.00  0.00    +0.000 C 
BRANCH  28  31
ATOM     31  C   UNL     1      -6.472  14.832  23.093  0.00  0.00    +0.000 C 
ATOM     32  O   UNL     1      -6.394  15.474  24.128  0.00  0.00    +0.000 OA
BRANCH  31  33
ATOM     33  O   UNL     1      -6.509  15.442  21.885  0.00  0.00    +0.000 OA
ATOM     34  H   UNL     1      -7.345  15.905  21.690  0.00  0.00    +0.000 HD
ENDBRANCH  31  33
ENDBRANCH  28  31
ENDBRANCH  24  25
ENDBRANCH  21  24
ENDBRANCH   4  18
TORSDOF 6
ENDMDL
MODEL 6
REMARK VINA RESULT:      -8.5      0.881      1.212
REMARK  Name = 
REMARK  7 active torsions:
REMARK  status: ('A' for Active; 'I' for Inactive)
REMARK    1  A    between atoms: C_1  and  C_2
REMARK    2  A    between atoms: C_7  and  C_8
REMARK    3  A    between atoms: C_11  and  C_12
REMARK    4  A    between atoms: C_15  and  O_16
REMARK    5  A    between atoms: O_16  and  C_17
REMARK    6  A    between atoms: C_20  and  C_21
REMARK    7  A    between atoms: C_21  and  O_23
REMARK                            x       y       z     vdW  Elec       q    Type
REMARK                         _______ _______ _______ _____ _____    ______ ____
ROOT
ATOM      1  C   UNL     1       2.622   7.450  18.697  0.00  0.00    +0.000 A 
ATOM      2  C   UNL     1       2.298   6.977  19.968  0.00  0.00    +0.000 A 
ATOM      3  C   UNL     1       1.466   7.727  20.804  0.00  0.00    +0.000 A 
ATOM      4  C   UNL     1       0.976   8.955  20.364  0.00  0.00    +0.000 A 
ATOM      5  N   UNL     1       1.291   9.438  19.134  0.00  0.00    +0.000 NA
ATOM      6  C   UNL     1       2.099   8.687  18.344  0.00  0.00    +0.000 A 
ENDROOT
BRANCH   1  13
ATOM      7  C   UNL     1       7.337   4.950  13.845  0.00  0.00    +0.000 C 
ATOM      8  C   UNL     1       6.309   4.919  14.940  0.00  0.00    +0.000 A 
ATOM      9  C   UNL     1       5.911   3.693  15.485  0.00  0.00    +0.000 A 
ATOM     10  C   UNL     1       4.960   3.653  16.505  0.00  0.00    +0.000 A 
ATOM     11  C   UNL     1       4.478   4.894  16.900  0.00  0.00    +0.000 A 
ATOM     12  N   UNL     1       3.568   5.295  17.837  0.00  0.00    +0.000 N 
ATOM     13  C   UNL     1       3.482   6.671  17.810  0.00  0.00    +0.000 A 
ATOM     14  N   UNL     1       4.308   7.159  16.901  0.00  0.00    +0.000 NA
ATOM     15  C   UNL     1       4.917   6.077  16.326  0.00  0.00    +0.000 A 
ATOM     16  N   UNL     1       5.834   6.123  15.337  0.00  0.00    +0.000 NA
ATOM     17  H   UNL     1       3.071   4.687  18.470  0.00  0.00    +0.000 HD
ENDBRANCH   1  13
BRANCH   4  18
ATOM     18  C   UNL     1       0.117   9.823  21.187  0.00  0.00    +0.000 A 
ATOM     19  C   UNL     1      -0.205   9.547  22.525  0.00  0.00    +0.000 A 
ATOM     20  C   UNL     1      -1.016  10.419  23.254  0.00  0.00    +0.000 A 
ATOM     21  C   UNL     1      -1.511  11.543  22.618  0.00  0.00    +0.000 A 
ATOM     22  N   UNL     1      -1.231  11.860  21.340  0.00  0.00    +0.000 NA
ATOM     23  C   UNL     1      -0.435  10.994  20.662  0.00  0.00    +0.000 A 
BRANCH  21  24
ATOM     24  O   UNL     1      -2.355  12.349  23.352  0.00  0.00    +0.000 OA
BRANCH  24  25
ATOM     25  C   UNL     1      -3.137  13.251  22.554  0.00  0.00    +0.000 C 
ATOM     26  C   UNL     1      -4.636  12.985  22.762  0.00  0.00    +0.000 C 
ATOM     27  C   UNL     1      -5.499  14.018  22.049  0.00  0.00    +0.000 C 
ATOM     28  C   UNL     1      -5.188  15.441  22.520  0.00  0.00    +0.000 C 
ATOM     29  C   UNL     1      -3.688  15.736  22.356  0.00  0.00    +0.000 C 
ATOM     30  C   UNL     1      -2.787  14.677  23.000  0.00  0.00    +0.000 C 
BRANCH  28  31
ATOM     31  C   UNL     1      -5.667  15.691  23.947  0.00  0.00    +0.000 C 
ATOM     32  O   UNL     1      -5.199  16.522  24.709  0.00  0.00    +0.000 OA
BRANCH  31  33
ATOM     33  O   UNL     1      -6.716  14.915  24.306  0.00  0.00    +0.000 OA
ATOM     34  H   UNL     1      -7.258  14.596  23.561  0.00  0.00    +0.000 HD
ENDBRANCH  31  33
ENDBRANCH  28  31
ENDBRANCH  24  25
ENDBRANCH  21  24
ENDBRANCH   4  18
TORSDOF 6
ENDMDL
MODEL 7
REMARK VINA RESULT:      -8.5      4.824     11.946
REMARK  Name = 
REMARK  7 active torsions:
REMARK  status: ('A' for Active; 'I' for Inactive)
REMARK    1  A    between atoms: C_1  and  C_2
REMARK    2  A    between atoms: C_7  and  C_8
REMARK    3  A    between atoms: C_11  and  C_12
REMARK    4  A    between atoms: C_15  and  O_16
REMARK    5  A    between atoms: O_16  and  C_17
REMARK    6  A    between atoms: C_20  and  C_21
REMARK    7  A    between atoms: C_21  and  O_23
REMARK                            x       y       z     vdW  Elec       q    Type
REMARK                         _______ _______ _______ _____ _____    ______ ____
ROOT
ATOM      1  C   UNL     1      -0.185  10.768  21.972  0.00  0.00    +0.000 A 
ATOM      2  C   UNL     1       0.292   9.684  22.708  0.00  0.00    +0.000 A 
ATOM      3  C   UNL     1       0.955   8.636  22.062  0.00  0.00    +0.000 A 
ATOM      4  C   UNL     1       1.122   8.677  20.680  0.00  0.00    +0.000 A 
ATOM      5  N   UNL     1       0.654   9.719  19.945  0.00  0.00    +0.000 NA
ATOM      6  C   UNL     1       0.016  10.723  20.599  0.00  0.00    +0.000 A 
ENDROOT
BRANCH   1  13
ATOM      7  C   UNL     1      -2.216  16.885  25.209  0.00  0.00    +0.000 C 
ATOM      8  C   UNL     1      -2.341  15.519  24.599  0.00  0.00    +0.000 A 
ATOM      9  C   UNL     1      -3.597  14.903  24.525  0.00  0.00    +0.000 A 
ATOM     10  C   UNL     1      -3.725  13.636  23.957  0.00  0.00    +0.000 A 
ATOM     11  C   UNL     1      -2.538  13.081  23.497  0.00  0.00    +0.000 A 
ATOM     12  N   UNL     1      -2.226  11.897  22.889  0.00  0.00    +0.000 N 
ATOM     13  C   UNL     1      -0.870  11.874  22.637  0.00  0.00    +0.000 A 
ATOM     14  N   UNL     1      -0.312  12.999  23.050  0.00  0.00    +0.000 NA
ATOM     15  C   UNL     1      -1.324  13.744  23.591  0.00  0.00    +0.000 A 
ATOM     16  N   UNL     1      -1.192  14.969  24.142  0.00  0.00    +0.000 NA
ATOM     17  H   UNL     1      -2.885  11.177  22.634  0.00  0.00    +0.000 HD
ENDBRANCH   1  13
BRANCH   4  18
ATOM     18  C   UNL     1       1.784   7.607  19.915  0.00  0.00    +0.000 A 
ATOM     19  C   UNL     1       2.361   7.803  18.651  0.00  0.00    +0.000 A 
ATOM     20  C   UNL     1       2.985   6.747  17.984  0.00  0.00    +0.000 A 
ATOM     21  C   UNL     1       2.997   5.503  18.588  0.00  0.00    +0.000 A 
ATOM     22  N   UNL     1       2.464   5.259  19.799  0.00  0.00    +0.000 NA
ATOM     23  C   UNL     1       1.871   6.308  20.423  0.00  0.00    +0.000 A 
BRANCH  21  24
ATOM     24  O   UNL     1       3.570   4.473  17.873  0.00  0.00    +0.000 OA
BRANCH  24  25
ATOM     25  C   UNL     1       4.979   4.321  18.103  0.00  0.00    +0.000 C 
ATOM     26  C   UNL     1       5.766   4.621  16.817  0.00  0.00    +0.000 C 
ATOM     27  C   UNL     1       7.269   4.618  17.059  0.00  0.00    +0.000 C 
ATOM     28  C   UNL     1       7.676   5.637  18.125  0.00  0.00    +0.000 C 
ATOM     29  C   UNL     1       6.887   5.390  19.422  0.00  0.00    +0.000 C 
ATOM     30  C   UNL     1       5.372   5.314  19.206  0.00  0.00    +0.000 C 
BRANCH  28  31
ATOM     31  C   UNL     1       7.528   7.075  17.633  0.00  0.00    +0.000 C 
ATOM     32  O   UNL     1       6.793   7.435  16.727  0.00  0.00    +0.000 OA
BRANCH  31  33
ATOM     33  O   UNL     1       8.277   7.961  18.329  0.00  0.00    +0.000 OA
ATOM     34  H   UNL     1       8.517   8.766  17.834  0.00  0.00    +0.000 HD
ENDBRANCH  31  33
ENDBRANCH  28  31
ENDBRANCH  24  25
ENDBRANCH  21  24
ENDBRANCH   4  18
TORSDOF 6
ENDMDL
MODEL 8
REMARK VINA RESULT:      -8.3      7.648     10.626
REMARK  Name = 
REMARK  7 active torsions:
REMARK  status: ('A' for Active; 'I' for Inactive)
REMARK    1  A    between atoms: C_1  and  C_2
REMARK    2  A    between atoms: C_7  and  C_8
REMARK    3  A    between atoms: C_11  and  C_12
REMARK    4  A    between atoms: C_15  and  O_16
REMARK    5  A    between atoms: O_16  and  C_17
REMARK    6  A    between atoms: C_20  and  C_21
REMARK    7  A    between atoms: C_21  and  O_23
REMARK                            x       y       z     vdW  Elec       q    Type
REMARK                         _______ _______ _______ _____ _____    ______ ____
ROOT
ATOM      1  C   UNL     1       8.581   9.604  18.221  0.00  0.00    +0.000 A 
ATOM      2  C   UNL     1       8.950   8.455  18.921  0.00  0.00    +0.000 A 
ATOM      3  C   UNL     1       8.247   7.263  18.730  0.00  0.00    +0.000 A 
ATOM      4  C   UNL     1       7.169   7.233  17.848  0.00  0.00    +0.000 A 
ATOM      5  N   UNL     1       6.787   8.345  17.167  0.00  0.00    +0.000 NA
ATOM      6  C   UNL     1       7.489   9.488  17.372  0.00  0.00    +0.000 A 
ENDROOT
BRANCH   1  13
ATOM      7  C   UNL     1      11.117  16.355  18.259  0.00  0.00    +0.000 C 
ATOM      8  C   UNL     1      11.029  14.894  18.593  0.00  0.00    +0.000 A 
ATOM      9  C   UNL     1      11.955  14.325  19.475  0.00  0.00    +0.000 A 
ATOM     10  C   UNL     1      11.880  12.970  19.795  0.00  0.00    +0.000 A 
ATOM     11  C   UNL     1      10.842  12.283  19.179  0.00  0.00    +0.000 A 
ATOM     12  N   UNL     1      10.420  10.983  19.217  0.00  0.00    +0.000 N 
ATOM     13  C   UNL     1       9.314  10.854  18.404  0.00  0.00    +0.000 A 
ATOM     14  N   UNL     1       9.011  12.020  17.861  0.00  0.00    +0.000 NA
ATOM     15  C   UNL     1       9.950  12.903  18.319  0.00  0.00    +0.000 A 
ATOM     16  N   UNL     1      10.018  14.214  18.002  0.00  0.00    +0.000 NA
ATOM     17  H   UNL     1      10.829  10.250  19.777  0.00  0.00    +0.000 HD
ENDBRANCH   1  13
BRANCH   4  18
ATOM     18  C   UNL     1       6.356   6.029  17.606  0.00  0.00    +0.000 A 
ATOM     19  C   UNL     1       5.832   5.690  16.349  0.00  0.00    +0.000 A 
ATOM     20  C   UNL     1       5.079   4.526  16.185  0.00  0.00    +0.000 A 
ATOM     21  C   UNL     1       4.845   3.733  17.293  0.00  0.00    +0.000 A 
ATOM     22  N   UNL     1       5.327   4.006  18.520  0.00  0.00    +0.000 NA
ATOM     23  C   UNL     1       6.059   5.141  18.643  0.00  0.00    +0.000 A 
BRANCH  21  24
ATOM     24  O   UNL     1       4.049   2.622  17.103  0.00  0.00    +0.000 OA
BRANCH  24  25
ATOM     25  C   UNL     1       2.732   2.751  17.661  0.00  0.00    +0.000 C 
ATOM     26  C   UNL     1       2.608   1.905  18.938  0.00  0.00    +0.000 C 
ATOM     27  C   UNL     1       1.276   2.132  19.641  0.00  0.00    +0.000 C 
ATOM     28  C   UNL     1       1.072   3.603  20.011  0.00  0.00    +0.000 C 
ATOM     29  C   UNL     1       1.219   4.488  18.762  0.00  0.00    +0.000 C 
ATOM     30  C   UNL     1       2.516   4.235  17.988  0.00  0.00    +0.000 C 
BRANCH  28  31
ATOM     31  C   UNL     1       2.002   4.046  21.137  0.00  0.00    +0.000 C 
ATOM     32  O   UNL     1       2.349   3.349  22.078  0.00  0.00    +0.000 OA
BRANCH  31  33
ATOM     33  O   UNL     1       2.460   5.311  20.990  0.00  0.00    +0.000 OA
ATOM     34  H   UNL     1       2.893   5.489  20.134  0.00  0.00    +0.000 HD
ENDBRANCH  31  33
ENDBRANCH  28  31
ENDBRANCH  24  25
ENDBRANCH  21  24
ENDBRANCH   4  18
TORSDOF 6
ENDMDL
MODEL 9
REMARK VINA RESULT:      -8.3      1.055      1.549
REMARK  Name = 
REMARK  7 active torsions:
REMARK  status: ('A' for Active; 'I' for Inactive)
REMARK    1  A    between atoms: C_1  and  C_2
REMARK    2  A    between atoms: C_7  and  C_8
REMARK    3  A    between atoms: C_11  and  C_12
REMARK    4  A    between atoms: C_15  and  O_16
REMARK    5  A    between atoms: O_16  and  C_17
REMARK    6  A    between atoms: C_20  and  C_21
REMARK    7  A    between atoms: C_21  and  O_23
REMARK                            x       y       z     vdW  Elec       q    Type
REMARK                         _______ _______ _______ _____ _____    ______ ____
ROOT
ATOM      1  C   UNL     1       2.560   7.606  18.672  0.00  0.00    +0.000 A 
ATOM      2  C   UNL     1       2.211   7.173  19.951  0.00  0.00    +0.000 A 
ATOM      3  C   UNL     1       1.373   7.955  20.751  0.00  0.00    +0.000 A 
ATOM      4  C   UNL     1       0.900   9.173  20.267  0.00  0.00    +0.000 A 
ATOM      5  N   UNL     1       1.239   9.616  19.029  0.00  0.00    +0.000 NA
ATOM      6  C   UNL     1       2.054   8.836  18.274  0.00  0.00    +0.000 A 
ENDROOT
BRANCH   1  13
ATOM      7  C   UNL     1       7.302   4.923  13.946  0.00  0.00    +0.000 C 
ATOM      8  C   UNL     1       6.273   4.935  15.040  0.00  0.00    +0.000 A 
ATOM      9  C   UNL     1       5.883   3.731  15.640  0.00  0.00    +0.000 A 
ATOM     10  C   UNL     1       4.931   3.731  16.660  0.00  0.00    +0.000 A 
ATOM     11  C   UNL     1       4.438   4.985  16.996  0.00  0.00    +0.000 A 
ATOM     12  N   UNL     1       3.524   5.421  17.914  0.00  0.00    +0.000 N 
ATOM     13  C   UNL     1       3.428   6.793  17.823  0.00  0.00    +0.000 A 
ATOM     14  N   UNL     1       4.251   7.246  16.894  0.00  0.00    +0.000 NA
ATOM     15  C   UNL     1       4.869   6.143  16.370  0.00  0.00    +0.000 A 
ATOM     16  N   UNL     1       5.788   6.152  15.381  0.00  0.00    +0.000 NA
ATOM     17  H   UNL     1       3.030   4.838  18.572  0.00  0.00    +0.000 HD
ENDBRANCH   1  13
BRANCH   4  18
ATOM     18  C   UNL     1       0.035  10.072  21.049  0.00  0.00    +0.000 A 
ATOM     19  C   UNL     1      -0.663  11.153  20.490  0.00  0.00    +0.000 A 
ATOM     20  C   UNL     1      -1.477  11.960  21.287  0.00  0.00    +0.000 A 
ATOM     21  C   UNL     1      -1.558  11.681  22.639  0.00  0.00    +0.000 A 
ATOM     22  N   UNL     1      -0.916  10.655  23.228  0.00  0.00    +0.000 NA
ATOM     23  C   UNL     1      -0.138   9.887  22.424  0.00  0.00    +0.000 A 
BRANCH  21  24
ATOM     24  O   UNL     1      -2.326  12.535  23.403  0.00  0.00    +0.000 OA
BRANCH  24  25
ATOM     25  C   UNL     1      -2.991  13.555  22.642  0.00  0.00    +0.000 C 
ATOM     26  C   UNL     1      -4.484  13.224  22.496  0.00  0.00    +0.000 C 
ATOM     27  C   UNL     1      -5.252  14.356  21.826  0.00  0.00    +0.000 C 
ATOM     28  C   UNL     1      -5.120  15.669  22.599  0.00  0.00    +0.000 C 
ATOM     29  C   UNL     1      -3.635  16.021  22.794  0.00  0.00    +0.000 C 
ATOM     30  C   UNL     1      -2.815  14.878  23.401  0.00  0.00    +0.000 C 
BRANCH  28  31
ATOM     31  C   UNL     1      -5.877  15.635  23.924  0.00  0.00    +0.000 C 
ATOM     32  O   UNL     1      -6.896  14.997  24.135  0.00  0.00    +0.000 OA
BRANCH  31  33
ATOM     33  O   UNL     1      -5.288  16.368  24.899  0.00  0.00    +0.000 OA
ATOM     34  H   UNL     1      -5.788  16.406  25.735  0.00  0.00    +0.000 HD
ENDBRANCH  31  33
ENDBRANCH  28  31
ENDBRANCH  24  25
ENDBRANCH  21  24
ENDBRANCH   4  18
TORSDOF 6
ENDMDL
