MODEL 1
REMARK VINA RESULT:      -7.0      0.000      0.000
REMARK  Name = 
REMARK  10 active torsions:
REMARK  status: ('A' for Active; 'I' for Inactive)
REMARK    1  A    between atoms: C_2  and  O_3
REMARK    2  A    between atoms: C_2  and  C_4
REMARK    3  A    between atoms: C_4  and  C_5
REMARK    4  A    between atoms: C_5  and  CA_7
REMARK    5  A    between atoms: CA_7  and  N_8
REMARK    6  A    between atoms: CA_7  and  C_19
REMARK    7  A    between atoms: C_9  and  O_11
REMARK    8  A    between atoms: O_11  and  C_12
REMARK    9  A    between atoms: C_12  and  C_13
REMARK   10  A    between atoms: C_19  and  OXT_21
REMARK                            x       y       z     vdW  Elec       q    Type
REMARK                         _______ _______ _______ _____ _____    ______ ____
ROOT
ATOM      1  CA  UNL     1       5.920   4.865  17.761  0.00  0.00    +0.000 C 
ENDROOT
BRANCH   1   2
ATOM      2  N   UNL     1       5.579   6.286  17.547  0.00  0.00    +0.000 N 
ATOM      3  C   UNL     1       4.345   6.796  17.853  0.00  0.00    +0.000 C 
ATOM      4  O   UNL     1       3.832   7.678  17.181  0.00  0.00    +0.000 OA
ATOM      5  H   UNL     1       6.275   6.965  17.833  0.00  0.00    +0.000 HD
BRANCH   3   6
ATOM      6  O   UNL     1       3.875   6.325  19.032  0.00  0.00    +0.000 OA
BRANCH   6   7
ATOM      7  C   UNL     1       2.444   6.190  19.088  0.00  0.00    +0.000 C 
BRANCH   7   8
ATOM      8  C   UNL     1       2.074   4.875  19.736  0.00  0.00    +0.000 A 
ATOM      9  C   UNL     1       1.303   3.929  19.046  0.00  0.00    +0.000 A 
ATOM     10  C   UNL     1       0.907   2.744  19.669  0.00  0.00    +0.000 A 
ATOM     11  C   UNL     1       1.278   2.491  20.988  0.00  0.00    +0.000 A 
ATOM     12  C   UNL     1       2.054   3.418  21.682  0.00  0.00    +0.000 A 
ATOM     13  C   UNL     1       2.451   4.604  21.060  0.00  0.00    +0.000 A 
ENDBRANCH   7   8
ENDBRANCH   6   7
ENDBRANCH   3   6
ENDBRANCH   1   2
BRANCH   1  14
ATOM     14  C   UNL     1       5.513   4.037  16.512  0.00  0.00    +0.000 C 
ATOM     15 CL   UNL     1       3.902   3.228  16.782  0.00  0.00    +0.000 Cl
BRANCH  14  16
ATOM     16  C   UNL     1       5.401   4.796  15.188  0.00  0.00    +0.000 C 
BRANCH  16  18
ATOM     17  O   UNL     1       7.561   5.294  14.257  0.00  0.00    +0.000 OA
ATOM     18  C   UNL     1       6.587   4.556  14.302  0.00  0.00    +0.000 C 
BRANCH  18  19
ATOM     19  O   UNL     1       6.503   3.411  13.598  0.00  0.00    +0.000 OA
ATOM     20  H   UNL     1       6.433   2.596  14.135  0.00  0.00    +0.000 HD
ENDBRANCH  18  19
ENDBRANCH  16  18
ENDBRANCH  14  16
ENDBRANCH   1  14
BRANCH   1  21
ATOM     21  C   UNL     1       7.413   4.712  18.046  0.00  0.00    +0.000 C 
ATOM     22  O   UNL     1       8.204   4.198  17.269  0.00  0.00    +0.000 OA
BRANCH  21  23
ATOM     23  OXT UNL     1       7.823   5.324  19.184  0.00  0.00    +0.000 OA
ATOM     24  HXT UNL     1       7.181   5.988  19.516  0.00  0.00    +0.000 HD
ENDBRANCH  21  23
ENDBRANCH   1  21
TORSDOF 10
ENDMDL
MODEL 2
REMARK VINA RESULT:      -6.8      1.425      1.547
REMARK  Name = 
REMARK  10 active torsions:
REMARK  status: ('A' for Active; 'I' for Inactive)
REMARK    1  A    between atoms: C_2  and  O_3
REMARK    2  A    between atoms: C_2  and  C_4
REMARK    3  A    between atoms: C_4  and  C_5
REMARK    4  A    between atoms: C_5  and  CA_7
REMARK    5  A    between atoms: CA_7  and  N_8
REMARK    6  A    between atoms: CA_7  and  C_19
REMARK    7  A    between atoms: C_9  and  O_11
REMARK    8  A    between atoms: O_11  and  C_12
REMARK    9  A    between atoms: C_12  and  C_13
REMARK   10  A    between atoms: C_19  and  OXT_21
REMARK                            x       y       z     vdW  Elec       q    Type
REMARK                         _______ _______ _______ _____ _____    ______ ____
ROOT
ATOM      1  CA  UNL     1       4.994   5.253  17.619  0.00  0.00    +0.000 C 
ENDROOT
BRANCH   1   2
ATOM      2  N   UNL     1       4.689   6.680  17.847  0.00  0.00    +0.000 N 
ATOM      3  C   UNL     1       3.442   7.204  17.633  0.00  0.00    +0.000 C 
ATOM      4  O   UNL     1       3.288   8.340  17.211  0.00  0.00    +0.000 OA
ATOM      5  H   UNL     1       5.056   7.090  18.699  0.00  0.00    +0.000 HD
BRANCH   3   6
ATOM      6  O   UNL     1       2.460   6.389  18.085  0.00  0.00    +0.000 OA
BRANCH   6   7
ATOM      7  C   UNL     1       2.329   6.358  19.517  0.00  0.00    +0.000 C 
BRANCH   7   8
ATOM      8  C   UNL     1       2.043   4.946  19.980  0.00  0.00    +0.000 A 
ATOM      9  C   UNL     1       1.386   4.038  19.138  0.00  0.00    +0.000 A 
ATOM     10  C   UNL     1       1.065   2.756  19.590  0.00  0.00    +0.000 A 
ATOM     11  C   UNL     1       1.398   2.369  20.886  0.00  0.00    +0.000 A 
ATOM     12  C   UNL     1       2.061   3.260  21.729  0.00  0.00    +0.000 A 
ATOM     13  C   UNL     1       2.382   4.541  21.279  0.00  0.00    +0.000 A 
ENDBRANCH   7   8
ENDBRANCH   6   7
ENDBRANCH   3   6
ENDBRANCH   1   2
BRANCH   1  14
ATOM     14  C   UNL     1       5.978   5.114  16.426  0.00  0.00    +0.000 C 
ATOM     15 CL   UNL     1       7.572   4.434  16.994  0.00  0.00    +0.000 Cl
BRANCH  14  16
ATOM     16  C   UNL     1       5.526   4.239  15.256  0.00  0.00    +0.000 C 
BRANCH  16  18
ATOM     17  O   UNL     1       7.214   5.284  13.901  0.00  0.00    +0.000 OA
ATOM     18  C   UNL     1       6.458   4.341  14.086  0.00  0.00    +0.000 C 
BRANCH  18  19
ATOM     19  O   UNL     1       6.424   3.261  13.282  0.00  0.00    +0.000 OA
ATOM     20  H   UNL     1       5.948   2.487  13.644  0.00  0.00    +0.000 HD
ENDBRANCH  18  19
ENDBRANCH  16  18
ENDBRANCH  14  16
ENDBRANCH   1  14
BRANCH   1  21
ATOM     21  C   UNL     1       5.584   4.626  18.882  0.00  0.00    +0.000 C 
ATOM     22  O   UNL     1       6.191   5.258  19.734  0.00  0.00    +0.000 OA
BRANCH  21  23
ATOM     23  OXT UNL     1       5.259   3.322  19.054  0.00  0.00    +0.000 OA
ATOM     24  HXT UNL     1       5.993   2.791  19.434  0.00  0.00    +0.000 HD
ENDBRANCH  21  23
ENDBRANCH   1  21
TORSDOF 10
ENDMDL
MODEL 3
REMARK VINA RESULT:      -6.7      2.320      3.907
REMARK  Name = 
REMARK  10 active torsions:
REMARK  status: ('A' for Active; 'I' for Inactive)
REMARK    1  A    between atoms: C_2  and  O_3
REMARK    2  A    between atoms: C_2  and  C_4
REMARK    3  A    between atoms: C_4  and  C_5
REMARK    4  A    between atoms: C_5  and  CA_7
REMARK    5  A    between atoms: CA_7  and  N_8
REMARK    6  A    between atoms: CA_7  and  C_19
REMARK    7  A    between atoms: C_9  and  O_11
REMARK    8  A    between atoms: O_11  and  C_12
REMARK    9  A    between atoms: C_12  and  C_13
REMARK   10  A    between atoms: C_19  and  OXT_21
REMARK                            x       y       z     vdW  Elec       q    Type
REMARK                         _______ _______ _______ _____ _____    ______ ____
ROOT
ATOM      1  CA  UNL     1       5.165   4.328  16.867  0.00  0.00    +0.000 C 
ENDROOT
BRANCH   1   2
ATOM      2  N   UNL     1       4.847   2.902  17.081  0.00  0.00    +0.000 N 
ATOM      3  C   UNL     1       3.641   2.490  17.584  0.00  0.00    +0.000 C 
ATOM      4  O   UNL     1       3.552   1.517  18.319  0.00  0.00    +0.000 OA
ATOM      5  H   UNL     1       5.107   2.264  16.337  0.00  0.00    +0.000 HD
BRANCH   3   6
ATOM      6  O   UNL     1       2.603   3.175  17.049  0.00  0.00    +0.000 OA
BRANCH   6   7
ATOM      7  C   UNL     1       1.545   3.466  17.979  0.00  0.00    +0.000 C 
BRANCH   7   8
ATOM      8  C   UNL     1       1.830   4.767  18.696  0.00  0.00    +0.000 A 
ATOM      9  C   UNL     1       1.597   4.890  20.072  0.00  0.00    +0.000 A 
ATOM     10  C   UNL     1       1.799   6.111  20.721  0.00  0.00    +0.000 A 
ATOM     11  C   UNL     1       2.235   7.220  20.000  0.00  0.00    +0.000 A 
ATOM     12  C   UNL     1       2.481   7.108  18.632  0.00  0.00    +0.000 A 
ATOM     13  C   UNL     1       2.280   5.888  17.983  0.00  0.00    +0.000 A 
ENDBRANCH   7   8
ENDBRANCH   6   7
ENDBRANCH   3   6
ENDBRANCH   1   2
BRANCH   1  14
ATOM     14  C   UNL     1       6.153   4.813  17.962  0.00  0.00    +0.000 C 
ATOM     15 CL   UNL     1       7.857   4.320  17.543  0.00  0.00    +0.000 Cl
BRANCH  14  16
ATOM     16  C   UNL     1       6.192   6.317  18.241  0.00  0.00    +0.000 C 
BRANCH  16  18
ATOM     17  O   UNL     1       7.747   7.246  16.660  0.00  0.00    +0.000 OA
ATOM     18  C   UNL     1       7.492   6.932  17.814  0.00  0.00    +0.000 C 
BRANCH  18  19
ATOM     19  O   UNL     1       8.334   7.162  18.840  0.00  0.00    +0.000 OA
ATOM     20  H   UNL     1       8.123   6.684  19.667  0.00  0.00    +0.000 HD
ENDBRANCH  18  19
ENDBRANCH  16  18
ENDBRANCH  14  16
ENDBRANCH   1  14
BRANCH   1  21
ATOM     21  C   UNL     1       5.758   4.538  15.474  0.00  0.00    +0.000 C 
ATOM     22  O   UNL     1       6.157   3.629  14.762  0.00  0.00    +0.000 OA
BRANCH  21  23
ATOM     23  OXT UNL     1       5.680   5.815  15.027  0.00  0.00    +0.000 OA
ATOM     24  HXT UNL     1       5.096   6.379  15.579  0.00  0.00    +0.000 HD
ENDBRANCH  21  23
ENDBRANCH   1  21
TORSDOF 10
ENDMDL
MODEL 4
REMARK VINA RESULT:      -6.6      2.205      3.820
REMARK  Name = 
REMARK  10 active torsions:
REMARK  status: ('A' for Active; 'I' for Inactive)
REMARK    1  A    between atoms: C_2  and  O_3
REMARK    2  A    between atoms: C_2  and  C_4
REMARK    3  A    between atoms: C_4  and  C_5
REMARK    4  A    between atoms: C_5  and  CA_7
REMARK    5  A    between atoms: CA_7  and  N_8
REMARK    6  A    between atoms: CA_7  and  C_19
REMARK    7  A    between atoms: C_9  and  O_11
REMARK    8  A    between atoms: O_11  and  C_12
REMARK    9  A    between atoms: C_12  and  C_13
REMARK   10  A    between atoms: C_19  and  OXT_21
REMARK                            x       y       z     vdW  Elec       q    Type
REMARK                         _______ _______ _______ _____ _____    ______ ____
ROOT
ATOM      1  CA  UNL     1       4.994   4.703  16.841  0.00  0.00    +0.000 C 
ENDROOT
BRANCH   1   2
ATOM      2  N   UNL     1       4.966   3.290  17.271  0.00  0.00    +0.000 N 
ATOM      3  C   UNL     1       3.842   2.707  17.794  0.00  0.00    +0.000 C 
ATOM      4  O   UNL     1       3.908   1.860  18.672  0.00  0.00    +0.000 OA
ATOM      5  H   UNL     1       5.403   2.620  16.649  0.00  0.00    +0.000 HD
BRANCH   3   6
ATOM      6  O   UNL     1       2.723   3.064  17.122  0.00  0.00    +0.000 OA
BRANCH   6   7
ATOM      7  C   UNL     1       1.584   3.322  17.962  0.00  0.00    +0.000 C 
BRANCH   7   8
ATOM      8  C   UNL     1       1.749   4.653  18.661  0.00  0.00    +0.000 A 
ATOM      9  C   UNL     1       2.074   5.807  17.934  0.00  0.00    +0.000 A 
ATOM     10  C   UNL     1       2.290   7.021  18.588  0.00  0.00    +0.000 A 
ATOM     11  C   UNL     1       2.182   7.096  19.975  0.00  0.00    +0.000 A 
ATOM     12  C   UNL     1       1.848   5.959  20.708  0.00  0.00    +0.000 A 
ATOM     13  C   UNL     1       1.632   4.743  20.056  0.00  0.00    +0.000 A 
ENDBRANCH   7   8
ENDBRANCH   6   7
ENDBRANCH   3   6
ENDBRANCH   1   2
BRANCH   1  14
ATOM     14  C   UNL     1       5.724   5.560  17.911  0.00  0.00    +0.000 C 
ATOM     15 CL   UNL     1       5.256   5.017  19.587  0.00  0.00    +0.000 Cl
BRANCH  14  16
ATOM     16  C   UNL     1       7.253   5.563  17.867  0.00  0.00    +0.000 C 
BRANCH  16  18
ATOM     17  O   UNL     1       7.616   7.781  17.015  0.00  0.00    +0.000 OA
ATOM     18  C   UNL     1       7.812   6.955  17.894  0.00  0.00    +0.000 C 
BRANCH  18  19
ATOM     19  O   UNL     1       8.508   7.228  19.015  0.00  0.00    +0.000 OA
ATOM     20  H   UNL     1       7.980   7.252  19.837  0.00  0.00    +0.000 HD
ENDBRANCH  18  19
ENDBRANCH  16  18
ENDBRANCH  14  16
ENDBRANCH   1  14
BRANCH   1  21
ATOM     21  C   UNL     1       5.685   4.832  15.484  0.00  0.00    +0.000 C 
ATOM     22  O   UNL     1       5.780   5.884  14.868  0.00  0.00    +0.000 OA
BRANCH  21  23
ATOM     23  OXT UNL     1       6.314   3.704  15.074  0.00  0.00    +0.000 OA
ATOM     24  HXT UNL     1       5.858   2.884  15.364  0.00  0.00    +0.000 HD
ENDBRANCH  21  23
ENDBRANCH   1  21
TORSDOF 10
ENDMDL
MODEL 5
REMARK VINA RESULT:      -6.6      0.867      1.327
REMARK  Name = 
REMARK  10 active torsions:
REMARK  status: ('A' for Active; 'I' for Inactive)
REMARK    1  A    between atoms: C_2  and  O_3
REMARK    2  A    between atoms: C_2  and  C_4
REMARK    3  A    between atoms: C_4  and  C_5
REMARK    4  A    between atoms: C_5  and  CA_7
REMARK    5  A    between atoms: CA_7  and  N_8
REMARK    6  A    between atoms: CA_7  and  C_19
REMARK    7  A    between atoms: C_9  and  O_11
REMARK    8  A    between atoms: O_11  and  C_12
REMARK    9  A    between atoms: C_12  and  C_13
REMARK   10  A    between atoms: C_19  and  OXT_21
REMARK                            x       y       z     vdW  Elec       q    Type
REMARK                         _______ _______ _______ _____ _____    ______ ____
ROOT
ATOM      1  CA  UNL     1       5.709   5.189  17.670  0.00  0.00    +0.000 C 
ENDROOT
BRANCH   1   2
ATOM      2  N   UNL     1       5.087   6.510  17.446  0.00  0.00    +0.000 N 
ATOM      3  C   UNL     1       3.880   6.852  17.997  0.00  0.00    +0.000 C 
ATOM      4  O   UNL     1       3.086   7.568  17.406  0.00  0.00    +0.000 OA
ATOM      5  H   UNL     1       5.699   7.315  17.515  0.00  0.00    +0.000 HD
BRANCH   3   6
ATOM      6  O   UNL     1       3.770   6.441  19.281  0.00  0.00    +0.000 OA
BRANCH   6   7
ATOM      7  C   UNL     1       2.424   6.148  19.696  0.00  0.00    +0.000 C 
BRANCH   7   8
ATOM      8  C   UNL     1       2.186   4.654  19.661  0.00  0.00    +0.000 A 
ATOM      9  C   UNL     1       3.061   3.776  20.315  0.00  0.00    +0.000 A 
ATOM     10  C   UNL     1       2.878   2.394  20.227  0.00  0.00    +0.000 A 
ATOM     11  C   UNL     1       1.818   1.877  19.487  0.00  0.00    +0.000 A 
ATOM     12  C   UNL     1       0.934   2.739  18.841  0.00  0.00    +0.000 A 
ATOM     13  C   UNL     1       1.116   4.121  18.928  0.00  0.00    +0.000 A 
ENDBRANCH   7   8
ENDBRANCH   6   7
ENDBRANCH   3   6
ENDBRANCH   1   2
BRANCH   1  14
ATOM     14  C   UNL     1       5.386   4.251  16.474  0.00  0.00    +0.000 C 
ATOM     15 CL   UNL     1       3.762   3.459  16.709  0.00  0.00    +0.000 Cl
BRANCH  14  16
ATOM     16  C   UNL     1       5.362   4.889  15.084  0.00  0.00    +0.000 C 
BRANCH  16  18
ATOM     17  O   UNL     1       7.630   5.317  14.413  0.00  0.00    +0.000 OA
ATOM     18  C   UNL     1       6.627   4.624  14.323  0.00  0.00    +0.000 C 
BRANCH  18  19
ATOM     19  O   UNL     1       6.571   3.509  13.569  0.00  0.00    +0.000 OA
ATOM     20  H   UNL     1       5.700   3.066  13.545  0.00  0.00    +0.000 HD
ENDBRANCH  18  19
ENDBRANCH  16  18
ENDBRANCH  14  16
ENDBRANCH   1  14
BRANCH   1  21
ATOM     21  C   UNL     1       7.219   5.335  17.848  0.00  0.00    +0.000 C 
ATOM     22  O   UNL     1       7.934   4.466  18.327  0.00  0.00    +0.000 OA
BRANCH  21  23
ATOM     23  OXT UNL     1       7.734   6.462  17.300  0.00  0.00    +0.000 OA
ATOM     24  HXT UNL     1       8.570   6.750  17.727  0.00  0.00    +0.000 HD
ENDBRANCH  21  23
ENDBRANCH   1  21
TORSDOF 10
ENDMDL
MODEL 6
REMARK VINA RESULT:      -6.5      2.475      6.900
REMARK  Name = 
REMARK  10 active torsions:
REMARK  status: ('A' for Active; 'I' for Inactive)
REMARK    1  A    between atoms: C_2  and  O_3
REMARK    2  A    between atoms: C_2  and  C_4
REMARK    3  A    between atoms: C_4  and  C_5
REMARK    4  A    between atoms: C_5  and  CA_7
REMARK    5  A    between atoms: CA_7  and  N_8
REMARK    6  A    between atoms: CA_7  and  C_19
REMARK    7  A    between atoms: C_9  and  O_11
REMARK    8  A    between atoms: O_11  and  C_12
REMARK    9  A    between atoms: C_12  and  C_13
REMARK   10  A    between atoms: C_19  and  OXT_21
REMARK                            x       y       z     vdW  Elec       q    Type
REMARK                         _______ _______ _______ _____ _____    ______ ____
ROOT
ATOM      1  CA  UNL     1       3.339   3.858  18.036  0.00  0.00    +0.000 C 
ENDROOT
BRANCH   1   2
ATOM      2  N   UNL     1       4.523   4.476  18.668  0.00  0.00    +0.000 N 
ATOM      3  C   UNL     1       5.746   4.509  18.053  0.00  0.00    +0.000 C 
ATOM      4  O   UNL     1       6.786   4.413  18.688  0.00  0.00    +0.000 OA
ATOM      5  H   UNL     1       4.378   5.372  19.119  0.00  0.00    +0.000 HD
BRANCH   3   6
ATOM      6  O   UNL     1       5.648   4.810  16.737  0.00  0.00    +0.000 OA
BRANCH   6   7
ATOM      7  C   UNL     1       5.638   3.664  15.867  0.00  0.00    +0.000 C 
BRANCH   7   8
ATOM      8  C   UNL     1       6.224   4.032  14.521  0.00  0.00    +0.000 A 
ATOM      9  C   UNL     1       5.796   3.385  13.354  0.00  0.00    +0.000 A 
ATOM     10  C   UNL     1       6.383   3.679  12.122  0.00  0.00    +0.000 A 
ATOM     11  C   UNL     1       7.405   4.623  12.044  0.00  0.00    +0.000 A 
ATOM     12  C   UNL     1       7.833   5.281  13.196  0.00  0.00    +0.000 A 
ATOM     13  C   UNL     1       7.246   4.988  14.428  0.00  0.00    +0.000 A 
ENDBRANCH   7   8
ENDBRANCH   6   7
ENDBRANCH   3   6
ENDBRANCH   1   2
BRANCH   1  14
ATOM     14  C   UNL     1       2.856   2.658  18.895  0.00  0.00    +0.000 C 
ATOM     15 CL   UNL     1       3.782   1.150  18.456  0.00  0.00    +0.000 Cl
BRANCH  14  16
ATOM     16  C   UNL     1       2.965   2.807  20.413  0.00  0.00    +0.000 C 
BRANCH  16  18
ATOM     17  O   UNL     1       1.471   2.500  22.271  0.00  0.00    +0.000 OA
ATOM     18  C   UNL     1       1.624   2.736  21.082  0.00  0.00    +0.000 C 
BRANCH  18  19
ATOM     19  O   UNL     1       0.601   3.018  20.252  0.00  0.00    +0.000 OA
ATOM     20  H   UNL     1      -0.224   2.523  20.426  0.00  0.00    +0.000 HD
ENDBRANCH  18  19
ENDBRANCH  16  18
ENDBRANCH  14  16
ENDBRANCH   1  14
BRANCH   1  21
ATOM     21  C   UNL     1       2.223   4.889  17.875  0.00  0.00    +0.000 C 
ATOM     22  O   UNL     1       2.389   6.094  17.992  0.00  0.00    +0.000 OA
BRANCH  21  23
ATOM     23  OXT UNL     1       1.047   4.367  17.450  0.00  0.00    +0.000 OA
ATOM     24  HXT UNL     1       0.921   4.445  16.479  0.00  0.00    +0.000 HD
ENDBRANCH  21  23
ENDBRANCH   1  21
TORSDOF 10
ENDMDL
MODEL 7
REMARK VINA RESULT:      -6.5      1.096      1.248
REMARK  Name = 
REMARK  10 active torsions:
REMARK  status: ('A' for Active; 'I' for Inactive)
REMARK    1  A    between atoms: C_2  and  O_3
REMARK    2  A    between atoms: C_2  and  C_4
REMARK    3  A    between atoms: C_4  and  C_5
REMARK    4  A    between atoms: C_5  and  CA_7
REMARK    5  A    between atoms: CA_7  and  N_8
REMARK    6  A    between atoms: CA_7  and  C_19
REMARK    7  A    between atoms: C_9  and  O_11
REMARK    8  A    between atoms: O_11  and  C_12
REMARK    9  A    between atoms: C_12  and  C_13
REMARK   10  A    between atoms: C_19  and  OXT_21
REMARK                            x       y       z     vdW  Elec       q    Type
REMARK                         _______ _______ _______ _____ _____    ______ ____
ROOT
ATOM      1  CA  UNL     1       6.246   5.481  18.582  0.00  0.00    +0.000 C 
ENDROOT
BRANCH   1   2
ATOM      2  N   UNL     1       5.606   6.582  17.833  0.00  0.00    +0.000 N 
ATOM      3  C   UNL     1       4.256   6.807  17.876  0.00  0.00    +0.000 C 
ATOM      4  O   UNL     1       3.643   7.216  16.901  0.00  0.00    +0.000 OA
ATOM      5  H   UNL     1       6.072   7.482  17.867  0.00  0.00    +0.000 HD
BRANCH   3   6
ATOM      6  O   UNL     1       3.755   6.675  19.126  0.00  0.00    +0.000 OA
BRANCH   6   7
ATOM      7  C   UNL     1       2.325   6.528  19.179  0.00  0.00    +0.000 C 
BRANCH   7   8
ATOM      8  C   UNL     1       1.962   5.083  19.440  0.00  0.00    +0.000 A 
ATOM      9  C   UNL     1       1.585   4.239  18.386  0.00  0.00    +0.000 A 
ATOM     10  C   UNL     1       1.188   2.924  18.636  0.00  0.00    +0.000 A 
ATOM     11  C   UNL     1       1.164   2.439  19.941  0.00  0.00    +0.000 A 
ATOM     12  C   UNL     1       1.548   3.264  20.997  0.00  0.00    +0.000 A 
ATOM     13  C   UNL     1       1.945   4.579  20.748  0.00  0.00    +0.000 A 
ENDBRANCH   7   8
ENDBRANCH   6   7
ENDBRANCH   3   6
ENDBRANCH   1   2
BRANCH   1  14
ATOM     14  C   UNL     1       6.455   4.263  17.642  0.00  0.00    +0.000 C 
ATOM     15 CL   UNL     1       4.849   3.632  17.053  0.00  0.00    +0.000 Cl
BRANCH  14  16
ATOM     16  C   UNL     1       7.314   4.491  16.397  0.00  0.00    +0.000 C 
BRANCH  16  18
ATOM     17  O   UNL     1       5.919   5.740  14.889  0.00  0.00    +0.000 OA
ATOM     18  C   UNL     1       6.479   4.689  15.167  0.00  0.00    +0.000 C 
BRANCH  18  19
ATOM     19  O   UNL     1       6.451   3.608  14.363  0.00  0.00    +0.000 OA
ATOM     20  H   UNL     1       6.185   3.784  13.439  0.00  0.00    +0.000 HD
ENDBRANCH  18  19
ENDBRANCH  16  18
ENDBRANCH  14  16
ENDBRANCH   1  14
BRANCH   1  21
ATOM     21  C   UNL     1       7.578   5.942  19.172  0.00  0.00    +0.000 C 
ATOM     22  O   UNL     1       8.241   6.861  18.715  0.00  0.00    +0.000 OA
BRANCH  21  23
ATOM     23  OXT UNL     1       7.905   5.335  20.338  0.00  0.00    +0.000 OA
ATOM     24  HXT UNL     1       7.757   5.906  21.123  0.00  0.00    +0.000 HD
ENDBRANCH  21  23
ENDBRANCH   1  21
TORSDOF 10
ENDMDL
MODEL 8
REMARK VINA RESULT:      -6.5      2.322      6.895
REMARK  Name = 
REMARK  10 active torsions:
REMARK  status: ('A' for Active; 'I' for Inactive)
REMARK    1  A    between atoms: C_2  and  O_3
REMARK    2  A    between atoms: C_2  and  C_4
REMARK    3  A    between atoms: C_4  and  C_5
REMARK    4  A    between atoms: C_5  and  CA_7
REMARK    5  A    between atoms: CA_7  and  N_8
REMARK    6  A    between atoms: CA_7  and  C_19
REMARK    7  A    between atoms: C_9  and  O_11
REMARK    8  A    between atoms: O_11  and  C_12
REMARK    9  A    between atoms: C_12  and  C_13
REMARK   10  A    between atoms: C_19  and  OXT_21
REMARK                            x       y       z     vdW  Elec       q    Type
REMARK                         _______ _______ _______ _____ _____    ______ ____
ROOT
ATOM      1  CA  UNL     1       3.285   3.605  18.071  0.00  0.00    +0.000 C 
ENDROOT
BRANCH   1   2
ATOM      2  N   UNL     1       4.395   4.454  18.549  0.00  0.00    +0.000 N 
ATOM      3  C   UNL     1       5.684   4.283  18.119  0.00  0.00    +0.000 C 
ATOM      4  O   UNL     1       6.638   4.472  18.860  0.00  0.00    +0.000 OA
ATOM      5  H   UNL     1       4.213   5.451  18.596  0.00  0.00    +0.000 HD
BRANCH   3   6
ATOM      6  O   UNL     1       5.752   4.047  16.788  0.00  0.00    +0.000 OA
BRANCH   6   7
ATOM      7  C   UNL     1       6.071   5.205  15.997  0.00  0.00    +0.000 C 
BRANCH   7   8
ATOM      8  C   UNL     1       6.429   4.786  14.588  0.00  0.00    +0.000 A 
ATOM      9  C   UNL     1       7.502   5.386  13.915  0.00  0.00    +0.000 A 
ATOM     10  C   UNL     1       7.791   5.045  12.592  0.00  0.00    +0.000 A 
ATOM     11  C   UNL     1       7.011   4.101  11.929  0.00  0.00    +0.000 A 
ATOM     12  C   UNL     1       5.948   3.488  12.590  0.00  0.00    +0.000 A 
ATOM     13  C   UNL     1       5.658   3.828  13.913  0.00  0.00    +0.000 A 
ENDBRANCH   7   8
ENDBRANCH   6   7
ENDBRANCH   3   6
ENDBRANCH   1   2
BRANCH   1  14
ATOM     14  C   UNL     1       2.891   2.590  19.179  0.00  0.00    +0.000 C 
ATOM     15 CL   UNL     1       4.314   2.251  20.266  0.00  0.00    +0.000 Cl
BRANCH  14  16
ATOM     16  C   UNL     1       1.730   2.985  20.095  0.00  0.00    +0.000 C 
BRANCH  16  18
ATOM     17  O   UNL     1       2.292   3.183  22.424  0.00  0.00    +0.000 OA
ATOM     18  C   UNL     1       2.204   3.705  21.322  0.00  0.00    +0.000 C 
BRANCH  18  19
ATOM     19  O   UNL     1       2.580   4.976  21.080  0.00  0.00    +0.000 OA
ATOM     20  H   UNL     1       3.135   5.102  20.285  0.00  0.00    +0.000 HD
ENDBRANCH  18  19
ENDBRANCH  16  18
ENDBRANCH  14  16
ENDBRANCH   1  14
BRANCH   1  21
ATOM     21  C   UNL     1       2.086   4.466  17.678  0.00  0.00    +0.000 C 
ATOM     22  O   UNL     1       1.062   4.019  17.184  0.00  0.00    +0.000 OA
BRANCH  21  23
ATOM     23  OXT UNL     1       2.193   5.764  18.050  0.00  0.00    +0.000 OA
ATOM     24  HXT UNL     1       2.549   5.875  18.959  0.00  0.00    +0.000 HD
ENDBRANCH  21  23
ENDBRANCH   1  21
TORSDOF 10
ENDMDL
MODEL 9
REMARK VINA RESULT:      -6.5      1.181      1.300
REMARK  Name = 
REMARK  10 active torsions:
REMARK  status: ('A' for Active; 'I' for Inactive)
REMARK    1  A    between atoms: C_2  and  O_3
REMARK    2  A    between atoms: C_2  and  C_4
REMARK    3  A    between atoms: C_4  and  C_5
REMARK    4  A    between atoms: C_5  and  CA_7
REMARK    5  A    between atoms: CA_7  and  N_8
REMARK    6  A    between atoms: CA_7  and  C_19
REMARK    7  A    between atoms: C_9  and  O_11
REMARK    8  A    between atoms: O_11  and  C_12
REMARK    9  A    between atoms: C_12  and  C_13
REMARK   10  A    between atoms: C_19  and  OXT_21
REMARK                            x       y       z     vdW  Elec       q    Type
REMARK                         _______ _______ _______ _____ _____    ______ ____
ROOT
ATOM      1  CA  UNL     1       5.060   5.225  18.493  0.00  0.00    +0.000 C 
ENDROOT
BRANCH   1   2
ATOM      2  N   UNL     1       4.365   6.364  17.860  0.00  0.00    +0.000 N 
ATOM      3  C   UNL     1       3.165   6.836  18.322  0.00  0.00    +0.000 C 
ATOM      4  O   UNL     1       2.314   7.276  17.563  0.00  0.00    +0.000 OA
ATOM      5  H   UNL     1       4.939   7.163  17.613  0.00  0.00    +0.000 HD
BRANCH   3   6
ATOM      6  O   UNL     1       3.126   6.895  19.673  0.00  0.00    +0.000 OA
BRANCH   6   7
ATOM      7  C   UNL     1       1.858   6.529  20.245  0.00  0.00    +0.000 C 
BRANCH   7   8
ATOM      8  C   UNL     1       1.772   5.025  20.391  0.00  0.00    +0.000 A 
ATOM      9  C   UNL     1       0.993   4.265  19.508  0.00  0.00    +0.000 A 
ATOM     10  C   UNL     1       0.862   2.885  19.683  0.00  0.00    +0.000 A 
ATOM     11  C   UNL     1       1.508   2.253  20.743  0.00  0.00    +0.000 A 
ATOM     12  C   UNL     1       2.294   2.996  21.622  0.00  0.00    +0.000 A 
ATOM     13  C   UNL     1       2.426   4.375  21.448  0.00  0.00    +0.000 A 
ENDBRANCH   7   8
ENDBRANCH   6   7
ENDBRANCH   3   6
ENDBRANCH   1   2
BRANCH   1  14
ATOM     14  C   UNL     1       5.098   4.024  17.508  0.00  0.00    +0.000 C 
ATOM     15 CL   UNL     1       3.982   2.701  18.078  0.00  0.00    +0.000 Cl
BRANCH  14  16
ATOM     16  C   UNL     1       4.722   4.313  16.054  0.00  0.00    +0.000 C 
BRANCH  16  18
ATOM     17  O   UNL     1       6.525   5.673  15.231  0.00  0.00    +0.000 OA
ATOM     18  C   UNL     1       5.927   4.607  15.211  0.00  0.00    +0.000 C 
BRANCH  18  19
ATOM     19  O   UNL     1       6.325   3.558  14.466  0.00  0.00    +0.000 OA
ATOM     20  H   UNL     1       5.963   3.530  13.558  0.00  0.00    +0.000 HD
ENDBRANCH  18  19
ENDBRANCH  16  18
ENDBRANCH  14  16
ENDBRANCH   1  14
BRANCH   1  21
ATOM     21  C   UNL     1       6.475   5.627  18.906  0.00  0.00    +0.000 C 
ATOM     22  O   UNL     1       7.044   5.189  19.895  0.00  0.00    +0.000 OA
BRANCH  21  23
ATOM     23  OXT UNL     1       7.112   6.413  18.004  0.00  0.00    +0.000 OA
ATOM     24  HXT UNL     1       7.683   7.093  18.422  0.00  0.00    +0.000 HD
ENDBRANCH  21  23
ENDBRANCH   1  21
TORSDOF 10
ENDMDL
