MODEL 1
REMARK VINA RESULT:      -8.7      0.000      0.000
REMARK  Name = 
REMARK  10 active torsions:
REMARK  status: ('A' for Active; 'I' for Inactive)
REMARK    1  A    between atoms: C_1  and  C_2
REMARK    2  A    between atoms: C_2  and  C_3
REMARK    3  A    between atoms: C_7  and  C_8
REMARK    4  A    between atoms: C_9  and  N_10
REMARK    5  A    between atoms: N_10  and  S_11
REMARK    6  A    between atoms: S_11  and  C_14
REMARK    7  A    between atoms: C_16  and  C_17
REMARK    8  A    between atoms: C_18  and  C_19
REMARK    9  A    between atoms: C_22  and  C_23
REMARK   10  A    between atoms: C_26  and  C_27
REMARK                            x       y       z     vdW  Elec       q    Type
REMARK                         _______ _______ _______ _____ _____    ______ ____
ROOT
ATOM      1  S   UNL     1       1.986   5.273  20.398  0.00  0.00    +0.000 S 
ATOM      2  O   UNL     1       2.372   4.610  21.620  0.00  0.00    +0.000 OA
ATOM      3  O   UNL     1       0.601   5.445  20.007  0.00  0.00    +0.000 OA
ENDROOT
BRANCH   1   4
ATOM      4  C   UNL     1       2.760   4.366  19.051  0.00  0.00    +0.000 A 
ATOM      5  C   UNL     1       3.826   4.930  18.331  0.00  0.00    +0.000 A 
ATOM      6  C   UNL     1       4.522   4.178  17.361  0.00  0.00    +0.000 A 
ATOM      7  C   UNL     1       4.097   2.875  17.090  0.00  0.00    +0.000 A 
ATOM      8  C   UNL     1       2.995   2.333  17.749  0.00  0.00    +0.000 A 
ATOM      9  C   UNL     1       2.315   3.061  18.739  0.00  0.00    +0.000 A 
ATOM     10  C   UNL     1       1.139   2.398  19.407  0.00  0.00    +0.000 C 
BRANCH   6  11
ATOM     11  C   UNL     1       5.704   4.697  16.684  0.00  0.00    +0.000 A 
ATOM     12  C   UNL     1       6.128   4.688  15.320  0.00  0.00    +0.000 A 
ATOM     13  C   UNL     1       5.463   4.173  14.101  0.00  0.00    +0.000 C 
ATOM     14  N   UNL     1       7.341   5.241  15.180  0.00  0.00    +0.000 NA
ATOM     15  O   UNL     1       7.754   5.575  16.448  0.00  0.00    +0.000 OA
ATOM     16  C   UNL     1       6.796   5.227  17.341  0.00  0.00    +0.000 A 
ATOM     17  C   UNL     1       7.132   5.465  18.750  0.00  0.00    +0.000 C 
ENDBRANCH   6  11
ENDBRANCH   1   4
BRANCH   1  18
ATOM     18  N   UNL     1       2.653   6.859  20.403  0.00  0.00    +0.000 N 
ATOM     19  H   UNL     1       3.537   6.776  19.890  0.00  0.00    +0.000 HD
BRANCH  18  26
ATOM     20  C   UNL     1       0.944   8.638  20.586  0.00  0.00    +0.000 A 
ATOM     21  C   UNL     1       0.235   9.736  20.055  0.00  0.00    +0.000 A 
ATOM     22  C   UNL     1       0.414  10.140  18.745  0.00  0.00    +0.000 A 
ATOM     23  C   UNL     1       1.323   9.454  17.954  0.00  0.00    +0.000 A 
ATOM     24  C   UNL     1       2.068   8.360  18.449  0.00  0.00    +0.000 A 
ATOM     25  C   UNL     1       3.059   7.750  17.497  0.00  0.00    +0.000 C 
ATOM     26  C   UNL     1       1.861   7.922  19.779  0.00  0.00    +0.000 A 
BRANCH  20  28
ATOM     27  C   UNL     1       0.141   9.550  22.790  0.00  0.00    +0.000 C 
ATOM     28  C   UNL     1       0.669   8.333  22.036  0.00  0.00    +0.000 C 
ENDBRANCH  20  28
ENDBRANCH  18  26
ENDBRANCH   1  18
TORSDOF 5
ENDMDL
MODEL 2
REMARK VINA RESULT:      -8.5      0.468      1.574
REMARK  Name = 
REMARK  10 active torsions:
REMARK  status: ('A' for Active; 'I' for Inactive)
REMARK    1  A    between atoms: C_1  and  C_2
REMARK    2  A    between atoms: C_2  and  C_3
REMARK    3  A    between atoms: C_7  and  C_8
REMARK    4  A    between atoms: C_9  and  N_10
REMARK    5  A    between atoms: N_10  and  S_11
REMARK    6  A    between atoms: S_11  and  C_14
REMARK    7  A    between atoms: C_16  and  C_17
REMARK    8  A    between atoms: C_18  and  C_19
REMARK    9  A    between atoms: C_22  and  C_23
REMARK   10  A    between atoms: C_26  and  C_27
REMARK                            x       y       z     vdW  Elec       q    Type
REMARK                         _______ _______ _______ _____ _____    ______ ____
ROOT
ATOM      1  S   UNL     1       2.054   5.272  20.342  0.00  0.00    +0.000 S 
ATOM      2  O   UNL     1       2.391   4.614  21.581  0.00  0.00    +0.000 OA
ATOM      3  O   UNL     1       0.688   5.411  19.879  0.00  0.00    +0.000 OA
ENDROOT
BRANCH   1   4
ATOM      4  C   UNL     1       2.920   4.391  19.035  0.00  0.00    +0.000 A 
ATOM      5  C   UNL     1       3.945   5.019  18.310  0.00  0.00    +0.000 A 
ATOM      6  C   UNL     1       4.715   4.296  17.373  0.00  0.00    +0.000 A 
ATOM      7  C   UNL     1       4.404   2.955  17.140  0.00  0.00    +0.000 A 
ATOM      8  C   UNL     1       3.341   2.344  17.803  0.00  0.00    +0.000 A 
ATOM      9  C   UNL     1       2.589   3.044  18.760  0.00  0.00    +0.000 A 
ATOM     10  C   UNL     1       1.462   2.307  19.436  0.00  0.00    +0.000 C 
BRANCH   6  11
ATOM     11  C   UNL     1       5.861   4.890  16.693  0.00  0.00    +0.000 A 
ATOM     12  C   UNL     1       6.937   5.717  17.140  0.00  0.00    +0.000 A 
ATOM     13  C   UNL     1       7.278   6.218  18.491  0.00  0.00    +0.000 C 
ATOM     14  N   UNL     1       7.734   6.076  16.123  0.00  0.00    +0.000 NA
ATOM     15  O   UNL     1       7.170   5.537  14.992  0.00  0.00    +0.000 OA
ATOM     16  C   UNL     1       6.045   4.859  15.326  0.00  0.00    +0.000 A 
ATOM     17  C   UNL     1       5.298   4.284  14.201  0.00  0.00    +0.000 C 
ENDBRANCH   6  11
ENDBRANCH   1   4
BRANCH   1  18
ATOM     18  N   UNL     1       2.680   6.874  20.387  0.00  0.00    +0.000 N 
ATOM     19  H   UNL     1       3.572   6.824  19.885  0.00  0.00    +0.000 HD
BRANCH  18  26
ATOM     20  C   UNL     1       0.963   8.644  20.593  0.00  0.00    +0.000 A 
ATOM     21  C   UNL     1       0.238   9.734  20.070  0.00  0.00    +0.000 A 
ATOM     22  C   UNL     1       0.389  10.132  18.754  0.00  0.00    +0.000 A 
ATOM     23  C   UNL     1       1.287   9.447  17.949  0.00  0.00    +0.000 A 
ATOM     24  C   UNL     1       2.047   8.360  18.436  0.00  0.00    +0.000 A 
ATOM     25  C   UNL     1       3.024   7.750  17.468  0.00  0.00    +0.000 C 
ATOM     26  C   UNL     1       1.869   7.929  19.772  0.00  0.00    +0.000 A 
BRANCH  20  28
ATOM     27  C   UNL     1      -0.059   9.461  22.743  0.00  0.00    +0.000 C 
ATOM     28  C   UNL     1       0.719   8.346  22.050  0.00  0.00    +0.000 C 
ENDBRANCH  20  28
ENDBRANCH  18  26
ENDBRANCH   1  18
TORSDOF 5
ENDMDL
MODEL 3
REMARK VINA RESULT:      -7.5      0.383      2.163
REMARK  Name = 
REMARK  10 active torsions:
REMARK  status: ('A' for Active; 'I' for Inactive)
REMARK    1  A    between atoms: C_1  and  C_2
REMARK    2  A    between atoms: C_2  and  C_3
REMARK    3  A    between atoms: C_7  and  C_8
REMARK    4  A    between atoms: C_9  and  N_10
REMARK    5  A    between atoms: N_10  and  S_11
REMARK    6  A    between atoms: S_11  and  C_14
REMARK    7  A    between atoms: C_16  and  C_17
REMARK    8  A    between atoms: C_18  and  C_19
REMARK    9  A    between atoms: C_22  and  C_23
REMARK   10  A    between atoms: C_26  and  C_27
REMARK                            x       y       z     vdW  Elec       q    Type
REMARK                         _______ _______ _______ _____ _____    ______ ____
ROOT
ATOM      1  S   UNL     1       1.972   5.319  20.356  0.00  0.00    +0.000 S 
ATOM      2  O   UNL     1       2.339   4.650  21.580  0.00  0.00    +0.000 OA
ATOM      3  O   UNL     1       0.593   5.564  19.984  0.00  0.00    +0.000 OA
ENDROOT
BRANCH   1   4
ATOM      4  C   UNL     1       2.672   4.354  19.009  0.00  0.00    +0.000 A 
ATOM      5  C   UNL     1       3.802   4.815  18.315  0.00  0.00    +0.000 A 
ATOM      6  C   UNL     1       4.434   4.007  17.345  0.00  0.00    +0.000 A 
ATOM      7  C   UNL     1       3.883   2.759  17.048  0.00  0.00    +0.000 A 
ATOM      8  C   UNL     1       2.719   2.325  17.681  0.00  0.00    +0.000 A 
ATOM      9  C   UNL     1       2.100   3.107  18.670  0.00  0.00    +0.000 A 
ATOM     10  C   UNL     1       0.851   2.560  19.309  0.00  0.00    +0.000 C 
BRANCH   6  11
ATOM     11  C   UNL     1       5.676   4.410  16.696  0.00  0.00    +0.000 A 
ATOM     12  C   UNL     1       6.128   4.358  15.341  0.00  0.00    +0.000 A 
ATOM     13  C   UNL     1       5.445   3.907  14.108  0.00  0.00    +0.000 C 
ATOM     14  N   UNL     1       7.392   4.793  15.229  0.00  0.00    +0.000 NA
ATOM     15  O   UNL     1       7.805   5.089  16.506  0.00  0.00    +0.000 OA
ATOM     16  C   UNL     1       6.798   4.835  17.378  0.00  0.00    +0.000 A 
ATOM     17  C   UNL     1       7.123   5.044  18.793  0.00  0.00    +0.000 C 
ENDBRANCH   6  11
ENDBRANCH   1   4
BRANCH   1  18
ATOM     18  N   UNL     1       2.727   6.865  20.331  0.00  0.00    +0.000 N 
ATOM     19  H   UNL     1       3.544   6.750  19.724  0.00  0.00    +0.000 HD
BRANCH  18  26
ATOM     20  C   UNL     1       1.936   8.238  18.431  0.00  0.00    +0.000 A 
ATOM     21  C   UNL     1       1.110   9.245  17.888  0.00  0.00    +0.000 A 
ATOM     22  C   UNL     1       0.287  10.010  18.694  0.00  0.00    +0.000 A 
ATOM     23  C   UNL     1       0.270   9.761  20.058  0.00  0.00    +0.000 A 
ATOM     24  C   UNL     1       1.067   8.752  20.643  0.00  0.00    +0.000 A 
ATOM     25  C   UNL     1       0.902   8.555  22.125  0.00  0.00    +0.000 C 
ATOM     26  C   UNL     1       1.936   7.990  19.826  0.00  0.00    +0.000 A 
BRANCH  20  28
ATOM     27  C   UNL     1       4.177   8.005  17.311  0.00  0.00    +0.000 C 
ATOM     28  C   UNL     1       2.755   7.465  17.430  0.00  0.00    +0.000 C 
ENDBRANCH  20  28
ENDBRANCH  18  26
ENDBRANCH   1  18
TORSDOF 5
ENDMDL
MODEL 4
REMARK VINA RESULT:      -7.3      3.042      5.002
REMARK  Name = 
REMARK  10 active torsions:
REMARK  status: ('A' for Active; 'I' for Inactive)
REMARK    1  A    between atoms: C_1  and  C_2
REMARK    2  A    between atoms: C_2  and  C_3
REMARK    3  A    between atoms: C_7  and  C_8
REMARK    4  A    between atoms: C_9  and  N_10
REMARK    5  A    between atoms: N_10  and  S_11
REMARK    6  A    between atoms: S_11  and  C_14
REMARK    7  A    between atoms: C_16  and  C_17
REMARK    8  A    between atoms: C_18  and  C_19
REMARK    9  A    between atoms: C_22  and  C_23
REMARK   10  A    between atoms: C_26  and  C_27
REMARK                            x       y       z     vdW  Elec       q    Type
REMARK                         _______ _______ _______ _____ _____    ______ ____
ROOT
ATOM      1  S   UNL     1       0.628   9.516  20.684  0.00  0.00    +0.000 S 
ATOM      2  O   UNL     1       1.413   9.904  21.830  0.00  0.00    +0.000 OA
ATOM      3  O   UNL     1      -0.616   8.782  20.802  0.00  0.00    +0.000 OA
ENDROOT
BRANCH   1   4
ATOM      4  C   UNL     1       1.692   8.501  19.647  0.00  0.00    +0.000 A 
ATOM      5  C   UNL     1       2.041   7.200  20.042  0.00  0.00    +0.000 A 
ATOM      6  C   UNL     1       2.767   6.352  19.178  0.00  0.00    +0.000 A 
ATOM      7  C   UNL     1       3.180   6.850  17.940  0.00  0.00    +0.000 A 
ATOM      8  C   UNL     1       2.900   8.165  17.571  0.00  0.00    +0.000 A 
ATOM      9  C   UNL     1       2.151   9.007  18.409  0.00  0.00    +0.000 A 
ATOM     10  C   UNL     1       1.887  10.410  17.931  0.00  0.00    +0.000 C 
BRANCH   6  11
ATOM     11  C   UNL     1       3.040   4.960  19.513  0.00  0.00    +0.000 A 
ATOM     12  C   UNL     1       2.226   3.904  20.028  0.00  0.00    +0.000 A 
ATOM     13  C   UNL     1       0.783   3.865  20.357  0.00  0.00    +0.000 C 
ATOM     14  N   UNL     1       2.943   2.791  20.239  0.00  0.00    +0.000 NA
ATOM     15  O   UNL     1       4.240   3.109  19.916  0.00  0.00    +0.000 OA
ATOM     16  C   UNL     1       4.302   4.402  19.513  0.00  0.00    +0.000 A 
ATOM     17  C   UNL     1       5.646   4.900  19.199  0.00  0.00    +0.000 C 
ENDBRANCH   6  11
ENDBRANCH   1   4
BRANCH   1  18
ATOM     18  N   UNL     1       0.233  10.931  19.789  0.00  0.00    +0.000 N 
ATOM     19  H   UNL     1       0.605  10.763  18.849  0.00  0.00    +0.000 HD
BRANCH  18  26
ATOM     20  C   UNL     1      -1.762  12.124  20.637  0.00  0.00    +0.000 A 
ATOM     21  C   UNL     1      -3.096  12.561  20.501  0.00  0.00    +0.000 A 
ATOM     22  C   UNL     1      -3.873  12.173  19.424  0.00  0.00    +0.000 A 
ATOM     23  C   UNL     1      -3.310  11.351  18.458  0.00  0.00    +0.000 A 
ATOM     24  C   UNL     1      -1.973  10.904  18.545  0.00  0.00    +0.000 A 
ATOM     25  C   UNL     1      -1.480  10.067  17.396  0.00  0.00    +0.000 C 
ATOM     26  C   UNL     1      -1.187  11.272  19.663  0.00  0.00    +0.000 A 
BRANCH  20  28
ATOM     27  C   UNL     1      -1.355  11.860  23.106  0.00  0.00    +0.000 C 
ATOM     28  C   UNL     1      -1.030  12.652  21.843  0.00  0.00    +0.000 C 
ENDBRANCH  20  28
ENDBRANCH  18  26
ENDBRANCH   1  18
TORSDOF 5
ENDMDL
MODEL 5
REMARK VINA RESULT:      -7.3      2.742      7.600
REMARK  Name = 
REMARK  10 active torsions:
REMARK  status: ('A' for Active; 'I' for Inactive)
REMARK    1  A    between atoms: C_1  and  C_2
REMARK    2  A    between atoms: C_2  and  C_3
REMARK    3  A    between atoms: C_7  and  C_8
REMARK    4  A    between atoms: C_9  and  N_10
REMARK    5  A    between atoms: N_10  and  S_11
REMARK    6  A    between atoms: S_11  and  C_14
REMARK    7  A    between atoms: C_16  and  C_17
REMARK    8  A    between atoms: C_18  and  C_19
REMARK    9  A    between atoms: C_22  and  C_23
REMARK   10  A    between atoms: C_26  and  C_27
REMARK                            x       y       z     vdW  Elec       q    Type
REMARK                         _______ _______ _______ _____ _____    ______ ____
ROOT
ATOM      1  S   UNL     1       3.112   6.674  18.380  0.00  0.00    +0.000 S 
ATOM      2  O   UNL     1       4.015   6.060  19.323  0.00  0.00    +0.000 OA
ATOM      3  O   UNL     1       3.577   7.455  17.251  0.00  0.00    +0.000 OA
ENDROOT
BRANCH   1   4
ATOM      4  C   UNL     1       2.048   7.775  19.324  0.00  0.00    +0.000 A 
ATOM      5  C   UNL     1       1.634   9.003  18.784  0.00  0.00    +0.000 A 
ATOM      6  C   UNL     1       0.697   9.812  19.462  0.00  0.00    +0.000 A 
ATOM      7  C   UNL     1       0.228   9.395  20.710  0.00  0.00    +0.000 A 
ATOM      8  C   UNL     1       0.689   8.212  21.286  0.00  0.00    +0.000 A 
ATOM      9  C   UNL     1       1.597   7.384  20.606  0.00  0.00    +0.000 A 
ATOM     10  C   UNL     1       2.039   6.120  21.296  0.00  0.00    +0.000 C 
BRANCH   6  11
ATOM     11  C   UNL     1       0.160  11.032  18.871  0.00  0.00    +0.000 A 
ATOM     12  C   UNL     1       0.587  12.396  18.895  0.00  0.00    +0.000 A 
ATOM     13  C   UNL     1       1.775  13.029  19.510  0.00  0.00    +0.000 C 
ATOM     14  N   UNL     1      -0.277  13.191  18.247  0.00  0.00    +0.000 NA
ATOM     15  O   UNL     1      -1.303  12.376  17.832  0.00  0.00    +0.000 OA
ATOM     16  C   UNL     1      -1.058  11.103  18.226  0.00  0.00    +0.000 A 
ATOM     17  C   UNL     1      -2.110  10.131  17.907  0.00  0.00    +0.000 C 
ENDBRANCH   6  11
ENDBRANCH   1   4
BRANCH   1  18
ATOM     18  N   UNL     1       2.115   5.448  17.700  0.00  0.00    +0.000 N 
ATOM     19  H   UNL     1       2.150   5.609  16.689  0.00  0.00    +0.000 HD
BRANCH  18  26
ATOM     20  C   UNL     1       3.634   3.538  17.294  0.00  0.00    +0.000 A 
ATOM     21  C   UNL     1       4.096   2.238  17.585  0.00  0.00    +0.000 A 
ATOM     22  C   UNL     1       3.455   1.440  18.515  0.00  0.00    +0.000 A 
ATOM     23  C   UNL     1       2.348   1.947  19.178  0.00  0.00    +0.000 A 
ATOM     24  C   UNL     1       1.861   3.250  18.931  0.00  0.00    +0.000 A 
ATOM     25  C   UNL     1       0.688   3.687  19.766  0.00  0.00    +0.000 C 
ATOM     26  C   UNL     1       2.494   4.056  17.955  0.00  0.00    +0.000 A 
BRANCH  20  28
ATOM     27  C   UNL     1       5.914   4.422  16.698  0.00  0.00    +0.000 C 
ATOM     28  C   UNL     1       4.450   4.302  16.283  0.00  0.00    +0.000 C 
ENDBRANCH  20  28
ENDBRANCH  18  26
ENDBRANCH   1  18
TORSDOF 5
ENDMDL
MODEL 6
REMARK VINA RESULT:      -7.2      2.988      5.285
REMARK  Name = 
REMARK  10 active torsions:
REMARK  status: ('A' for Active; 'I' for Inactive)
REMARK    1  A    between atoms: C_1  and  C_2
REMARK    2  A    between atoms: C_2  and  C_3
REMARK    3  A    between atoms: C_7  and  C_8
REMARK    4  A    between atoms: C_9  and  N_10
REMARK    5  A    between atoms: N_10  and  S_11
REMARK    6  A    between atoms: S_11  and  C_14
REMARK    7  A    between atoms: C_16  and  C_17
REMARK    8  A    between atoms: C_18  and  C_19
REMARK    9  A    between atoms: C_22  and  C_23
REMARK   10  A    between atoms: C_26  and  C_27
REMARK                            x       y       z     vdW  Elec       q    Type
REMARK                         _______ _______ _______ _____ _____    ______ ____
ROOT
ATOM      1  S   UNL     1       1.003   9.460  21.128  0.00  0.00    +0.000 S 
ATOM      2  O   UNL     1       1.547  10.790  20.998  0.00  0.00    +0.000 OA
ATOM      3  O   UNL     1       1.076   8.704  22.362  0.00  0.00    +0.000 OA
ENDROOT
BRANCH   1   4
ATOM      4  C   UNL     1       1.821   8.444  19.889  0.00  0.00    +0.000 A 
ATOM      5  C   UNL     1       2.226   7.135  20.195  0.00  0.00    +0.000 A 
ATOM      6  C   UNL     1       2.751   6.288  19.196  0.00  0.00    +0.000 A 
ATOM      7  C   UNL     1       2.910   6.793  17.903  0.00  0.00    +0.000 A 
ATOM      8  C   UNL     1       2.577   8.114  17.608  0.00  0.00    +0.000 A 
ATOM      9  C   UNL     1       2.025   8.956  18.587  0.00  0.00    +0.000 A 
ATOM     10  C   UNL     1       1.687  10.367  18.183  0.00  0.00    +0.000 C 
BRANCH   6  11
ATOM     11  C   UNL     1       3.068   4.889  19.458  0.00  0.00    +0.000 A 
ATOM     12  C   UNL     1       2.290   3.784  19.922  0.00  0.00    +0.000 A 
ATOM     13  C   UNL     1       0.851   3.683  20.254  0.00  0.00    +0.000 C 
ATOM     14  N   UNL     1       3.042   2.684  20.073  0.00  0.00    +0.000 NA
ATOM     15  O   UNL     1       4.327   3.059  19.761  0.00  0.00    +0.000 OA
ATOM     16  C   UNL     1       4.347   4.371  19.425  0.00  0.00    +0.000 A 
ATOM     17  C   UNL     1       5.673   4.926  19.131  0.00  0.00    +0.000 C 
ENDBRANCH   6  11
ENDBRANCH   1   4
BRANCH   1  18
ATOM     18  N   UNL     1      -0.670   9.513  20.730  0.00  0.00    +0.000 N 
ATOM     19  H   UNL     1      -1.141   9.034  21.503  0.00  0.00    +0.000 HD
BRANCH  18  26
ATOM     20  C   UNL     1      -1.758  11.205  19.290  0.00  0.00    +0.000 A 
ATOM     21  C   UNL     1      -2.445  12.424  19.111  0.00  0.00    +0.000 A 
ATOM     22  C   UNL     1      -2.670  13.283  20.172  0.00  0.00    +0.000 A 
ATOM     23  C   UNL     1      -2.220  12.919  21.432  0.00  0.00    +0.000 A 
ATOM     24  C   UNL     1      -1.544  11.700  21.660  0.00  0.00    +0.000 A 
ATOM     25  C   UNL     1      -1.166  11.410  23.087  0.00  0.00    +0.000 C 
ATOM     26  C   UNL     1      -1.281  10.835  20.571  0.00  0.00    +0.000 A 
BRANCH  20  28
ATOM     27  C   UNL     1      -2.964   9.890  17.516  0.00  0.00    +0.000 C 
ATOM     28  C   UNL     1      -1.615  10.358  18.052  0.00  0.00    +0.000 C 
ENDBRANCH  20  28
ENDBRANCH  18  26
ENDBRANCH   1  18
TORSDOF 5
ENDMDL
MODEL 7
REMARK VINA RESULT:      -7.2      2.788      7.364
REMARK  Name = 
REMARK  10 active torsions:
REMARK  status: ('A' for Active; 'I' for Inactive)
REMARK    1  A    between atoms: C_1  and  C_2
REMARK    2  A    between atoms: C_2  and  C_3
REMARK    3  A    between atoms: C_7  and  C_8
REMARK    4  A    between atoms: C_9  and  N_10
REMARK    5  A    between atoms: N_10  and  S_11
REMARK    6  A    between atoms: S_11  and  C_14
REMARK    7  A    between atoms: C_16  and  C_17
REMARK    8  A    between atoms: C_18  and  C_19
REMARK    9  A    between atoms: C_22  and  C_23
REMARK   10  A    between atoms: C_26  and  C_27
REMARK                            x       y       z     vdW  Elec       q    Type
REMARK                         _______ _______ _______ _____ _____    ______ ____
ROOT
ATOM      1  S   UNL     1       3.129   6.779  18.317  0.00  0.00    +0.000 S 
ATOM      2  O   UNL     1       4.146   6.306  19.224  0.00  0.00    +0.000 OA
ATOM      3  O   UNL     1       3.443   7.507  17.104  0.00  0.00    +0.000 OA
ENDROOT
BRANCH   1   4
ATOM      4  C   UNL     1       2.051   7.862  19.266  0.00  0.00    +0.000 A 
ATOM      5  C   UNL     1       1.600   9.075  18.721  0.00  0.00    +0.000 A 
ATOM      6  C   UNL     1       0.654   9.868  19.405  0.00  0.00    +0.000 A 
ATOM      7  C   UNL     1       0.212   9.450  20.664  0.00  0.00    +0.000 A 
ATOM      8  C   UNL     1       0.710   8.284  21.243  0.00  0.00    +0.000 A 
ATOM      9  C   UNL     1       1.628   7.472  20.557  0.00  0.00    +0.000 A 
ATOM     10  C   UNL     1       2.110   6.225  21.252  0.00  0.00    +0.000 C 
BRANCH   6  11
ATOM     11  C   UNL     1       0.080  11.069  18.811  0.00  0.00    +0.000 A 
ATOM     12  C   UNL     1       0.476  12.442  18.813  0.00  0.00    +0.000 A 
ATOM     13  C   UNL     1       1.662  13.107  19.398  0.00  0.00    +0.000 C 
ATOM     14  N   UNL     1      -0.416  13.210  18.173  0.00  0.00    +0.000 NA
ATOM     15  O   UNL     1      -1.432  12.369  17.786  0.00  0.00    +0.000 OA
ATOM     16  C   UNL     1      -1.152  11.106  18.189  0.00  0.00    +0.000 A 
ATOM     17  C   UNL     1      -2.188  10.108  17.901  0.00  0.00    +0.000 C 
ENDBRANCH   6  11
ENDBRANCH   1   4
BRANCH   1  18
ATOM     18  N   UNL     1       2.187   5.434  17.803  0.00  0.00    +0.000 N 
ATOM     19  H   UNL     1       2.040   5.581  16.800  0.00  0.00    +0.000 HD
BRANCH  18  26
ATOM     20  C   UNL     1       2.132   3.217  18.901  0.00  0.00    +0.000 A 
ATOM     21  C   UNL     1       2.590   1.890  19.037  0.00  0.00    +0.000 A 
ATOM     22  C   UNL     1       3.657   1.418  18.294  0.00  0.00    +0.000 A 
ATOM     23  C   UNL     1       4.268   2.272  17.389  0.00  0.00    +0.000 A 
ATOM     24  C   UNL     1       3.832   3.604  17.206  0.00  0.00    +0.000 A 
ATOM     25  C   UNL     1       4.551   4.396  16.149  0.00  0.00    +0.000 C 
ATOM     26  C   UNL     1       2.763   4.100  17.990  0.00  0.00    +0.000 A 
BRANCH  20  28
ATOM     27  C   UNL     1       0.986   2.905  21.119  0.00  0.00    +0.000 C 
ATOM     28  C   UNL     1       0.943   3.580  19.751  0.00  0.00    +0.000 C 
ENDBRANCH  20  28
ENDBRANCH  18  26
ENDBRANCH   1  18
TORSDOF 5
ENDMDL
MODEL 8
REMARK VINA RESULT:      -7.2      3.134      4.565
REMARK  Name = 
REMARK  10 active torsions:
REMARK  status: ('A' for Active; 'I' for Inactive)
REMARK    1  A    between atoms: C_1  and  C_2
REMARK    2  A    between atoms: C_2  and  C_3
REMARK    3  A    between atoms: C_7  and  C_8
REMARK    4  A    between atoms: C_9  and  N_10
REMARK    5  A    between atoms: N_10  and  S_11
REMARK    6  A    between atoms: S_11  and  C_14
REMARK    7  A    between atoms: C_16  and  C_17
REMARK    8  A    between atoms: C_18  and  C_19
REMARK    9  A    between atoms: C_22  and  C_23
REMARK   10  A    between atoms: C_26  and  C_27
REMARK                            x       y       z     vdW  Elec       q    Type
REMARK                         _______ _______ _______ _____ _____    ______ ____
ROOT
ATOM      1  S   UNL     1       1.201   9.998  18.345  0.00  0.00    +0.000 S 
ATOM      2  O   UNL     1      -0.201   9.861  18.036  0.00  0.00    +0.000 OA
ATOM      3  O   UNL     1       2.177  10.433  17.365  0.00  0.00    +0.000 OA
ENDROOT
BRANCH   1   4
ATOM      4  C   UNL     1       1.767   8.386  18.909  0.00  0.00    +0.000 A 
ATOM      5  C   UNL     1       2.546   7.571  18.072  0.00  0.00    +0.000 A 
ATOM      6  C   UNL     1       3.101   6.365  18.550  0.00  0.00    +0.000 A 
ATOM      7  C   UNL     1       2.817   5.968  19.860  0.00  0.00    +0.000 A 
ATOM      8  C   UNL     1       1.986   6.736  20.673  0.00  0.00    +0.000 A 
ATOM      9  C   UNL     1       1.454   7.953  20.218  0.00  0.00    +0.000 A 
ATOM     10  C   UNL     1       0.571   8.725  21.163  0.00  0.00    +0.000 C 
BRANCH   6  11
ATOM     11  C   UNL     1       4.009   5.559  17.743  0.00  0.00    +0.000 A 
ATOM     12  C   UNL     1       5.292   5.818  17.169  0.00  0.00    +0.000 A 
ATOM     13  C   UNL     1       6.167   7.009  17.248  0.00  0.00    +0.000 C 
ATOM     14  N   UNL     1       5.721   4.778  16.440  0.00  0.00    +0.000 NA
ATOM     15  O   UNL     1       4.713   3.845  16.481  0.00  0.00    +0.000 OA
ATOM     16  C   UNL     1       3.687   4.320  17.229  0.00  0.00    +0.000 A 
ATOM     17  C   UNL     1       2.507   3.450  17.304  0.00  0.00    +0.000 C 
ENDBRANCH   6  11
ENDBRANCH   1   4
BRANCH   1  18
ATOM     18  N   UNL     1       1.366  11.093  19.662  0.00  0.00    +0.000 N 
ATOM     19  H   UNL     1       2.376  11.178  19.811  0.00  0.00    +0.000 HD
BRANCH  18  26
ATOM     20  C   UNL     1      -0.452  12.725  20.050  0.00  0.00    +0.000 A 
ATOM     21  C   UNL     1      -0.976  14.034  19.997  0.00  0.00    +0.000 A 
ATOM     22  C   UNL     1      -0.272  15.065  19.400  0.00  0.00    +0.000 A 
ATOM     23  C   UNL     1       0.977  14.796  18.863  0.00  0.00    +0.000 A 
ATOM     24  C   UNL     1       1.548  13.505  18.909  0.00  0.00    +0.000 A 
ATOM     25  C   UNL     1       2.934  13.373  18.340  0.00  0.00    +0.000 C 
ATOM     26  C   UNL     1       0.816  12.440  19.488  0.00  0.00    +0.000 A 
BRANCH  20  28
ATOM     27  C   UNL     1      -1.200  11.818  22.275  0.00  0.00    +0.000 C 
ATOM     28  C   UNL     1      -1.315  11.713  20.757  0.00  0.00    +0.000 C 
ENDBRANCH  20  28
ENDBRANCH  18  26
ENDBRANCH   1  18
TORSDOF 5
ENDMDL
MODEL 9
REMARK VINA RESULT:      -7.2      2.903      5.239
REMARK  Name = 
REMARK  10 active torsions:
REMARK  status: ('A' for Active; 'I' for Inactive)
REMARK    1  A    between atoms: C_1  and  C_2
REMARK    2  A    between atoms: C_2  and  C_3
REMARK    3  A    between atoms: C_7  and  C_8
REMARK    4  A    between atoms: C_9  and  N_10
REMARK    5  A    between atoms: N_10  and  S_11
REMARK    6  A    between atoms: S_11  and  C_14
REMARK    7  A    between atoms: C_16  and  C_17
REMARK    8  A    between atoms: C_18  and  C_19
REMARK    9  A    between atoms: C_22  and  C_23
REMARK   10  A    between atoms: C_26  and  C_27
REMARK                            x       y       z     vdW  Elec       q    Type
REMARK                         _______ _______ _______ _____ _____    ______ ____
ROOT
ATOM      1  S   UNL     1       1.024   9.335  21.022  0.00  0.00    +0.000 S 
ATOM      2  O   UNL     1       1.601  10.652  20.900  0.00  0.00    +0.000 OA
ATOM      3  O   UNL     1       1.047   8.585  22.262  0.00  0.00    +0.000 OA
ENDROOT
BRANCH   1   4
ATOM      4  C   UNL     1       1.852   8.293  19.812  0.00  0.00    +0.000 A 
ATOM      5  C   UNL     1       2.293   7.007  20.161  0.00  0.00    +0.000 A 
ATOM      6  C   UNL     1       2.826   6.135  19.187  0.00  0.00    +0.000 A 
ATOM      7  C   UNL     1       2.958   6.595  17.875  0.00  0.00    +0.000 A 
ATOM      8  C   UNL     1       2.590   7.897  17.535  0.00  0.00    +0.000 A 
ATOM      9  C   UNL     1       2.029   8.761  18.489  0.00  0.00    +0.000 A 
ATOM     10  C   UNL     1       1.652  10.147  18.037  0.00  0.00    +0.000 C 
BRANCH   6  11
ATOM     11  C   UNL     1       3.181   4.756  19.497  0.00  0.00    +0.000 A 
ATOM     12  C   UNL     1       4.382   3.999  19.337  0.00  0.00    +0.000 A 
ATOM     13  C   UNL     1       5.716   4.394  18.831  0.00  0.00    +0.000 C 
ATOM     14  N   UNL     1       4.212   2.724  19.714  0.00  0.00    +0.000 NA
ATOM     15  O   UNL     1       2.892   2.609  20.079  0.00  0.00    +0.000 OA
ATOM     16  C   UNL     1       2.275   3.806  19.923  0.00  0.00    +0.000 A 
ATOM     17  C   UNL     1       0.836   3.814  20.213  0.00  0.00    +0.000 C 
ENDBRANCH   6  11
ENDBRANCH   1   4
BRANCH   1  18
ATOM     18  N   UNL     1      -0.636   9.422  20.579  0.00  0.00    +0.000 N 
ATOM     19  H   UNL     1      -1.129   8.874  21.290  0.00  0.00    +0.000 HD
BRANCH  18  26
ATOM     20  C   UNL     1      -1.739  11.214  19.277  0.00  0.00    +0.000 A 
ATOM     21  C   UNL     1      -2.425  12.443  19.195  0.00  0.00    +0.000 A 
ATOM     22  C   UNL     1      -2.636  13.225  20.316  0.00  0.00    +0.000 A 
ATOM     23  C   UNL     1      -2.171  12.771  21.541  0.00  0.00    +0.000 A 
ATOM     24  C   UNL     1      -1.494  11.539  21.674  0.00  0.00    +0.000 A 
ATOM     25  C   UNL     1      -1.099  11.147  23.072  0.00  0.00    +0.000 C 
ATOM     26  C   UNL     1      -1.247  10.753  20.523  0.00  0.00    +0.000 A 
BRANCH  20  28
ATOM     27  C   UNL     1      -2.920   9.781  17.580  0.00  0.00    +0.000 C 
ATOM     28  C   UNL     1      -1.612  10.457  17.981  0.00  0.00    +0.000 C 
ENDBRANCH  20  28
ENDBRANCH  18  26
ENDBRANCH   1  18
TORSDOF 5
ENDMDL
