MODEL 1
REMARK VINA RESULT:      -7.7      0.000      0.000
REMARK  Name = 
REMARK  6 active torsions:
REMARK  status: ('A' for Active; 'I' for Inactive)
REMARK    1  A    between atoms: C_1  and  O_2
REMARK    2  A    between atoms: O_2  and  C_3
REMARK    3  A    between atoms: C_6  and  C_7
REMARK    4  A    between atoms: N_11  and  C_12
REMARK    5  A    between atoms: N_11  and  C_13
REMARK    6  A    between atoms: C_15  and  C_16
REMARK                            x       y       z     vdW  Elec       q    Type
REMARK                         _______ _______ _______ _____ _____    ______ ____
ROOT
ATOM      1  C   UNL     1       3.236   6.709  18.120  0.00  0.00    +0.000 A 
ATOM      2  C   UNL     1       3.084   8.066  17.870  0.00  0.00    +0.000 A 
ATOM      3  N   UNL     1       2.294   8.926  18.546  0.00  0.00    +0.000 NA
ATOM      4  C   UNL     1       1.566   8.433  19.548  0.00  0.00    +0.000 A 
ATOM      5  N   UNL     1       0.643   9.244  20.176  0.00  0.00    +0.000 N 
ATOM      6  C   UNL     1      -0.090   8.723  21.317  0.00  0.00    +0.000 C 
ATOM      7  C   UNL     1       0.857  10.680  20.137  0.00  0.00    +0.000 C 
ATOM      8  N   UNL     1       1.647   7.140  19.889  0.00  0.00    +0.000 NA
ATOM      9  C   UNL     1       2.477   6.287  19.215  0.00  0.00    +0.000 A 
ENDROOT
BRANCH   9  10
ATOM     10  C   UNL     1       2.506   4.870  19.771  0.00  0.00    +0.000 C 
ATOM     11  C   UNL     1       1.422   3.932  19.149  0.00  0.00    +0.000 C 
ATOM     12  N   UNL     1       1.400   2.578  19.755  0.00  0.00    +0.000 NA
ATOM     13  C   UNL     1       1.261   2.741  21.212  0.00  0.00    +0.000 C 
ATOM     14  C   UNL     1       2.379   3.622  21.787  0.00  0.00    +0.000 C 
ATOM     15  O   UNL     1       2.354   4.928  21.202  0.00  0.00    +0.000 OA
ATOM     16  H   UNL     1       2.289   2.116  19.554  0.00  0.00    +0.000 HD
ENDBRANCH   9  10
BRANCH   1  20
ATOM     17  C   UNL     1       5.678   4.358  15.413  0.00  0.00    +0.000 A 
ATOM     18  C   UNL     1       5.758   5.747  15.426  0.00  0.00    +0.000 A 
ATOM     19  C   UNL     1       5.014   6.498  16.348  0.00  0.00    +0.000 A 
ATOM     20  C   UNL     1       4.116   5.890  17.250  0.00  0.00    +0.000 A 
ATOM     21  C   UNL     1       4.043   4.488  17.195  0.00  0.00    +0.000 A 
ATOM     22  C   UNL     1       4.830   3.730  16.315  0.00  0.00    +0.000 A 
BRANCH  17  24
ATOM     23  C   UNL     1       5.847   3.686  13.147  0.00  0.00    +0.000 C 
ATOM     24  O   UNL     1       6.419   3.735  14.449  0.00  0.00    +0.000 OA
ENDBRANCH  17  24
ENDBRANCH   1  20
TORSDOF 3
ENDMDL
MODEL 2
REMARK VINA RESULT:      -7.6      2.474      6.297
REMARK  Name = 
REMARK  6 active torsions:
REMARK  status: ('A' for Active; 'I' for Inactive)
REMARK    1  A    between atoms: C_1  and  O_2
REMARK    2  A    between atoms: O_2  and  C_3
REMARK    3  A    between atoms: C_6  and  C_7
REMARK    4  A    between atoms: N_11  and  C_12
REMARK    5  A    between atoms: N_11  and  C_13
REMARK    6  A    between atoms: C_15  and  C_16
REMARK                            x       y       z     vdW  Elec       q    Type
REMARK                         _______ _______ _______ _____ _____    ______ ____
ROOT
ATOM      1  C   UNL     1       3.010   7.021  18.190  0.00  0.00    +0.000 A 
ATOM      2  C   UNL     1       3.942   7.531  17.296  0.00  0.00    +0.000 A 
ATOM      3  N   UNL     1       4.809   6.821  16.544  0.00  0.00    +0.000 NA
ATOM      4  C   UNL     1       4.793   5.495  16.677  0.00  0.00    +0.000 A 
ATOM      5  N   UNL     1       5.752   4.739  16.033  0.00  0.00    +0.000 N 
ATOM      6  C   UNL     1       5.680   3.291  16.118  0.00  0.00    +0.000 C 
ATOM      7  C   UNL     1       6.374   5.295  14.844  0.00  0.00    +0.000 C 
ATOM      8  N   UNL     1       3.923   4.893  17.498  0.00  0.00    +0.000 NA
ATOM      9  C   UNL     1       3.027   5.624  18.230  0.00  0.00    +0.000 A 
ENDROOT
BRANCH   9  10
ATOM     10  C   UNL     1       2.062   4.788  19.058  0.00  0.00    +0.000 C 
ATOM     11  C   UNL     1       2.622   4.397  20.463  0.00  0.00    +0.000 C 
ATOM     12  N   UNL     1       1.712   3.511  21.232  0.00  0.00    +0.000 NA
ATOM     13  C   UNL     1       1.399   2.348  20.386  0.00  0.00    +0.000 C 
ATOM     14  C   UNL     1       0.800   2.777  19.040  0.00  0.00    +0.000 C 
ATOM     15  O   UNL     1       1.714   3.605  18.313  0.00  0.00    +0.000 OA
ATOM     16  H   UNL     1       0.849   4.023  21.429  0.00  0.00    +0.000 HD
ENDBRANCH   9  10
BRANCH   1  20
ATOM     17  C   UNL     1       0.357   9.582  20.477  0.00  0.00    +0.000 A 
ATOM     18  C   UNL     1       1.007   8.507  21.075  0.00  0.00    +0.000 A 
ATOM     19  C   UNL     1       1.913   7.721  20.347  0.00  0.00    +0.000 A 
ATOM     20  C   UNL     1       2.157   7.946  18.976  0.00  0.00    +0.000 A 
ATOM     21  C   UNL     1       1.468   9.025  18.398  0.00  0.00    +0.000 A 
ATOM     22  C   UNL     1       0.606   9.849  19.137  0.00  0.00    +0.000 A 
BRANCH  17  24
ATOM     23  C   UNL     1      -0.486   9.942  22.662  0.00  0.00    +0.000 C 
ATOM     24  O   UNL     1      -0.529  10.250  21.273  0.00  0.00    +0.000 OA
ENDBRANCH  17  24
ENDBRANCH   1  20
TORSDOF 3
ENDMDL
MODEL 3
REMARK VINA RESULT:      -7.6      2.482      6.257
REMARK  Name = 
REMARK  6 active torsions:
REMARK  status: ('A' for Active; 'I' for Inactive)
REMARK    1  A    between atoms: C_1  and  O_2
REMARK    2  A    between atoms: O_2  and  C_3
REMARK    3  A    between atoms: C_6  and  C_7
REMARK    4  A    between atoms: N_11  and  C_12
REMARK    5  A    between atoms: N_11  and  C_13
REMARK    6  A    between atoms: C_15  and  C_16
REMARK                            x       y       z     vdW  Elec       q    Type
REMARK                         _______ _______ _______ _____ _____    ______ ____
ROOT
ATOM      1  C   UNL     1       2.947   7.029  18.210  0.00  0.00    +0.000 A 
ATOM      2  C   UNL     1       3.880   7.553  17.323  0.00  0.00    +0.000 A 
ATOM      3  N   UNL     1       4.769   6.858  16.585  0.00  0.00    +0.000 NA
ATOM      4  C   UNL     1       4.777   5.532  16.723  0.00  0.00    +0.000 A 
ATOM      5  N   UNL     1       5.757   4.793  16.094  0.00  0.00    +0.000 N 
ATOM      6  C   UNL     1       5.713   3.344  16.184  0.00  0.00    +0.000 C 
ATOM      7  C   UNL     1       6.382   5.355  14.909  0.00  0.00    +0.000 C 
ATOM      8  N   UNL     1       3.909   4.916  17.537  0.00  0.00    +0.000 NA
ATOM      9  C   UNL     1       2.991   5.633  18.255  0.00  0.00    +0.000 A 
ENDROOT
BRANCH   9  10
ATOM     10  C   UNL     1       2.034   4.781  19.076  0.00  0.00    +0.000 C 
ATOM     11  C   UNL     1       2.570   4.437  20.503  0.00  0.00    +0.000 C 
ATOM     12  N   UNL     1       1.670   3.537  21.267  0.00  0.00    +0.000 NA
ATOM     13  C   UNL     1       1.417   2.347  20.437  0.00  0.00    +0.000 C 
ATOM     14  C   UNL     1       0.838   2.730  19.069  0.00  0.00    +0.000 C 
ATOM     15  O   UNL     1       1.743   3.574  18.347  0.00  0.00    +0.000 OA
ATOM     16  H   UNL     1       0.787   4.023  21.431  0.00  0.00    +0.000 HD
ENDBRANCH   9  10
BRANCH   1  20
ATOM     17  C   UNL     1       0.536   9.832  20.479  0.00  0.00    +0.000 A 
ATOM     18  C   UNL     1       0.750  10.011  19.116  0.00  0.00    +0.000 A 
ATOM     19  C   UNL     1       1.477   9.068  18.375  0.00  0.00    +0.000 A 
ATOM     20  C   UNL     1       2.067   7.940  18.982  0.00  0.00    +0.000 A 
ATOM     21  C   UNL     1       1.851   7.802  20.363  0.00  0.00    +0.000 A 
ATOM     22  C   UNL     1       1.075   8.712  21.097  0.00  0.00    +0.000 A 
BRANCH  17  24
ATOM     23  C   UNL     1      -0.468  10.625  22.474  0.00  0.00    +0.000 C 
ATOM     24  O   UNL     1      -0.153  10.834  21.102  0.00  0.00    +0.000 OA
ENDBRANCH  17  24
ENDBRANCH   1  20
TORSDOF 3
ENDMDL
MODEL 4
REMARK VINA RESULT:      -7.5      0.302      1.041
REMARK  Name = 
REMARK  6 active torsions:
REMARK  status: ('A' for Active; 'I' for Inactive)
REMARK    1  A    between atoms: C_1  and  O_2
REMARK    2  A    between atoms: O_2  and  C_3
REMARK    3  A    between atoms: C_6  and  C_7
REMARK    4  A    between atoms: N_11  and  C_12
REMARK    5  A    between atoms: N_11  and  C_13
REMARK    6  A    between atoms: C_15  and  C_16
REMARK                            x       y       z     vdW  Elec       q    Type
REMARK                         _______ _______ _______ _____ _____    ______ ____
ROOT
ATOM      1  C   UNL     1       3.011   6.843  18.232  0.00  0.00    +0.000 A 
ATOM      2  C   UNL     1       2.827   8.207  18.048  0.00  0.00    +0.000 A 
ATOM      3  N   UNL     1       2.080   9.030  18.813  0.00  0.00    +0.000 NA
ATOM      4  C   UNL     1       1.432   8.488  19.845  0.00  0.00    +0.000 A 
ATOM      5  N   UNL     1       0.550   9.262  20.571  0.00  0.00    +0.000 N 
ATOM      6  C   UNL     1      -0.092   8.687  21.740  0.00  0.00    +0.000 C 
ATOM      7  C   UNL     1       0.747  10.701  20.574  0.00  0.00    +0.000 C 
ATOM      8  N   UNL     1       1.551   7.184  20.127  0.00  0.00    +0.000 NA
ATOM      9  C   UNL     1       2.338   6.368  19.361  0.00  0.00    +0.000 A 
ENDROOT
BRANCH   9  10
ATOM     10  C   UNL     1       2.422   4.931  19.856  0.00  0.00    +0.000 C 
ATOM     11  C   UNL     1       1.332   3.995  19.243  0.00  0.00    +0.000 C 
ATOM     12  N   UNL     1       1.366   2.616  19.793  0.00  0.00    +0.000 NA
ATOM     13  C   UNL     1       1.287   2.718  21.259  0.00  0.00    +0.000 C 
ATOM     14  C   UNL     1       2.409   3.600  21.822  0.00  0.00    +0.000 C 
ATOM     15  O   UNL     1       2.330   4.928  21.294  0.00  0.00    +0.000 OA
ATOM     16  H   UNL     1       2.255   2.184  19.535  0.00  0.00    +0.000 HD
ENDBRANCH   9  10
BRANCH   1  20
ATOM     17  C   UNL     1       5.550   4.541  15.572  0.00  0.00    +0.000 A 
ATOM     18  C   UNL     1       4.665   3.911  16.440  0.00  0.00    +0.000 A 
ATOM     19  C   UNL     1       3.801   4.661  17.251  0.00  0.00    +0.000 A 
ATOM     20  C   UNL     1       3.833   6.070  17.268  0.00  0.00    +0.000 A 
ATOM     21  C   UNL     1       4.753   6.675  16.396  0.00  0.00    +0.000 A 
ATOM     22  C   UNL     1       5.578   5.929  15.540  0.00  0.00    +0.000 A 
BRANCH  17  24
ATOM     23  C   UNL     1       6.214   3.735  13.444  0.00  0.00    +0.000 C 
ATOM     24  O   UNL     1       6.367   3.710  14.859  0.00  0.00    +0.000 OA
ENDBRANCH  17  24
ENDBRANCH   1  20
TORSDOF 3
ENDMDL
MODEL 5
REMARK VINA RESULT:      -7.1      3.926      6.565
REMARK  Name = 
REMARK  6 active torsions:
REMARK  status: ('A' for Active; 'I' for Inactive)
REMARK    1  A    between atoms: C_1  and  O_2
REMARK    2  A    between atoms: O_2  and  C_3
REMARK    3  A    between atoms: C_6  and  C_7
REMARK    4  A    between atoms: N_11  and  C_12
REMARK    5  A    between atoms: N_11  and  C_13
REMARK    6  A    between atoms: C_15  and  C_16
REMARK                            x       y       z     vdW  Elec       q    Type
REMARK                         _______ _______ _______ _____ _____    ______ ____
ROOT
ATOM      1  C   UNL     1       0.341  10.334  20.155  0.00  0.00    +0.000 A 
ATOM      2  C   UNL     1       0.661  10.802  21.423  0.00  0.00    +0.000 A 
ATOM      3  N   UNL     1       0.070  11.822  22.078  0.00  0.00    +0.000 NA
ATOM      4  C   UNL     1      -0.912  12.468  21.449  0.00  0.00    +0.000 A 
ATOM      5  N   UNL     1      -1.452  13.601  22.023  0.00  0.00    +0.000 N 
ATOM      6  C   UNL     1      -2.573  14.254  21.370  0.00  0.00    +0.000 C 
ATOM      7  C   UNL     1      -1.358  13.748  23.465  0.00  0.00    +0.000 C 
ATOM      8  N   UNL     1      -1.316  12.092  20.228  0.00  0.00    +0.000 NA
ATOM      9  C   UNL     1      -0.728  11.034  19.590  0.00  0.00    +0.000 A 
ENDROOT
BRANCH   9  10
ATOM     10  C   UNL     1      -1.349  10.691  18.243  0.00  0.00    +0.000 C 
ATOM     11  C   UNL     1      -1.697  11.945  17.378  0.00  0.00    +0.000 C 
ATOM     12  N   UNL     1      -2.379  11.608  16.104  0.00  0.00    +0.000 NA
ATOM     13  C   UNL     1      -3.553  10.780  16.429  0.00  0.00    +0.000 C 
ATOM     14  C   UNL     1      -3.155   9.532  17.229  0.00  0.00    +0.000 C 
ATOM     15  O   UNL     1      -2.528   9.893  18.464  0.00  0.00    +0.000 OA
ATOM     16  H   UNL     1      -1.737  11.063  15.525  0.00  0.00    +0.000 HD
ENDBRANCH   9  10
BRANCH   1  20
ATOM     17  C   UNL     1       2.801   7.162  18.510  0.00  0.00    +0.000 A 
ATOM     18  C   UNL     1       2.308   7.086  19.808  0.00  0.00    +0.000 A 
ATOM     19  C   UNL     1       1.461   8.083  20.313  0.00  0.00    +0.000 A 
ATOM     20  C   UNL     1       1.124   9.225  19.556  0.00  0.00    +0.000 A 
ATOM     21  C   UNL     1       1.657   9.282  18.258  0.00  0.00    +0.000 A 
ATOM     22  C   UNL     1       2.456   8.258  17.729  0.00  0.00    +0.000 A 
BRANCH  17  24
ATOM     23  C   UNL     1       4.083   5.285  19.180  0.00  0.00    +0.000 C 
ATOM     24  O   UNL     1       3.646   6.153  18.141  0.00  0.00    +0.000 OA
ENDBRANCH  17  24
ENDBRANCH   1  20
TORSDOF 3
ENDMDL
MODEL 6
REMARK VINA RESULT:      -7.0      3.865      6.556
REMARK  Name = 
REMARK  6 active torsions:
REMARK  status: ('A' for Active; 'I' for Inactive)
REMARK    1  A    between atoms: C_1  and  O_2
REMARK    2  A    between atoms: O_2  and  C_3
REMARK    3  A    between atoms: C_6  and  C_7
REMARK    4  A    between atoms: N_11  and  C_12
REMARK    5  A    between atoms: N_11  and  C_13
REMARK    6  A    between atoms: C_15  and  C_16
REMARK                            x       y       z     vdW  Elec       q    Type
REMARK                         _______ _______ _______ _____ _____    ______ ____
ROOT
ATOM      1  C   UNL     1       0.229  10.399  20.290  0.00  0.00    +0.000 A 
ATOM      2  C   UNL     1       0.470  10.864  21.577  0.00  0.00    +0.000 A 
ATOM      3  N   UNL     1      -0.207  11.836  22.222  0.00  0.00    +0.000 NA
ATOM      4  C   UNL     1      -1.200  12.434  21.563  0.00  0.00    +0.000 A 
ATOM      5  N   UNL     1      -1.828  13.523  22.130  0.00  0.00    +0.000 N 
ATOM      6  C   UNL     1      -2.959  14.120  21.442  0.00  0.00    +0.000 C 
ATOM      7  C   UNL     1      -1.801  13.651  23.577  0.00  0.00    +0.000 C 
ATOM      8  N   UNL     1      -1.531  12.055  20.321  0.00  0.00    +0.000 NA
ATOM      9  C   UNL     1      -0.857  11.044  19.692  0.00  0.00    +0.000 A 
ENDROOT
BRANCH   9  10
ATOM     10  C   UNL     1      -1.402  10.688  18.317  0.00  0.00    +0.000 C 
ATOM     11  C   UNL     1      -1.718  11.933  17.428  0.00  0.00    +0.000 C 
ATOM     12  N   UNL     1      -2.328  11.583  16.121  0.00  0.00    +0.000 NA
ATOM     13  C   UNL     1      -3.507  10.743  16.389  0.00  0.00    +0.000 C 
ATOM     14  C   UNL     1      -3.139   9.504  17.214  0.00  0.00    +0.000 C 
ATOM     15  O   UNL     1      -2.581   9.878  18.479  0.00  0.00    +0.000 OA
ATOM     16  H   UNL     1      -1.650  11.043  15.580  0.00  0.00    +0.000 HD
ENDBRANCH   9  10
BRANCH   1  20
ATOM     17  C   UNL     1       2.604   7.251  18.483  0.00  0.00    +0.000 A 
ATOM     18  C   UNL     1       2.282   8.402  17.772  0.00  0.00    +0.000 A 
ATOM     19  C   UNL     1       1.569   9.445  18.382  0.00  0.00    +0.000 A 
ATOM     20  C   UNL     1       1.100   9.348  19.709  0.00  0.00    +0.000 A 
ATOM     21  C   UNL     1       1.423   8.163  20.390  0.00  0.00    +0.000 A 
ATOM     22  C   UNL     1       2.187   7.143  19.803  0.00  0.00    +0.000 A 
BRANCH  17  24
ATOM     23  C   UNL     1       2.865   4.944  18.006  0.00  0.00    +0.000 C 
ATOM     24  O   UNL     1       3.268   6.289  17.775  0.00  0.00    +0.000 OA
ENDBRANCH  17  24
ENDBRANCH   1  20
TORSDOF 3
ENDMDL
MODEL 7
REMARK VINA RESULT:      -7.0      2.668      6.562
REMARK  Name = 
REMARK  6 active torsions:
REMARK  status: ('A' for Active; 'I' for Inactive)
REMARK    1  A    between atoms: C_1  and  O_2
REMARK    2  A    between atoms: O_2  and  C_3
REMARK    3  A    between atoms: C_6  and  C_7
REMARK    4  A    between atoms: N_11  and  C_12
REMARK    5  A    between atoms: N_11  and  C_13
REMARK    6  A    between atoms: C_15  and  C_16
REMARK                            x       y       z     vdW  Elec       q    Type
REMARK                         _______ _______ _______ _____ _____    ______ ____
ROOT
ATOM      1  C   UNL     1       2.499   6.492  19.642  0.00  0.00    +0.000 A 
ATOM      2  C   UNL     1       1.724   5.728  20.505  0.00  0.00    +0.000 A 
ATOM      3  N   UNL     1       1.933   4.441  20.851  0.00  0.00    +0.000 NA
ATOM      4  C   UNL     1       2.977   3.820  20.301  0.00  0.00    +0.000 A 
ATOM      5  N   UNL     1       3.150   2.468  20.517  0.00  0.00    +0.000 N 
ATOM      6  C   UNL     1       4.332   1.816  19.980  0.00  0.00    +0.000 C 
ATOM      7  C   UNL     1       2.571   1.889  21.716  0.00  0.00    +0.000 C 
ATOM      8  N   UNL     1       3.804   4.465  19.467  0.00  0.00    +0.000 NA
ATOM      9  C   UNL     1       3.597   5.780  19.151  0.00  0.00    +0.000 A 
ENDROOT
BRANCH   9  10
ATOM     10  C   UNL     1       4.664   6.384  18.249  0.00  0.00    +0.000 C 
ATOM     11  C   UNL     1       4.516   5.977  16.748  0.00  0.00    +0.000 C 
ATOM     12  N   UNL     1       5.607   6.499  15.887  0.00  0.00    +0.000 NA
ATOM     13  C   UNL     1       6.886   6.077  16.482  0.00  0.00    +0.000 C 
ATOM     14  C   UNL     1       7.011   6.548  17.937  0.00  0.00    +0.000 C 
ATOM     15  O   UNL     1       5.962   6.003  18.744  0.00  0.00    +0.000 OA
ATOM     16  H   UNL     1       5.560   7.520  15.886  0.00  0.00    +0.000 HD
ENDBRANCH   9  10
BRANCH   1  20
ATOM     17  C   UNL     1       1.142  10.505  18.710  0.00  0.00    +0.000 A 
ATOM     18  C   UNL     1       0.946   9.959  19.974  0.00  0.00    +0.000 A 
ATOM     19  C   UNL     1       1.443   8.686  20.289  0.00  0.00    +0.000 A 
ATOM     20  C   UNL     1       2.103   7.888  19.331  0.00  0.00    +0.000 A 
ATOM     21  C   UNL     1       2.264   8.460  18.059  0.00  0.00    +0.000 A 
ATOM     22  C   UNL     1       1.820   9.757  17.757  0.00  0.00    +0.000 A 
BRANCH  17  24
ATOM     23  C   UNL     1      -0.830  11.820  18.673  0.00  0.00    +0.000 C 
ATOM     24  O   UNL     1       0.581  11.735  18.507  0.00  0.00    +0.000 OA
ENDBRANCH  17  24
ENDBRANCH   1  20
TORSDOF 3
ENDMDL
MODEL 8
REMARK VINA RESULT:      -6.8      1.417      1.536
REMARK  Name = 
REMARK  6 active torsions:
REMARK  status: ('A' for Active; 'I' for Inactive)
REMARK    1  A    between atoms: C_1  and  O_2
REMARK    2  A    between atoms: O_2  and  C_3
REMARK    3  A    between atoms: C_6  and  C_7
REMARK    4  A    between atoms: N_11  and  C_12
REMARK    5  A    between atoms: N_11  and  C_13
REMARK    6  A    between atoms: C_15  and  C_16
REMARK                            x       y       z     vdW  Elec       q    Type
REMARK                         _______ _______ _______ _____ _____    ______ ____
ROOT
ATOM      1  C   UNL     1       3.626   6.484  17.820  0.00  0.00    +0.000 A 
ATOM      2  C   UNL     1       3.241   7.776  17.485  0.00  0.00    +0.000 A 
ATOM      3  N   UNL     1       2.450   8.595  18.209  0.00  0.00    +0.000 NA
ATOM      4  C   UNL     1       1.966   8.122  19.358  0.00  0.00    +0.000 A 
ATOM      5  N   UNL     1       1.045   8.870  20.062  0.00  0.00    +0.000 N 
ATOM      6  C   UNL     1       0.582   8.384  21.350  0.00  0.00    +0.000 C 
ATOM      7  C   UNL     1       1.040  10.309  19.865  0.00  0.00    +0.000 C 
ATOM      8  N   UNL     1       2.285   6.894  19.789  0.00  0.00    +0.000 NA
ATOM      9  C   UNL     1       3.116   6.088  19.060  0.00  0.00    +0.000 A 
ENDROOT
BRANCH   9  10
ATOM     10  C   UNL     1       3.436   4.755  19.721  0.00  0.00    +0.000 C 
ATOM     11  C   UNL     1       4.864   4.217  19.384  0.00  0.00    +0.000 C 
ATOM     12  N   UNL     1       5.138   2.878  19.963  0.00  0.00    +0.000 NA
ATOM     13  C   UNL     1       4.059   1.974  19.531  0.00  0.00    +0.000 C 
ATOM     14  C   UNL     1       2.680   2.514  19.933  0.00  0.00    +0.000 C 
ATOM     15  O   UNL     1       2.436   3.792  19.335  0.00  0.00    +0.000 OA
ATOM     16  H   UNL     1       5.122   2.954  20.981  0.00  0.00    +0.000 HD
ENDBRANCH   9  10
BRANCH   1  20
ATOM     17  C   UNL     1       6.003   4.292  14.928  0.00  0.00    +0.000 A 
ATOM     18  C   UNL     1       6.353   5.582  15.312  0.00  0.00    +0.000 A 
ATOM     19  C   UNL     1       5.618   6.262  16.295  0.00  0.00    +0.000 A 
ATOM     20  C   UNL     1       4.469   5.698  16.887  0.00  0.00    +0.000 A 
ATOM     21  C   UNL     1       4.130   4.403  16.460  0.00  0.00    +0.000 A 
ATOM     22  C   UNL     1       4.897   3.697  15.521  0.00  0.00    +0.000 A 
BRANCH  17  24
ATOM     23  C   UNL     1       6.152   3.618  12.661  0.00  0.00    +0.000 C 
ATOM     24  O   UNL     1       6.768   3.745  13.937  0.00  0.00    +0.000 OA
ENDBRANCH  17  24
ENDBRANCH   1  20
TORSDOF 3
ENDMDL
MODEL 9
REMARK VINA RESULT:      -6.7      3.740      7.267
REMARK  Name = 
REMARK  6 active torsions:
REMARK  status: ('A' for Active; 'I' for Inactive)
REMARK    1  A    between atoms: C_1  and  O_2
REMARK    2  A    between atoms: O_2  and  C_3
REMARK    3  A    between atoms: C_6  and  C_7
REMARK    4  A    between atoms: N_11  and  C_12
REMARK    5  A    between atoms: N_11  and  C_13
REMARK    6  A    between atoms: C_15  and  C_16
REMARK                            x       y       z     vdW  Elec       q    Type
REMARK                         _______ _______ _______ _____ _____    ______ ____
ROOT
ATOM      1  C   UNL     1       4.925   4.271  16.128  0.00  0.00    +0.000 A 
ATOM      2  C   UNL     1       4.796   3.599  14.919  0.00  0.00    +0.000 A 
ATOM      3  N   UNL     1       5.582   3.740  13.832  0.00  0.00    +0.000 NA
ATOM      4  C   UNL     1       6.578   4.623  13.905  0.00  0.00    +0.000 A 
ATOM      5  N   UNL     1       7.321   4.900  12.776  0.00  0.00    +0.000 N 
ATOM      6  C   UNL     1       8.453   5.804  12.882  0.00  0.00    +0.000 C 
ATOM      7  C   UNL     1       7.388   3.887  11.738  0.00  0.00    +0.000 C 
ATOM      8  N   UNL     1       6.807   5.315  15.030  0.00  0.00    +0.000 NA
ATOM      9  C   UNL     1       6.021   5.138  16.135  0.00  0.00    +0.000 A 
ENDROOT
BRANCH   9  10
ATOM     10  C   UNL     1       6.456   5.945  17.350  0.00  0.00    +0.000 C 
ATOM     11  C   UNL     1       7.439   7.110  17.007  0.00  0.00    +0.000 C 
ATOM     12  N   UNL     1       7.925   7.839  18.205  0.00  0.00    +0.000 NA
ATOM     13  C   UNL     1       8.497   6.848  19.131  0.00  0.00    +0.000 C 
ATOM     14  C   UNL     1       7.479   5.756  19.484  0.00  0.00    +0.000 C 
ATOM     15  O   UNL     1       7.053   5.054  18.311  0.00  0.00    +0.000 OA
ATOM     16  H   UNL     1       7.129   8.294  18.654  0.00  0.00    +0.000 HD
ENDBRANCH   9  10
BRANCH   1  20
ATOM     17  C   UNL     1       1.926   3.481  19.162  0.00  0.00    +0.000 A 
ATOM     18  C   UNL     1       2.777   2.474  18.717  0.00  0.00    +0.000 A 
ATOM     19  C   UNL     1       3.786   2.750  17.783  0.00  0.00    +0.000 A 
ATOM     20  C   UNL     1       3.943   4.032  17.215  0.00  0.00    +0.000 A 
ATOM     21  C   UNL     1       3.054   5.019  17.669  0.00  0.00    +0.000 A 
ATOM     22  C   UNL     1       2.081   4.761  18.647  0.00  0.00    +0.000 A 
BRANCH  17  24
ATOM     23  C   UNL     1       1.396   2.767  21.359  0.00  0.00    +0.000 C 
ATOM     24  O   UNL     1       0.959   3.087  20.043  0.00  0.00    +0.000 OA
ENDBRANCH  17  24
ENDBRANCH   1  20
TORSDOF 3
ENDMDL
