MODEL 1
REMARK VINA RESULT:      -7.4      0.000      0.000
REMARK  Name = 
REMARK  10 active torsions:
REMARK  status: ('A' for Active; 'I' for Inactive)
REMARK    1  A    between atoms: C_1  and  C_2
REMARK    2  A    between atoms: C_6  and  N_7
REMARK    3  A    between atoms: N_7  and  C_8
REMARK    4  A    between atoms: C_9  and  O_11
REMARK    5  A    between atoms: O_11  and  C_12
REMARK    6  A    between atoms: C_12  and  C_13
REMARK    7  A    between atoms: C_13  and  C_14
REMARK    8  A    between atoms: C_14  and  C_15
REMARK    9  A    between atoms: C_15  and  C_16
REMARK   10  A    between atoms: C_16  and  C_17
REMARK                            x       y       z     vdW  Elec       q    Type
REMARK                         _______ _______ _______ _____ _____    ______ ____
ROOT
ATOM      1  O   UNL     1       6.322   4.290  17.897  0.00  0.00    +0.000 OA
ENDROOT
BRANCH   1   4
ATOM      2  N   UNL     1       4.098   3.862  18.213  0.00  0.00    +0.000 N 
ATOM      3  C   UNL     1       4.474   3.058  19.368  0.00  0.00    +0.000 C 
ATOM      4  C   UNL     1       5.055   4.505  17.452  0.00  0.00    +0.000 C 
ATOM      5  O   UNL     1       4.766   5.212  16.491  0.00  0.00    +0.000 OA
BRANCH   2  11
ATOM      6  C   UNL     1       2.631   6.186  19.469  0.00  0.00    +0.000 C 
ATOM      7  C   UNL     1       1.905   5.202  18.576  0.00  0.00    +0.000 C 
ATOM      8  O   UNL     1       1.162   4.213  19.352  0.00  0.00    +0.000 OA
ATOM      9  C   UNL     1       1.578   3.194  18.550  0.00  0.00    +0.000 C 
ATOM     10  O   UNL     1       1.209   2.043  18.545  0.00  0.00    +0.000 OA
ATOM     11  C   UNL     1       2.658   4.063  17.846  0.00  0.00    +0.000 C 
ENDBRANCH   2  11
ENDBRANCH   1   4
BRANCH   1  12
ATOM     12  C   UNL     1       7.307   5.200  17.381  0.00  0.00    +0.000 C 
BRANCH  12  13
ATOM     13  C   UNL     1       7.547   6.326  18.379  0.00  0.00    +0.000 C 
BRANCH  13  14
ATOM     14  C   UNL     1       7.760   7.668  17.686  0.00  0.00    +0.000 C 
BRANCH  14  15
ATOM     15  C   UNL     1       8.553   8.619  18.589  0.00  0.00    +0.000 C 
BRANCH  15  16
ATOM     16  C   UNL     1       8.468  10.071  18.114  0.00  0.00    +0.000 C 
BRANCH  16  17
ATOM     17  C   UNL     1       9.616  10.882  18.666  0.00  0.00    +0.000 A 
ATOM     18  C   UNL     1      10.651  11.312  17.825  0.00  0.00    +0.000 A 
ATOM     19  C   UNL     1      11.754  11.990  18.350  0.00  0.00    +0.000 A 
ATOM     20  C   UNL     1      11.834  12.241  19.718  0.00  0.00    +0.000 A 
ATOM     21  C   UNL     1      10.801  11.834  20.560  0.00  0.00    +0.000 A 
ATOM     22  C   UNL     1       9.696  11.161  20.037  0.00  0.00    +0.000 A 
ENDBRANCH  16  17
ENDBRANCH  15  16
ENDBRANCH  14  15
ENDBRANCH  13  14
ENDBRANCH  12  13
ENDBRANCH   1  12
TORSDOF 8
ENDMDL
MODEL 2
REMARK VINA RESULT:      -6.9      3.904      7.200
REMARK  Name = 
REMARK  10 active torsions:
REMARK  status: ('A' for Active; 'I' for Inactive)
REMARK    1  A    between atoms: C_1  and  C_2
REMARK    2  A    between atoms: C_6  and  N_7
REMARK    3  A    between atoms: N_7  and  C_8
REMARK    4  A    between atoms: C_9  and  O_11
REMARK    5  A    between atoms: O_11  and  C_12
REMARK    6  A    between atoms: C_12  and  C_13
REMARK    7  A    between atoms: C_13  and  C_14
REMARK    8  A    between atoms: C_14  and  C_15
REMARK    9  A    between atoms: C_15  and  C_16
REMARK   10  A    between atoms: C_16  and  C_17
REMARK                            x       y       z     vdW  Elec       q    Type
REMARK                         _______ _______ _______ _____ _____    ______ ____
ROOT
ATOM      1  O   UNL     1       4.664   3.683  19.643  0.00  0.00    +0.000 OA
ENDROOT
BRANCH   1   4
ATOM      2  N   UNL     1       5.637   5.286  18.333  0.00  0.00    +0.000 N 
ATOM      3  C   UNL     1       6.695   5.378  19.330  0.00  0.00    +0.000 C 
ATOM      4  C   UNL     1       4.586   4.404  18.492  0.00  0.00    +0.000 C 
ATOM      5  O   UNL     1       3.696   4.283  17.655  0.00  0.00    +0.000 OA
BRANCH   2  11
ATOM      6  C   UNL     1       6.639   3.948  15.815  0.00  0.00    +0.000 C 
ATOM      7  C   UNL     1       6.290   5.423  15.824  0.00  0.00    +0.000 C 
ATOM      8  O   UNL     1       7.480   6.259  15.947  0.00  0.00    +0.000 OA
ATOM      9  C   UNL     1       6.879   7.072  16.859  0.00  0.00    +0.000 C 
ATOM     10  O   UNL     1       7.281   8.117  17.314  0.00  0.00    +0.000 OA
ATOM     11  C   UNL     1       5.684   6.103  17.077  0.00  0.00    +0.000 C 
ENDBRANCH   2  11
ENDBRANCH   1   4
BRANCH   1  12
ATOM     12  C   UNL     1       3.676   2.649  19.778  0.00  0.00    +0.000 C 
BRANCH  12  13
ATOM     13  C   UNL     1       2.795   2.927  20.990  0.00  0.00    +0.000 C 
BRANCH  13  14
ATOM     14  C   UNL     1       1.320   3.035  20.612  0.00  0.00    +0.000 C 
BRANCH  14  15
ATOM     15  C   UNL     1       0.957   4.485  20.278  0.00  0.00    +0.000 C 
BRANCH  15  16
ATOM     16  C   UNL     1       2.030   5.471  20.747  0.00  0.00    +0.000 C 
BRANCH  16  17
ATOM     17  C   UNL     1       1.788   6.842  20.162  0.00  0.00    +0.000 A 
ATOM     18  C   UNL     1       2.267   7.165  18.886  0.00  0.00    +0.000 A 
ATOM     19  C   UNL     1       2.117   8.459  18.379  0.00  0.00    +0.000 A 
ATOM     20  C   UNL     1       1.491   9.440  19.145  0.00  0.00    +0.000 A 
ATOM     21  C   UNL     1       0.995   9.124  20.408  0.00  0.00    +0.000 A 
ATOM     22  C   UNL     1       1.139   7.832  20.914  0.00  0.00    +0.000 A 
ENDBRANCH  16  17
ENDBRANCH  15  16
ENDBRANCH  14  15
ENDBRANCH  13  14
ENDBRANCH  12  13
ENDBRANCH   1  12
TORSDOF 8
ENDMDL
MODEL 3
REMARK VINA RESULT:      -6.8      4.251      8.149
REMARK  Name = 
REMARK  10 active torsions:
REMARK  status: ('A' for Active; 'I' for Inactive)
REMARK    1  A    between atoms: C_1  and  C_2
REMARK    2  A    between atoms: C_6  and  N_7
REMARK    3  A    between atoms: N_7  and  C_8
REMARK    4  A    between atoms: C_9  and  O_11
REMARK    5  A    between atoms: O_11  and  C_12
REMARK    6  A    between atoms: C_12  and  C_13
REMARK    7  A    between atoms: C_13  and  C_14
REMARK    8  A    between atoms: C_14  and  C_15
REMARK    9  A    between atoms: C_15  and  C_16
REMARK   10  A    between atoms: C_16  and  C_17
REMARK                            x       y       z     vdW  Elec       q    Type
REMARK                         _______ _______ _______ _____ _____    ______ ____
ROOT
ATOM      1  O   UNL     1       3.077   6.425  17.896  0.00  0.00    +0.000 OA
ENDROOT
BRANCH   1   4
ATOM      2  N   UNL     1       5.301   5.933  18.104  0.00  0.00    +0.000 N 
ATOM      3  C   UNL     1       4.959   5.139  19.276  0.00  0.00    +0.000 C 
ATOM      4  C   UNL     1       4.326   6.596  17.385  0.00  0.00    +0.000 C 
ATOM      5  O   UNL     1       4.581   7.249  16.377  0.00  0.00    +0.000 OA
BRANCH   2  11
ATOM      6  C   UNL     1       6.110   4.088  15.851  0.00  0.00    +0.000 C 
ATOM      7  C   UNL     1       7.128   4.990  16.519  0.00  0.00    +0.000 C 
ATOM      8  O   UNL     1       7.928   4.267  17.503  0.00  0.00    +0.000 OA
ATOM      9  C   UNL     1       7.829   5.281  18.407  0.00  0.00    +0.000 C 
ATOM     10  O   UNL     1       8.406   5.407  19.462  0.00  0.00    +0.000 OA
ATOM     11  C   UNL     1       6.714   6.011  17.608  0.00  0.00    +0.000 C 
ENDBRANCH   2  11
ENDBRANCH   1   4
BRANCH   1  12
ATOM     12  C   UNL     1       2.500   7.598  18.492  0.00  0.00    +0.000 C 
BRANCH  12  13
ATOM     13  C   UNL     1       2.219   7.346  19.968  0.00  0.00    +0.000 C 
BRANCH  13  14
ATOM     14  C   UNL     1       1.139   6.287  20.172  0.00  0.00    +0.000 C 
BRANCH  14  15
ATOM     15  C   UNL     1       1.671   5.137  21.032  0.00  0.00    +0.000 C 
BRANCH  15  16
ATOM     16  C   UNL     1       1.049   3.793  20.646  0.00  0.00    +0.000 C 
BRANCH  16  17
ATOM     17  C   UNL     1       1.884   3.099  19.596  0.00  0.00    +0.000 A 
ATOM     18  C   UNL     1       2.950   2.270  19.969  0.00  0.00    +0.000 A 
ATOM     19  C   UNL     1       3.774   1.695  18.999  0.00  0.00    +0.000 A 
ATOM     20  C   UNL     1       3.543   1.947  17.648  0.00  0.00    +0.000 A 
ATOM     21  C   UNL     1       2.474   2.755  17.266  0.00  0.00    +0.000 A 
ATOM     22  C   UNL     1       1.647   3.326  18.233  0.00  0.00    +0.000 A 
ENDBRANCH  16  17
ENDBRANCH  15  16
ENDBRANCH  14  15
ENDBRANCH  13  14
ENDBRANCH  12  13
ENDBRANCH   1  12
TORSDOF 8
ENDMDL
MODEL 4
REMARK VINA RESULT:      -6.7      1.485      2.450
REMARK  Name = 
REMARK  10 active torsions:
REMARK  status: ('A' for Active; 'I' for Inactive)
REMARK    1  A    between atoms: C_1  and  C_2
REMARK    2  A    between atoms: C_6  and  N_7
REMARK    3  A    between atoms: N_7  and  C_8
REMARK    4  A    between atoms: C_9  and  O_11
REMARK    5  A    between atoms: O_11  and  C_12
REMARK    6  A    between atoms: C_12  and  C_13
REMARK    7  A    between atoms: C_13  and  C_14
REMARK    8  A    between atoms: C_14  and  C_15
REMARK    9  A    between atoms: C_15  and  C_16
REMARK   10  A    between atoms: C_16  and  C_17
REMARK                            x       y       z     vdW  Elec       q    Type
REMARK                         _______ _______ _______ _____ _____    ______ ____
ROOT
ATOM      1  O   UNL     1       6.044   5.440  17.454  0.00  0.00    +0.000 OA
ENDROOT
BRANCH   1   4
ATOM      2  N   UNL     1       4.283   4.472  18.547  0.00  0.00    +0.000 N 
ATOM      3  C   UNL     1       3.558   4.499  17.284  0.00  0.00    +0.000 C 
ATOM      4  C   UNL     1       5.574   4.956  18.635  0.00  0.00    +0.000 C 
ATOM      5  O   UNL     1       6.220   4.920  19.678  0.00  0.00    +0.000 OA
BRANCH   2  11
ATOM      6  C   UNL     1       3.553   1.541  18.467  0.00  0.00    +0.000 C 
ATOM      7  C   UNL     1       3.222   2.391  19.677  0.00  0.00    +0.000 C 
ATOM      8  O   UNL     1       1.826   2.819  19.672  0.00  0.00    +0.000 OA
ATOM      9  C   UNL     1       2.159   4.086  20.044  0.00  0.00    +0.000 C 
ATOM     10  O   UNL     1       1.426   4.990  20.370  0.00  0.00    +0.000 OA
ATOM     11  C   UNL     1       3.674   3.869  19.776  0.00  0.00    +0.000 C 
ENDBRANCH   2  11
ENDBRANCH   1   4
BRANCH   1  12
ATOM     12  C   UNL     1       6.135   6.872  17.380  0.00  0.00    +0.000 C 
BRANCH  12  13
ATOM     13  C   UNL     1       7.578   7.290  17.126  0.00  0.00    +0.000 C 
BRANCH  13  14
ATOM     14  C   UNL     1       8.212   7.933  18.355  0.00  0.00    +0.000 C 
BRANCH  14  15
ATOM     15  C   UNL     1       8.410   9.435  18.133  0.00  0.00    +0.000 C 
BRANCH  15  16
ATOM     16  C   UNL     1       9.250  10.077  19.240  0.00  0.00    +0.000 C 
BRANCH  16  17
ATOM     17  C   UNL     1       9.738  11.442  18.818  0.00  0.00    +0.000 A 
ATOM     18  C   UNL     1       9.327  12.589  19.511  0.00  0.00    +0.000 A 
ATOM     19  C   UNL     1       9.710  13.858  19.071  0.00  0.00    +0.000 A 
ATOM     20  C   UNL     1      10.503  13.992  17.933  0.00  0.00    +0.000 A 
ATOM     21  C   UNL     1      10.933  12.858  17.248  0.00  0.00    +0.000 A 
ATOM     22  C   UNL     1      10.555  11.589  17.689  0.00  0.00    +0.000 A 
ENDBRANCH  16  17
ENDBRANCH  15  16
ENDBRANCH  14  15
ENDBRANCH  13  14
ENDBRANCH  12  13
ENDBRANCH   1  12
TORSDOF 8
ENDMDL
MODEL 5
REMARK VINA RESULT:      -6.7      1.266      2.090
REMARK  Name = 
REMARK  10 active torsions:
REMARK  status: ('A' for Active; 'I' for Inactive)
REMARK    1  A    between atoms: C_1  and  C_2
REMARK    2  A    between atoms: C_6  and  N_7
REMARK    3  A    between atoms: N_7  and  C_8
REMARK    4  A    between atoms: C_9  and  O_11
REMARK    5  A    between atoms: O_11  and  C_12
REMARK    6  A    between atoms: C_12  and  C_13
REMARK    7  A    between atoms: C_13  and  C_14
REMARK    8  A    between atoms: C_14  and  C_15
REMARK    9  A    between atoms: C_15  and  C_16
REMARK   10  A    between atoms: C_16  and  C_17
REMARK                            x       y       z     vdW  Elec       q    Type
REMARK                         _______ _______ _______ _____ _____    ______ ____
ROOT
ATOM      1  O   UNL     1       4.772   5.806  16.955  0.00  0.00    +0.000 OA
ENDROOT
BRANCH   1   4
ATOM      2  N   UNL     1       3.736   4.649  18.634  0.00  0.00    +0.000 N 
ATOM      3  C   UNL     1       2.551   5.458  18.383  0.00  0.00    +0.000 C 
ATOM      4  C   UNL     1       4.886   4.825  17.890  0.00  0.00    +0.000 C 
ATOM      5  O   UNL     1       5.890   4.139  18.059  0.00  0.00    +0.000 OA
BRANCH   2  11
ATOM      6  C   UNL     1       2.715   1.926  17.810  0.00  0.00    +0.000 C 
ATOM      7  C   UNL     1       3.110   2.205  19.246  0.00  0.00    +0.000 C 
ATOM      8  O   UNL     1       1.947   2.474  20.085  0.00  0.00    +0.000 OA
ATOM      9  C   UNL     1       2.565   3.521  20.699  0.00  0.00    +0.000 C 
ATOM     10  O   UNL     1       2.193   4.157  21.657  0.00  0.00    +0.000 OA
ATOM     11  C   UNL     1       3.727   3.563  19.666  0.00  0.00    +0.000 C 
ENDBRANCH   2  11
ENDBRANCH   1   4
BRANCH   1  12
ATOM     12  C   UNL     1       6.018   6.279  16.418  0.00  0.00    +0.000 C 
BRANCH  12  13
ATOM     13  C   UNL     1       6.524   7.458  17.240  0.00  0.00    +0.000 C 
BRANCH  13  14
ATOM     14  C   UNL     1       7.916   7.203  17.809  0.00  0.00    +0.000 C 
BRANCH  14  15
ATOM     15  C   UNL     1       8.383   8.402  18.641  0.00  0.00    +0.000 C 
BRANCH  15  16
ATOM     16  C   UNL     1       8.442   9.689  17.815  0.00  0.00    +0.000 C 
BRANCH  16  17
ATOM     17  C   UNL     1       9.249  10.747  18.530  0.00  0.00    +0.000 A 
ATOM     18  C   UNL     1       9.829  11.802  17.814  0.00  0.00    +0.000 A 
ATOM     19  C   UNL     1      10.645  12.733  18.461  0.00  0.00    +0.000 A 
ATOM     20  C   UNL     1      10.890  12.616  19.828  0.00  0.00    +0.000 A 
ATOM     21  C   UNL     1      10.302  11.581  20.552  0.00  0.00    +0.000 A 
ATOM     22  C   UNL     1       9.483  10.653  19.908  0.00  0.00    +0.000 A 
ENDBRANCH  16  17
ENDBRANCH  15  16
ENDBRANCH  14  15
ENDBRANCH  13  14
ENDBRANCH  12  13
ENDBRANCH   1  12
TORSDOF 8
ENDMDL
MODEL 6
REMARK VINA RESULT:      -6.7      0.782      1.288
REMARK  Name = 
REMARK  10 active torsions:
REMARK  status: ('A' for Active; 'I' for Inactive)
REMARK    1  A    between atoms: C_1  and  C_2
REMARK    2  A    between atoms: C_6  and  N_7
REMARK    3  A    between atoms: N_7  and  C_8
REMARK    4  A    between atoms: C_9  and  O_11
REMARK    5  A    between atoms: O_11  and  C_12
REMARK    6  A    between atoms: C_12  and  C_13
REMARK    7  A    between atoms: C_13  and  C_14
REMARK    8  A    between atoms: C_14  and  C_15
REMARK    9  A    between atoms: C_15  and  C_16
REMARK   10  A    between atoms: C_16  and  C_17
REMARK                            x       y       z     vdW  Elec       q    Type
REMARK                         _______ _______ _______ _____ _____    ______ ____
ROOT
ATOM      1  O   UNL     1       6.646   4.893  17.750  0.00  0.00    +0.000 OA
ENDROOT
BRANCH   1   4
ATOM      2  N   UNL     1       4.461   4.249  17.955  0.00  0.00    +0.000 N 
ATOM      3  C   UNL     1       4.846   3.523  19.157  0.00  0.00    +0.000 C 
ATOM      4  C   UNL     1       5.393   4.963  17.227  0.00  0.00    +0.000 C 
ATOM      5  O   UNL     1       5.092   5.608  16.226  0.00  0.00    +0.000 OA
BRANCH   2  11
ATOM      6  C   UNL     1       2.691   6.437  19.057  0.00  0.00    +0.000 C 
ATOM      7  C   UNL     1       2.125   5.362  18.152  0.00  0.00    +0.000 C 
ATOM      8  O   UNL     1       1.442   4.319  18.912  0.00  0.00    +0.000 OA
ATOM      9  C   UNL     1       2.008   3.331  18.165  0.00  0.00    +0.000 C 
ATOM     10  O   UNL     1       1.760   2.148  18.172  0.00  0.00    +0.000 OA
ATOM     11  C   UNL     1       3.033   4.291  17.500  0.00  0.00    +0.000 C 
ENDBRANCH   2  11
ENDBRANCH   1   4
BRANCH   1  12
ATOM     12  C   UNL     1       6.928   5.852  18.781  0.00  0.00    +0.000 C 
BRANCH  12  13
ATOM     13  C   UNL     1       7.948   6.868  18.281  0.00  0.00    +0.000 C 
BRANCH  13  14
ATOM     14  C   UNL     1       7.282   8.066  17.611  0.00  0.00    +0.000 C 
BRANCH  14  15
ATOM     15  C   UNL     1       8.183   9.301  17.702  0.00  0.00    +0.000 C 
BRANCH  15  16
ATOM     16  C   UNL     1       8.918   9.382  19.042  0.00  0.00    +0.000 C 
BRANCH  16  17
ATOM     17  C   UNL     1       9.692  10.674  19.151  0.00  0.00    +0.000 A 
ATOM     18  C   UNL     1       9.958  11.239  20.405  0.00  0.00    +0.000 A 
ATOM     19  C   UNL     1      10.600  12.476  20.502  0.00  0.00    +0.000 A 
ATOM     20  C   UNL     1      10.977  13.160  19.348  0.00  0.00    +0.000 A 
ATOM     21  C   UNL     1      10.734  12.598  18.097  0.00  0.00    +0.000 A 
ATOM     22  C   UNL     1      10.097  11.360  17.998  0.00  0.00    +0.000 A 
ENDBRANCH  16  17
ENDBRANCH  15  16
ENDBRANCH  14  15
ENDBRANCH  13  14
ENDBRANCH  12  13
ENDBRANCH   1  12
TORSDOF 8
ENDMDL
MODEL 7
REMARK VINA RESULT:      -6.6      1.299      2.272
REMARK  Name = 
REMARK  10 active torsions:
REMARK  status: ('A' for Active; 'I' for Inactive)
REMARK    1  A    between atoms: C_1  and  C_2
REMARK    2  A    between atoms: C_6  and  N_7
REMARK    3  A    between atoms: N_7  and  C_8
REMARK    4  A    between atoms: C_9  and  O_11
REMARK    5  A    between atoms: O_11  and  C_12
REMARK    6  A    between atoms: C_12  and  C_13
REMARK    7  A    between atoms: C_13  and  C_14
REMARK    8  A    between atoms: C_14  and  C_15
REMARK    9  A    between atoms: C_15  and  C_16
REMARK   10  A    between atoms: C_16  and  C_17
REMARK                            x       y       z     vdW  Elec       q    Type
REMARK                         _______ _______ _______ _____ _____    ______ ____
ROOT
ATOM      1  O   UNL     1       5.904   6.060  17.907  0.00  0.00    +0.000 OA
ENDROOT
BRANCH   1   4
ATOM      2  N   UNL     1       4.222   4.915  18.951  0.00  0.00    +0.000 N 
ATOM      3  C   UNL     1       3.335   6.018  18.607  0.00  0.00    +0.000 C 
ATOM      4  C   UNL     1       5.553   4.933  18.584  0.00  0.00    +0.000 C 
ATOM      5  O   UNL     1       6.318   4.006  18.834  0.00  0.00    +0.000 OA
BRANCH   2  11
ATOM      6  C   UNL     1       2.637   2.903  17.346  0.00  0.00    +0.000 C 
ATOM      7  C   UNL     1       2.818   2.734  18.841  0.00  0.00    +0.000 C 
ATOM      8  O   UNL     1       1.644   3.185  19.583  0.00  0.00    +0.000 OA
ATOM      9  C   UNL     1       2.410   3.823  20.510  0.00  0.00    +0.000 C 
ATOM     10  O   UNL     1       2.063   4.332  21.550  0.00  0.00    +0.000 OA
ATOM     11  C   UNL     1       3.707   3.700  19.663  0.00  0.00    +0.000 C 
ENDBRANCH   2  11
ENDBRANCH   1   4
BRANCH   1  12
ATOM     12  C   UNL     1       7.301   6.164  17.586  0.00  0.00    +0.000 C 
BRANCH  12  13
ATOM     13  C   UNL     1       7.901   7.388  18.267  0.00  0.00    +0.000 C 
BRANCH  13  14
ATOM     14  C   UNL     1       7.904   8.608  17.351  0.00  0.00    +0.000 C 
BRANCH  14  15
ATOM     15  C   UNL     1       8.210   9.878  18.150  0.00  0.00    +0.000 C 
BRANCH  15  16
ATOM     16  C   UNL     1       9.271   9.640  19.227  0.00  0.00    +0.000 C 
BRANCH  16  17
ATOM     17  C   UNL     1       9.913  10.942  19.644  0.00  0.00    +0.000 A 
ATOM     18  C   UNL     1       9.471  11.617  20.790  0.00  0.00    +0.000 A 
ATOM     19  C   UNL     1      10.006  12.862  21.129  0.00  0.00    +0.000 A 
ATOM     20  C   UNL     1      10.984  13.444  20.324  0.00  0.00    +0.000 A 
ATOM     21  C   UNL     1      11.443  12.772  19.193  0.00  0.00    +0.000 A 
ATOM     22  C   UNL     1      10.914  11.526  18.856  0.00  0.00    +0.000 A 
ENDBRANCH  16  17
ENDBRANCH  15  16
ENDBRANCH  14  15
ENDBRANCH  13  14
ENDBRANCH  12  13
ENDBRANCH   1  12
TORSDOF 8
ENDMDL
MODEL 8
REMARK VINA RESULT:      -6.6      4.248      6.058
REMARK  Name = 
REMARK  10 active torsions:
REMARK  status: ('A' for Active; 'I' for Inactive)
REMARK    1  A    between atoms: C_1  and  C_2
REMARK    2  A    between atoms: C_6  and  N_7
REMARK    3  A    between atoms: N_7  and  C_8
REMARK    4  A    between atoms: C_9  and  O_11
REMARK    5  A    between atoms: O_11  and  C_12
REMARK    6  A    between atoms: C_12  and  C_13
REMARK    7  A    between atoms: C_13  and  C_14
REMARK    8  A    between atoms: C_14  and  C_15
REMARK    9  A    between atoms: C_15  and  C_16
REMARK   10  A    between atoms: C_16  and  C_17
REMARK                            x       y       z     vdW  Elec       q    Type
REMARK                         _______ _______ _______ _____ _____    ______ ____
ROOT
ATOM      1  O   UNL     1       3.572   4.776  17.057  0.00  0.00    +0.000 OA
ENDROOT
BRANCH   1   4
ATOM      2  N   UNL     1       3.772   3.417  18.886  0.00  0.00    +0.000 N 
ATOM      3  C   UNL     1       4.917   4.223  19.289  0.00  0.00    +0.000 C 
ATOM      4  C   UNL     1       3.071   3.706  17.732  0.00  0.00    +0.000 C 
ATOM      5  O   UNL     1       2.086   3.063  17.382  0.00  0.00    +0.000 OA
BRANCH   2  11
ATOM      6  C   UNL     1       1.478   3.960  20.777  0.00  0.00    +0.000 C 
ATOM      7  C   UNL     1       2.173   2.614  20.766  0.00  0.00    +0.000 C 
ATOM      8  O   UNL     1       3.142   2.497  21.851  0.00  0.00    +0.000 OA
ATOM      9  C   UNL     1       4.071   1.929  21.032  0.00  0.00    +0.000 C 
ATOM     10  O   UNL     1       5.131   1.430  21.329  0.00  0.00    +0.000 OA
ATOM     11  C   UNL     1       3.285   2.285  19.739  0.00  0.00    +0.000 C 
ENDBRANCH   2  11
ENDBRANCH   1   4
BRANCH   1  12
ATOM     12  C   UNL     1       3.165   6.057  17.566  0.00  0.00    +0.000 C 
BRANCH  12  13
ATOM     13  C   UNL     1       4.259   7.087  17.315  0.00  0.00    +0.000 C 
BRANCH  13  14
ATOM     14  C   UNL     1       5.124   6.722  16.113  0.00  0.00    +0.000 C 
BRANCH  14  15
ATOM     15  C   UNL     1       6.554   6.400  16.558  0.00  0.00    +0.000 C 
BRANCH  15  16
ATOM     16  C   UNL     1       6.926   4.939  16.291  0.00  0.00    +0.000 C 
BRANCH  16  17
ATOM     17  C   UNL     1       6.941   4.653  14.809  0.00  0.00    +0.000 A 
ATOM     18  C   UNL     1       7.819   5.342  13.961  0.00  0.00    +0.000 A 
ATOM     19  C   UNL     1       7.775   5.139  12.580  0.00  0.00    +0.000 A 
ATOM     20  C   UNL     1       6.852   4.249  12.034  0.00  0.00    +0.000 A 
ATOM     21  C   UNL     1       5.988   3.546  12.869  0.00  0.00    +0.000 A 
ATOM     22  C   UNL     1       6.033   3.743  14.250  0.00  0.00    +0.000 A 
ENDBRANCH  16  17
ENDBRANCH  15  16
ENDBRANCH  14  15
ENDBRANCH  13  14
ENDBRANCH  12  13
ENDBRANCH   1  12
TORSDOF 8
ENDMDL
MODEL 9
REMARK VINA RESULT:      -6.6      1.524      1.968
REMARK  Name = 
REMARK  10 active torsions:
REMARK  status: ('A' for Active; 'I' for Inactive)
REMARK    1  A    between atoms: C_1  and  C_2
REMARK    2  A    between atoms: C_6  and  N_7
REMARK    3  A    between atoms: N_7  and  C_8
REMARK    4  A    between atoms: C_9  and  O_11
REMARK    5  A    between atoms: O_11  and  C_12
REMARK    6  A    between atoms: C_12  and  C_13
REMARK    7  A    between atoms: C_13  and  C_14
REMARK    8  A    between atoms: C_14  and  C_15
REMARK    9  A    between atoms: C_15  and  C_16
REMARK   10  A    between atoms: C_16  and  C_17
REMARK                            x       y       z     vdW  Elec       q    Type
REMARK                         _______ _______ _______ _____ _____    ______ ____
ROOT
ATOM      1  O   UNL     1       5.315   5.772  17.171  0.00  0.00    +0.000 OA
ENDROOT
BRANCH   1   4
ATOM      2  N   UNL     1       4.367   4.277  18.620  0.00  0.00    +0.000 N 
ATOM      3  C   UNL     1       4.258   5.365  19.583  0.00  0.00    +0.000 C 
ATOM      4  C   UNL     1       4.911   4.488  17.368  0.00  0.00    +0.000 C 
ATOM      5  O   UNL     1       4.989   3.598  16.526  0.00  0.00    +0.000 OA
BRANCH   2  11
ATOM      6  C   UNL     1       1.545   4.056  19.679  0.00  0.00    +0.000 C 
ATOM      7  C   UNL     1       2.430   2.832  19.567  0.00  0.00    +0.000 C 
ATOM      8  O   UNL     1       3.023   2.473  20.851  0.00  0.00    +0.000 OA
ATOM      9  C   UNL     1       4.241   2.248  20.286  0.00  0.00    +0.000 C 
ATOM     10  O   UNL     1       5.228   1.767  20.792  0.00  0.00    +0.000 OA
ATOM     11  C   UNL     1       3.843   2.909  18.936  0.00  0.00    +0.000 C 
ENDBRANCH   2  11
ENDBRANCH   1   4
BRANCH   1  12
ATOM     12  C   UNL     1       6.724   5.935  16.945  0.00  0.00    +0.000 C 
BRANCH  12  13
ATOM     13  C   UNL     1       7.084   7.416  16.950  0.00  0.00    +0.000 C 
BRANCH  13  14
ATOM     14  C   UNL     1       8.027   7.770  18.096  0.00  0.00    +0.000 C 
BRANCH  14  15
ATOM     15  C   UNL     1       8.368   9.263  18.067  0.00  0.00    +0.000 C 
BRANCH  15  16
ATOM     16  C   UNL     1       9.136   9.704  19.315  0.00  0.00    +0.000 C 
BRANCH  16  17
ATOM     17  C   UNL     1       9.760  11.063  19.108  0.00  0.00    +0.000 A 
ATOM     18  C   UNL     1      10.311  11.411  17.867  0.00  0.00    +0.000 A 
ATOM     19  C   UNL     1      10.962  12.635  17.699  0.00  0.00    +0.000 A 
ATOM     20  C   UNL     1      11.071  13.521  18.770  0.00  0.00    +0.000 A 
ATOM     21  C   UNL     1      10.510  13.193  20.002  0.00  0.00    +0.000 A 
ATOM     22  C   UNL     1       9.855  11.972  20.171  0.00  0.00    +0.000 A 
ENDBRANCH  16  17
ENDBRANCH  15  16
ENDBRANCH  14  15
ENDBRANCH  13  14
ENDBRANCH  12  13
ENDBRANCH   1  12
TORSDOF 8
ENDMDL
