MODEL 1
REMARK VINA RESULT:      -7.0      0.000      0.000
REMARK  Name = 
REMARK  12 active torsions:
REMARK  status: ('A' for Active; 'I' for Inactive)
REMARK    1  A    between atoms: C_1  and  O_2
REMARK    2  A    between atoms: O_2  and  C_3
REMARK    3  A    between atoms: C_3  and  C_5
REMARK    4  A    between atoms: N_11  and  C_12
REMARK    5  A    between atoms: C_12  and  C_13
REMARK    6  A    between atoms: C_13  and  N_14
REMARK    7  A    between atoms: N_14  and  C_15
REMARK    8  A    between atoms: N_14  and  C_18
REMARK    9  A    between atoms: C_15  and  C_16
REMARK   10  A    between atoms: C_15  and  C_17
REMARK   11  A    between atoms: C_18  and  C_19
REMARK   12  A    between atoms: C_18  and  C_20
REMARK                            x       y       z     vdW  Elec       q    Type
REMARK                         _______ _______ _______ _____ _____    ______ ____
ROOT
ATOM      1  C   UNL     1       6.389   4.638  15.438  0.00  0.00    +0.000 A 
ATOM      2  C   UNL     1       7.179   5.480  16.316  0.00  0.00    +0.000 A 
ATOM      3  C   UNL     1       7.015   5.477  17.646  0.00  0.00    +0.000 A 
ATOM      4 BR   UNL     1       8.013   6.582  18.767  0.00  0.00    +0.000 Br
ATOM      5  C   UNL     1       5.994   4.560  18.257  0.00  0.00    +0.000 A 
ATOM      6  O   UNL     1       5.881   4.464  19.477  0.00  0.00    +0.000 OA
ATOM      7  N   UNL     1       5.202   3.844  17.346  0.00  0.00    +0.000 N 
ATOM      8  C   UNL     1       5.431   3.868  15.978  0.00  0.00    +0.000 A 
ENDROOT
BRANCH   1   9
ATOM      9  C   UNL     1       6.661   4.644  13.976  0.00  0.00    +0.000 C 
ATOM     10  O   UNL     1       7.538   5.325  13.470  0.00  0.00    +0.000 OA
BRANCH   9  12
ATOM     11  C   UNL     1       6.391   3.281  12.099  0.00  0.00    +0.000 C 
ATOM     12  O   UNL     1       5.828   3.810  13.301  0.00  0.00    +0.000 OA
ENDBRANCH   9  12
ENDBRANCH   1   9
BRANCH   7  13
ATOM     13  C   UNL     1       4.180   2.937  17.904  0.00  0.00    +0.000 C 
BRANCH  13  14
ATOM     14  C   UNL     1       2.872   3.680  18.277  0.00  0.00    +0.000 C 
BRANCH  14  15
ATOM     15  N   UNL     1       2.619   4.147  19.672  0.00  0.00    +0.000 NA
BRANCH  15  16
ATOM     16  C   UNL     1       2.659   5.641  19.827  0.00  0.00    +0.000 C 
ATOM     17  C   UNL     1       2.636   6.383  18.473  0.00  0.00    +0.000 C 
ATOM     18  C   UNL     1       1.497   6.242  20.642  0.00  0.00    +0.000 C 
ENDBRANCH  15  16
BRANCH  15  19
ATOM     19  C   UNL     1       1.313   3.571  20.167  0.00  0.00    +0.000 C 
ATOM     20  C   UNL     1       0.534   2.732  19.136  0.00  0.00    +0.000 C 
ATOM     21  C   UNL     1       1.436   2.774  21.482  0.00  0.00    +0.000 C 
ENDBRANCH  15  19
ENDBRANCH  14  15
ENDBRANCH  13  14
ENDBRANCH   7  13
TORSDOF 7
ENDMDL
MODEL 2
REMARK VINA RESULT:      -6.8      1.209      2.128
REMARK  Name = 
REMARK  12 active torsions:
REMARK  status: ('A' for Active; 'I' for Inactive)
REMARK    1  A    between atoms: C_1  and  O_2
REMARK    2  A    between atoms: O_2  and  C_3
REMARK    3  A    between atoms: C_3  and  C_5
REMARK    4  A    between atoms: N_11  and  C_12
REMARK    5  A    between atoms: C_12  and  C_13
REMARK    6  A    between atoms: C_13  and  N_14
REMARK    7  A    between atoms: N_14  and  C_15
REMARK    8  A    between atoms: N_14  and  C_18
REMARK    9  A    between atoms: C_15  and  C_16
REMARK   10  A    between atoms: C_15  and  C_17
REMARK   11  A    between atoms: C_18  and  C_19
REMARK   12  A    between atoms: C_18  and  C_20
REMARK                            x       y       z     vdW  Elec       q    Type
REMARK                         _______ _______ _______ _____ _____    ______ ____
ROOT
ATOM      1  C   UNL     1       6.344   5.095  15.859  0.00  0.00    +0.000 A 
ATOM      2  C   UNL     1       7.305   5.226  16.937  0.00  0.00    +0.000 A 
ATOM      3  C   UNL     1       6.931   5.446  18.205  0.00  0.00    +0.000 A 
ATOM      4 BR   UNL     1       8.172   5.643  19.581  0.00  0.00    +0.000 Br
ATOM      5  C   UNL     1       5.468   5.543  18.531  0.00  0.00    +0.000 A 
ATOM      6  O   UNL     1       5.086   5.652  19.694  0.00  0.00    +0.000 OA
ATOM      7  N   UNL     1       4.598   5.501  17.430  0.00  0.00    +0.000 N 
ATOM      8  C   UNL     1       5.040   5.248  16.140  0.00  0.00    +0.000 A 
ENDROOT
BRANCH   1   9
ATOM      9  C   UNL     1       6.821   4.791  14.483  0.00  0.00    +0.000 C 
ATOM     10  O   UNL     1       7.724   5.411  13.946  0.00  0.00    +0.000 OA
BRANCH   9  12
ATOM     11  C   UNL     1       6.357   3.614  12.521  0.00  0.00    +0.000 C 
ATOM     12  O   UNL     1       6.138   3.757  13.925  0.00  0.00    +0.000 OA
ENDBRANCH   9  12
ENDBRANCH   1   9
BRANCH   7  13
ATOM     13  C   UNL     1       3.152   5.601  17.706  0.00  0.00    +0.000 C 
BRANCH  13  14
ATOM     14  C   UNL     1       2.500   4.217  17.950  0.00  0.00    +0.000 C 
BRANCH  14  15
ATOM     15  N   UNL     1       2.545   3.567  19.293  0.00  0.00    +0.000 NA
BRANCH  15  16
ATOM     16  C   UNL     1       1.191   3.353  19.908  0.00  0.00    +0.000 C 
ATOM     17  C   UNL     1       0.322   2.356  19.110  0.00  0.00    +0.000 C 
ATOM     18  C   UNL     1       1.209   2.816  21.352  0.00  0.00    +0.000 C 
ENDBRANCH  15  16
BRANCH  15  19
ATOM     19  C   UNL     1       3.324   2.276  19.201  0.00  0.00    +0.000 C 
ATOM     20  C   UNL     1       3.718   1.847  17.774  0.00  0.00    +0.000 C 
ATOM     21  C   UNL     1       4.571   2.228  20.108  0.00  0.00    +0.000 C 
ENDBRANCH  15  19
ENDBRANCH  14  15
ENDBRANCH  13  14
ENDBRANCH   7  13
TORSDOF 7
ENDMDL
MODEL 3
REMARK VINA RESULT:      -6.4      1.211      1.913
REMARK  Name = 
REMARK  12 active torsions:
REMARK  status: ('A' for Active; 'I' for Inactive)
REMARK    1  A    between atoms: C_1  and  O_2
REMARK    2  A    between atoms: O_2  and  C_3
REMARK    3  A    between atoms: C_3  and  C_5
REMARK    4  A    between atoms: N_11  and  C_12
REMARK    5  A    between atoms: C_12  and  C_13
REMARK    6  A    between atoms: C_13  and  N_14
REMARK    7  A    between atoms: N_14  and  C_15
REMARK    8  A    between atoms: N_14  and  C_18
REMARK    9  A    between atoms: C_15  and  C_16
REMARK   10  A    between atoms: C_15  and  C_17
REMARK   11  A    between atoms: C_18  and  C_19
REMARK   12  A    between atoms: C_18  and  C_20
REMARK                            x       y       z     vdW  Elec       q    Type
REMARK                         _______ _______ _______ _____ _____    ______ ____
ROOT
ATOM      1  C   UNL     1       6.740   5.082  15.791  0.00  0.00    +0.000 A 
ATOM      2  C   UNL     1       7.397   6.262  16.318  0.00  0.00    +0.000 A 
ATOM      3  C   UNL     1       7.393   6.557  17.626  0.00  0.00    +0.000 A 
ATOM      4 BR   UNL     1       8.215   8.091  18.296  0.00  0.00    +0.000 Br
ATOM      5  C   UNL     1       6.702   5.630  18.585  0.00  0.00    +0.000 A 
ATOM      6  O   UNL     1       6.758   5.819  19.798  0.00  0.00    +0.000 OA
ATOM      7  N   UNL     1       6.009   4.560  17.998  0.00  0.00    +0.000 N 
ATOM      8  C   UNL     1       6.066   4.290  16.639  0.00  0.00    +0.000 A 
ENDROOT
BRANCH   1   9
ATOM      9  C   UNL     1       6.832   4.780  14.337  0.00  0.00    +0.000 C 
ATOM     10  O   UNL     1       7.579   5.382  13.583  0.00  0.00    +0.000 OA
BRANCH   9  12
ATOM     11  C   UNL     1       6.037   3.463  12.580  0.00  0.00    +0.000 C 
ATOM     12  O   UNL     1       6.000   3.769  13.975  0.00  0.00    +0.000 OA
ENDBRANCH   9  12
ENDBRANCH   1   9
BRANCH   7  13
ATOM     13  C   UNL     1       5.309   3.629  18.904  0.00  0.00    +0.000 C 
BRANCH  13  14
ATOM     14  C   UNL     1       3.810   3.982  19.072  0.00  0.00    +0.000 C 
BRANCH  14  15
ATOM     15  N   UNL     1       2.838   2.992  19.623  0.00  0.00    +0.000 NA
BRANCH  15  16
ATOM     16  C   UNL     1       1.865   3.581  20.604  0.00  0.00    +0.000 C 
ATOM     17  C   UNL     1       1.953   2.926  22.000  0.00  0.00    +0.000 C 
ATOM     18  C   UNL     1       2.024   5.093  20.851  0.00  0.00    +0.000 C 
ENDBRANCH  15  16
BRANCH  15  19
ATOM     19  C   UNL     1       2.128   2.297  18.485  0.00  0.00    +0.000 C 
ATOM     20  C   UNL     1       0.596   2.210  18.622  0.00  0.00    +0.000 C 
ATOM     21  C   UNL     1       2.483   2.851  17.090  0.00  0.00    +0.000 C 
ENDBRANCH  15  19
ENDBRANCH  14  15
ENDBRANCH  13  14
ENDBRANCH   7  13
TORSDOF 7
ENDMDL
MODEL 4
REMARK VINA RESULT:      -6.4      3.421      6.586
REMARK  Name = 
REMARK  12 active torsions:
REMARK  status: ('A' for Active; 'I' for Inactive)
REMARK    1  A    between atoms: C_1  and  O_2
REMARK    2  A    between atoms: O_2  and  C_3
REMARK    3  A    between atoms: C_3  and  C_5
REMARK    4  A    between atoms: N_11  and  C_12
REMARK    5  A    between atoms: C_12  and  C_13
REMARK    6  A    between atoms: C_13  and  N_14
REMARK    7  A    between atoms: N_14  and  C_15
REMARK    8  A    between atoms: N_14  and  C_18
REMARK    9  A    between atoms: C_15  and  C_16
REMARK   10  A    between atoms: C_15  and  C_17
REMARK   11  A    between atoms: C_18  and  C_19
REMARK   12  A    between atoms: C_18  and  C_20
REMARK                            x       y       z     vdW  Elec       q    Type
REMARK                         _______ _______ _______ _____ _____    ______ ____
ROOT
ATOM      1  C   UNL     1       2.457   4.830  20.210  0.00  0.00    +0.000 A 
ATOM      2  C   UNL     1       1.665   5.867  20.841  0.00  0.00    +0.000 A 
ATOM      3  C   UNL     1       1.644   7.127  20.384  0.00  0.00    +0.000 A 
ATOM      4 BR   UNL     1       0.646   8.464  21.217  0.00  0.00    +0.000 Br
ATOM      5  C   UNL     1       2.451   7.479  19.167  0.00  0.00    +0.000 A 
ATOM      6  O   UNL     1       2.383   8.600  18.667  0.00  0.00    +0.000 OA
ATOM      7  N   UNL     1       3.265   6.453  18.663  0.00  0.00    +0.000 N 
ATOM      8  C   UNL     1       3.229   5.160  19.163  0.00  0.00    +0.000 A 
ENDROOT
BRANCH   1   9
ATOM      9  C   UNL     1       2.390   3.437  20.729  0.00  0.00    +0.000 C 
ATOM     10  O   UNL     1       2.417   3.175  21.921  0.00  0.00    +0.000 OA
BRANCH   9  12
ATOM     11  C   UNL     1       0.996   2.456  19.134  0.00  0.00    +0.000 C 
ATOM     12  O   UNL     1       2.293   2.525  19.728  0.00  0.00    +0.000 OA
ENDBRANCH   9  12
ENDBRANCH   1   9
BRANCH   7  13
ATOM     13  C   UNL     1       4.081   6.759  17.472  0.00  0.00    +0.000 C 
BRANCH  13  14
ATOM     14  C   UNL     1       5.128   5.657  17.175  0.00  0.00    +0.000 C 
BRANCH  14  15
ATOM     15  N   UNL     1       6.400   5.971  16.460  0.00  0.00    +0.000 NA
BRANCH  15  16
ATOM     16  C   UNL     1       7.511   6.420  17.368  0.00  0.00    +0.000 C 
ATOM     17  C   UNL     1       7.591   7.957  17.498  0.00  0.00    +0.000 C 
ATOM     18  C   UNL     1       7.425   5.891  18.812  0.00  0.00    +0.000 C 
ENDBRANCH  15  16
BRANCH  15  19
ATOM     19  C   UNL     1       6.813   4.783  15.623  0.00  0.00    +0.000 C 
ATOM     20  C   UNL     1       5.814   3.610  15.609  0.00  0.00    +0.000 C 
ATOM     21  C   UNL     1       7.198   5.139  14.172  0.00  0.00    +0.000 C 
ENDBRANCH  15  19
ENDBRANCH  14  15
ENDBRANCH  13  14
ENDBRANCH   7  13
TORSDOF 7
ENDMDL
MODEL 5
REMARK VINA RESULT:      -6.4      0.758      2.068
REMARK  Name = 
REMARK  12 active torsions:
REMARK  status: ('A' for Active; 'I' for Inactive)
REMARK    1  A    between atoms: C_1  and  O_2
REMARK    2  A    between atoms: O_2  and  C_3
REMARK    3  A    between atoms: C_3  and  C_5
REMARK    4  A    between atoms: N_11  and  C_12
REMARK    5  A    between atoms: C_12  and  C_13
REMARK    6  A    between atoms: C_13  and  N_14
REMARK    7  A    between atoms: N_14  and  C_15
REMARK    8  A    between atoms: N_14  and  C_18
REMARK    9  A    between atoms: C_15  and  C_16
REMARK   10  A    between atoms: C_15  and  C_17
REMARK   11  A    between atoms: C_18  and  C_19
REMARK   12  A    between atoms: C_18  and  C_20
REMARK                            x       y       z     vdW  Elec       q    Type
REMARK                         _______ _______ _______ _____ _____    ______ ____
ROOT
ATOM      1  C   UNL     1       6.585   4.879  15.624  0.00  0.00    +0.000 A 
ATOM      2  C   UNL     1       7.309   5.967  16.251  0.00  0.00    +0.000 A 
ATOM      3  C   UNL     1       7.186   6.249  17.556  0.00  0.00    +0.000 A 
ATOM      4 BR   UNL     1       8.097   7.668  18.351  0.00  0.00    +0.000 Br
ATOM      5  C   UNL     1       6.283   5.402  18.406  0.00  0.00    +0.000 A 
ATOM      6  O   UNL     1       6.217   5.573  19.622  0.00  0.00    +0.000 OA
ATOM      7  N   UNL     1       5.542   4.427  17.720  0.00  0.00    +0.000 N 
ATOM      8  C   UNL     1       5.728   4.164  16.370  0.00  0.00    +0.000 A 
ENDROOT
BRANCH   1   9
ATOM      9  C   UNL     1       6.811   4.580  14.184  0.00  0.00    +0.000 C 
ATOM     10  O   UNL     1       7.507   5.280  13.467  0.00  0.00    +0.000 OA
BRANCH   9  12
ATOM     11  C   UNL     1       5.578   3.551  12.490  0.00  0.00    +0.000 C 
ATOM     12  O   UNL     1       6.162   3.454  13.790  0.00  0.00    +0.000 OA
ENDBRANCH   9  12
ENDBRANCH   1   9
BRANCH   7  13
ATOM     13  C   UNL     1       4.637   3.578  18.517  0.00  0.00    +0.000 C 
BRANCH  13  14
ATOM     14  C   UNL     1       3.199   3.545  17.940  0.00  0.00    +0.000 C 
BRANCH  14  15
ATOM     15  N   UNL     1       2.074   4.243  18.629  0.00  0.00    +0.000 NA
BRANCH  15  16
ATOM     16  C   UNL     1       1.325   3.374  19.599  0.00  0.00    +0.000 C 
ATOM     17  C   UNL     1       0.586   2.206  18.909  0.00  0.00    +0.000 C 
ATOM     18  C   UNL     1       2.192   2.721  20.692  0.00  0.00    +0.000 C 
ENDBRANCH  15  16
BRANCH  15  19
ATOM     19  C   UNL     1       2.590   5.499  19.291  0.00  0.00    +0.000 C 
ATOM     20  C   UNL     1       2.777   6.707  18.352  0.00  0.00    +0.000 C 
ATOM     21  C   UNL     1       1.778   5.938  20.527  0.00  0.00    +0.000 C 
ENDBRANCH  15  19
ENDBRANCH  14  15
ENDBRANCH  13  14
ENDBRANCH   7  13
TORSDOF 7
ENDMDL
MODEL 6
REMARK VINA RESULT:      -6.3      1.067      2.405
REMARK  Name = 
REMARK  12 active torsions:
REMARK  status: ('A' for Active; 'I' for Inactive)
REMARK    1  A    between atoms: C_1  and  O_2
REMARK    2  A    between atoms: O_2  and  C_3
REMARK    3  A    between atoms: C_3  and  C_5
REMARK    4  A    between atoms: N_11  and  C_12
REMARK    5  A    between atoms: C_12  and  C_13
REMARK    6  A    between atoms: C_13  and  N_14
REMARK    7  A    between atoms: N_14  and  C_15
REMARK    8  A    between atoms: N_14  and  C_18
REMARK    9  A    between atoms: C_15  and  C_16
REMARK   10  A    between atoms: C_15  and  C_17
REMARK   11  A    between atoms: C_18  and  C_19
REMARK   12  A    between atoms: C_18  and  C_20
REMARK                            x       y       z     vdW  Elec       q    Type
REMARK                         _______ _______ _______ _____ _____    ______ ____
ROOT
ATOM      1  C   UNL     1       6.334   4.840  15.897  0.00  0.00    +0.000 A 
ATOM      2  C   UNL     1       7.135   5.926  16.429  0.00  0.00    +0.000 A 
ATOM      3  C   UNL     1       7.212   6.179  17.743  0.00  0.00    +0.000 A 
ATOM      4 BR   UNL     1       8.220   7.593  18.419  0.00  0.00    +0.000 Br
ATOM      5  C   UNL     1       6.461   5.301  18.704  0.00  0.00    +0.000 A 
ATOM      6  O   UNL     1       6.583   5.446  19.918  0.00  0.00    +0.000 OA
ATOM      7  N   UNL     1       5.634   4.331  18.118  0.00  0.00    +0.000 N 
ATOM      8  C   UNL     1       5.611   4.098  16.750  0.00  0.00    +0.000 A 
ENDROOT
BRANCH   1   9
ATOM      9  C   UNL     1       6.338   4.575  14.433  0.00  0.00    +0.000 C 
ATOM     10  O   UNL     1       5.812   3.591  13.939  0.00  0.00    +0.000 OA
BRANCH   9  12
ATOM     11  C   UNL     1       7.954   5.055  12.817  0.00  0.00    +0.000 C 
ATOM     12  O   UNL     1       6.984   5.550  13.742  0.00  0.00    +0.000 OA
ENDBRANCH   9  12
ENDBRANCH   1   9
BRANCH   7  13
ATOM     13  C   UNL     1       4.872   3.452  19.026  0.00  0.00    +0.000 C 
BRANCH  13  14
ATOM     14  C   UNL     1       3.666   4.177  19.674  0.00  0.00    +0.000 C 
BRANCH  14  15
ATOM     15  N   UNL     1       2.426   4.465  18.893  0.00  0.00    +0.000 NA
BRANCH  15  16
ATOM     16  C   UNL     1       1.209   3.745  19.403  0.00  0.00    +0.000 C 
ATOM     17  C   UNL     1       0.930   2.430  18.642  0.00  0.00    +0.000 C 
ATOM     18  C   UNL     1       1.260   3.354  20.892  0.00  0.00    +0.000 C 
ENDBRANCH  15  16
BRANCH  15  19
ATOM     19  C   UNL     1       2.205   5.958  18.833  0.00  0.00    +0.000 C 
ATOM     20  C   UNL     1       2.221   6.679  20.194  0.00  0.00    +0.000 C 
ATOM     21  C   UNL     1       3.145   6.694  17.857  0.00  0.00    +0.000 C 
ENDBRANCH  15  19
ENDBRANCH  14  15
ENDBRANCH  13  14
ENDBRANCH   7  13
TORSDOF 7
ENDMDL
MODEL 7
REMARK VINA RESULT:      -6.2      3.091      6.408
REMARK  Name = 
REMARK  12 active torsions:
REMARK  status: ('A' for Active; 'I' for Inactive)
REMARK    1  A    between atoms: C_1  and  O_2
REMARK    2  A    between atoms: O_2  and  C_3
REMARK    3  A    between atoms: C_3  and  C_5
REMARK    4  A    between atoms: N_11  and  C_12
REMARK    5  A    between atoms: C_12  and  C_13
REMARK    6  A    between atoms: C_13  and  N_14
REMARK    7  A    between atoms: N_14  and  C_15
REMARK    8  A    between atoms: N_14  and  C_18
REMARK    9  A    between atoms: C_15  and  C_16
REMARK   10  A    between atoms: C_15  and  C_17
REMARK   11  A    between atoms: C_18  and  C_19
REMARK   12  A    between atoms: C_18  and  C_20
REMARK                            x       y       z     vdW  Elec       q    Type
REMARK                         _______ _______ _______ _____ _____    ______ ____
ROOT
ATOM      1  C   UNL     1       2.549   6.117  18.979  0.00  0.00    +0.000 A 
ATOM      2  C   UNL     1       2.160   5.313  20.121  0.00  0.00    +0.000 A 
ATOM      3  C   UNL     1       2.335   3.984  20.152  0.00  0.00    +0.000 A 
ATOM      4 BR   UNL     1       1.808   2.951  21.611  0.00  0.00    +0.000 Br
ATOM      5  C   UNL     1       2.971   3.301  18.975  0.00  0.00    +0.000 A 
ATOM      6  O   UNL     1       3.231   2.100  19.006  0.00  0.00    +0.000 OA
ATOM      7  N   UNL     1       3.236   4.123  17.868  0.00  0.00    +0.000 N 
ATOM      8  C   UNL     1       3.055   5.498  17.901  0.00  0.00    +0.000 A 
ENDROOT
BRANCH   1   9
ATOM      9  C   UNL     1       2.383   7.594  19.031  0.00  0.00    +0.000 C 
ATOM     10  O   UNL     1       2.697   8.327  18.108  0.00  0.00    +0.000 OA
BRANCH   9  12
ATOM     11  C   UNL     1       1.103   9.219  20.114  0.00  0.00    +0.000 C 
ATOM     12  O   UNL     1       1.847   8.004  20.210  0.00  0.00    +0.000 OA
ENDBRANCH   9  12
ENDBRANCH   1   9
BRANCH   7  13
ATOM     13  C   UNL     1       3.853   3.490  16.687  0.00  0.00    +0.000 C 
BRANCH  13  14
ATOM     14  C   UNL     1       5.384   3.721  16.626  0.00  0.00    +0.000 C 
BRANCH  14  15
ATOM     15  N   UNL     1       5.965   4.847  15.837  0.00  0.00    +0.000 NA
BRANCH  15  16
ATOM     16  C   UNL     1       6.948   5.683  16.609  0.00  0.00    +0.000 C 
ATOM     17  C   UNL     1       6.330   6.994  17.141  0.00  0.00    +0.000 C 
ATOM     18  C   UNL     1       7.565   4.991  17.840  0.00  0.00    +0.000 C 
ENDBRANCH  15  16
BRANCH  15  19
ATOM     19  C   UNL     1       6.573   4.309  14.563  0.00  0.00    +0.000 C 
ATOM     20  C   UNL     1       5.560   3.855  13.494  0.00  0.00    +0.000 C 
ATOM     21  C   UNL     1       7.609   5.250  13.914  0.00  0.00    +0.000 C 
ENDBRANCH  15  19
ENDBRANCH  14  15
ENDBRANCH  13  14
ENDBRANCH   7  13
TORSDOF 7
ENDMDL
MODEL 8
REMARK VINA RESULT:      -6.2      3.350      6.370
REMARK  Name = 
REMARK  12 active torsions:
REMARK  status: ('A' for Active; 'I' for Inactive)
REMARK    1  A    between atoms: C_1  and  O_2
REMARK    2  A    between atoms: O_2  and  C_3
REMARK    3  A    between atoms: C_3  and  C_5
REMARK    4  A    between atoms: N_11  and  C_12
REMARK    5  A    between atoms: C_12  and  C_13
REMARK    6  A    between atoms: C_13  and  N_14
REMARK    7  A    between atoms: N_14  and  C_15
REMARK    8  A    between atoms: N_14  and  C_18
REMARK    9  A    between atoms: C_15  and  C_16
REMARK   10  A    between atoms: C_15  and  C_17
REMARK   11  A    between atoms: C_18  and  C_19
REMARK   12  A    between atoms: C_18  and  C_20
REMARK                            x       y       z     vdW  Elec       q    Type
REMARK                         _______ _______ _______ _____ _____    ______ ____
ROOT
ATOM      1  C   UNL     1       2.723   4.874  19.708  0.00  0.00    +0.000 A 
ATOM      2  C   UNL     1       1.903   5.724  20.550  0.00  0.00    +0.000 A 
ATOM      3  C   UNL     1       1.731   7.028  20.296  0.00  0.00    +0.000 A 
ATOM      4 BR   UNL     1       0.699   8.122  21.398  0.00  0.00    +0.000 Br
ATOM      5  C   UNL     1       2.391   7.633  19.089  0.00  0.00    +0.000 A 
ATOM      6  O   UNL     1       2.180   8.803  18.774  0.00  0.00    +0.000 OA
ATOM      7  N   UNL     1       3.243   6.779  18.373  0.00  0.00    +0.000 N 
ATOM      8  C   UNL     1       3.366   5.429  18.669  0.00  0.00    +0.000 A 
ENDROOT
BRANCH   1   9
ATOM      9  C   UNL     1       2.826   3.421  20.011  0.00  0.00    +0.000 C 
ATOM     10  O   UNL     1       3.895   2.847  20.137  0.00  0.00    +0.000 OA
BRANCH   9  12
ATOM     11  C   UNL     1       1.053   2.399  18.887  0.00  0.00    +0.000 C 
ATOM     12  O   UNL     1       1.604   2.839  20.129  0.00  0.00    +0.000 OA
ENDBRANCH   9  12
ENDBRANCH   1   9
BRANCH   7  13
ATOM     13  C   UNL     1       3.918   7.336  17.185  0.00  0.00    +0.000 C 
BRANCH  13  14
ATOM     14  C   UNL     1       4.681   6.255  16.379  0.00  0.00    +0.000 C 
BRANCH  14  15
ATOM     15  N   UNL     1       6.173   6.220  16.352  0.00  0.00    +0.000 NA
BRANCH  15  16
ATOM     16  C   UNL     1       6.811   6.585  17.662  0.00  0.00    +0.000 C 
ATOM     17  C   UNL     1       7.671   5.443  18.247  0.00  0.00    +0.000 C 
ATOM     18  C   UNL     1       7.741   7.813  17.614  0.00  0.00    +0.000 C 
ENDBRANCH  15  16
BRANCH  15  19
ATOM     19  C   UNL     1       6.635   4.866  15.866  0.00  0.00    +0.000 C 
ATOM     20  C   UNL     1       5.597   3.735  15.988  0.00  0.00    +0.000 C 
ATOM     21  C   UNL     1       7.211   4.875  14.435  0.00  0.00    +0.000 C 
ENDBRANCH  15  19
ENDBRANCH  14  15
ENDBRANCH  13  14
ENDBRANCH   7  13
TORSDOF 7
ENDMDL
MODEL 9
REMARK VINA RESULT:      -6.1      3.450      6.559
REMARK  Name = 
REMARK  12 active torsions:
REMARK  status: ('A' for Active; 'I' for Inactive)
REMARK    1  A    between atoms: C_1  and  O_2
REMARK    2  A    between atoms: O_2  and  C_3
REMARK    3  A    between atoms: C_3  and  C_5
REMARK    4  A    between atoms: N_11  and  C_12
REMARK    5  A    between atoms: C_12  and  C_13
REMARK    6  A    between atoms: C_13  and  N_14
REMARK    7  A    between atoms: N_14  and  C_15
REMARK    8  A    between atoms: N_14  and  C_18
REMARK    9  A    between atoms: C_15  and  C_16
REMARK   10  A    between atoms: C_15  and  C_17
REMARK   11  A    between atoms: C_18  and  C_19
REMARK   12  A    between atoms: C_18  and  C_20
REMARK                            x       y       z     vdW  Elec       q    Type
REMARK                         _______ _______ _______ _____ _____    ______ ____
ROOT
ATOM      1  C   UNL     1       2.470   4.768  20.001  0.00  0.00    +0.000 A 
ATOM      2  C   UNL     1       1.687   5.720  20.764  0.00  0.00    +0.000 A 
ATOM      3  C   UNL     1       1.619   7.017  20.432  0.00  0.00    +0.000 A 
ATOM      4 BR   UNL     1       0.634   8.243  21.434  0.00  0.00    +0.000 Br
ATOM      5  C   UNL     1       2.362   7.504  19.221  0.00  0.00    +0.000 A 
ATOM      6  O   UNL     1       2.247   8.665  18.835  0.00  0.00    +0.000 OA
ATOM      7  N   UNL     1       3.173   6.552  18.584  0.00  0.00    +0.000 N 
ATOM      8  C   UNL     1       3.186   5.215  18.958  0.00  0.00    +0.000 A 
ENDROOT
BRANCH   1   9
ATOM      9  C   UNL     1       2.456   3.331  20.386  0.00  0.00    +0.000 C 
ATOM     10  O   UNL     1       3.464   2.725  20.713  0.00  0.00    +0.000 OA
BRANCH   9  12
ATOM     11  C   UNL     1       0.765   2.505  19.004  0.00  0.00    +0.000 C 
ATOM     12  O   UNL     1       1.206   2.802  20.329  0.00  0.00    +0.000 OA
ENDBRANCH   9  12
ENDBRANCH   1   9
BRANCH   7  13
ATOM     13  C   UNL     1       3.926   6.990  17.394  0.00  0.00    +0.000 C 
BRANCH  13  14
ATOM     14  C   UNL     1       4.717   5.832  16.736  0.00  0.00    +0.000 C 
BRANCH  14  15
ATOM     15  N   UNL     1       5.999   6.083  16.014  0.00  0.00    +0.000 NA
BRANCH  15  16
ATOM     16  C   UNL     1       7.210   6.058  16.903  0.00  0.00    +0.000 C 
ATOM     17  C   UNL     1       7.591   7.457  17.435  0.00  0.00    +0.000 C 
ATOM     18  C   UNL     1       7.082   5.166  18.153  0.00  0.00    +0.000 C 
ENDBRANCH  15  16
BRANCH  15  19
ATOM     19  C   UNL     1       6.130   5.109  14.867  0.00  0.00    +0.000 C 
ATOM     20  C   UNL     1       7.454   5.194  14.082  0.00  0.00    +0.000 C 
ATOM     21  C   UNL     1       5.865   3.640  15.257  0.00  0.00    +0.000 C 
ENDBRANCH  15  19
ENDBRANCH  14  15
ENDBRANCH  13  14
ENDBRANCH   7  13
TORSDOF 7
ENDMDL
