MODEL 1
REMARK VINA RESULT:      -7.8      0.000      0.000
REMARK  Name = 
REMARK  4 active torsions:
REMARK  status: ('A' for Active; 'I' for Inactive)
REMARK    1  A    between atoms: C_2  and  C_3
REMARK    2  A    between atoms: C_2  and  C_16
REMARK    3  A    between atoms: C_3  and  N_4
REMARK    4  A    between atoms: N_6  and  C_7
REMARK                            x       y       z     vdW  Elec       q    Type
REMARK                         _______ _______ _______ _____ _____    ______ ____
ROOT
ATOM      1  N   UNL     1       4.989   3.906  17.927  0.00  0.00    +0.000 N 
ATOM      2  C   UNL     1       5.798   4.465  18.845  0.00  0.00    +0.000 A 
ATOM      3  N   UNL     1       6.833   5.015  18.202  0.00  0.00    +0.000 N 
ATOM      4  C   UNL     1       6.692   4.855  16.839  0.00  0.00    +0.000 A 
ATOM      5  C   UNL     1       7.485   5.272  15.772  0.00  0.00    +0.000 A 
ATOM      6  C   UNL     1       7.026   4.926  14.492  0.00  0.00    +0.000 A 
ATOM      7  C   UNL     1       5.832   4.200  14.305  0.00  0.00    +0.000 A 
ATOM      8  C   UNL     1       5.044   3.783  15.387  0.00  0.00    +0.000 A 
ATOM      9  C   UNL     1       5.505   4.135  16.652  0.00  0.00    +0.000 A 
ENDROOT
BRANCH   3  10
ATOM     10  C   UNL     1       7.904   5.691  18.883  0.00  0.00    +0.000 C 
ATOM     11  F   UNL     1       7.938   6.982  18.481  0.00  0.00    +0.000 F 
ATOM     12  F   UNL     1       7.656   5.695  20.212  0.00  0.00    +0.000 F 
ENDBRANCH   3  10
BRANCH   1  13
ATOM     13  C   UNL     1       3.768   3.152  18.260  0.00  0.00    +0.000 C 
BRANCH  13  15
ATOM     14  O   UNL     1       1.713   3.675  17.114  0.00  0.00    +0.000 OA
ATOM     15  C   UNL     1       2.512   3.974  18.000  0.00  0.00    +0.000 C 
BRANCH  15  16
ATOM     16  C   UNL     1       2.256   5.154  18.875  0.00  0.00    +0.000 A 
ATOM     17  C   UNL     1       1.745   5.003  20.170  0.00  0.00    +0.000 A 
ATOM     18  C   UNL     1       1.460   6.130  20.946  0.00  0.00    +0.000 A 
ATOM     19  C   UNL     1       1.688   7.405  20.429  0.00  0.00    +0.000 A 
ATOM     20 BR   UNL     1       1.230   8.920  21.459  0.00  0.00    +0.000 Br
ATOM     21  C   UNL     1       2.222   7.564  19.153  0.00  0.00    +0.000 A 
ATOM     22  C   UNL     1       2.503   6.439  18.371  0.00  0.00    +0.000 A 
ENDBRANCH  15  16
ENDBRANCH  13  15
ENDBRANCH   1  13
TORSDOF 4
ENDMDL
MODEL 2
REMARK VINA RESULT:      -7.7      0.085      1.036
REMARK  Name = 
REMARK  4 active torsions:
REMARK  status: ('A' for Active; 'I' for Inactive)
REMARK    1  A    between atoms: C_2  and  C_3
REMARK    2  A    between atoms: C_2  and  C_16
REMARK    3  A    between atoms: C_3  and  N_4
REMARK    4  A    between atoms: N_6  and  C_7
REMARK                            x       y       z     vdW  Elec       q    Type
REMARK                         _______ _______ _______ _____ _____    ______ ____
ROOT
ATOM      1  N   UNL     1       5.013   3.898  17.968  0.00  0.00    +0.000 N 
ATOM      2  C   UNL     1       5.828   4.456  18.880  0.00  0.00    +0.000 A 
ATOM      3  N   UNL     1       6.853   5.016  18.229  0.00  0.00    +0.000 N 
ATOM      4  C   UNL     1       6.698   4.863  16.867  0.00  0.00    +0.000 A 
ATOM      5  C   UNL     1       7.476   5.290  15.793  0.00  0.00    +0.000 A 
ATOM      6  C   UNL     1       7.005   4.948  14.517  0.00  0.00    +0.000 A 
ATOM      7  C   UNL     1       5.814   4.216  14.339  0.00  0.00    +0.000 A 
ATOM      8  C   UNL     1       5.040   3.789  15.427  0.00  0.00    +0.000 A 
ATOM      9  C   UNL     1       5.513   4.137  16.688  0.00  0.00    +0.000 A 
ENDROOT
BRANCH   3  10
ATOM     10  C   UNL     1       7.928   5.695  18.901  0.00  0.00    +0.000 C 
ATOM     11  F   UNL     1       7.938   6.993  18.520  0.00  0.00    +0.000 F 
ATOM     12  F   UNL     1       7.703   5.674  20.234  0.00  0.00    +0.000 F 
ENDBRANCH   3  10
BRANCH   1  13
ATOM     13  C   UNL     1       3.800   3.134  18.310  0.00  0.00    +0.000 C 
BRANCH  13  15
ATOM     14  O   UNL     1       1.781   3.557  17.062  0.00  0.00    +0.000 OA
ATOM     15  C   UNL     1       2.534   3.910  17.969  0.00  0.00    +0.000 C 
BRANCH  15  16
ATOM     16  C   UNL     1       2.208   5.112  18.789  0.00  0.00    +0.000 A 
ATOM     17  C   UNL     1       2.463   6.406  18.317  0.00  0.00    +0.000 A 
ATOM     18  C   UNL     1       2.201   7.512  19.131  0.00  0.00    +0.000 A 
ATOM     19  C   UNL     1       1.684   7.325  20.412  0.00  0.00    +0.000 A 
ATOM     20 BR   UNL     1       1.403   8.822  21.529  0.00  0.00    +0.000 Br
ATOM     21  C   UNL     1       1.401   6.044  20.879  0.00  0.00    +0.000 A 
ATOM     22  C   UNL     1       1.667   4.934  20.070  0.00  0.00    +0.000 A 
ENDBRANCH  15  16
ENDBRANCH  13  15
ENDBRANCH   1  13
TORSDOF 4
ENDMDL
MODEL 3
REMARK VINA RESULT:      -7.6      1.866      2.923
REMARK  Name = 
REMARK  4 active torsions:
REMARK  status: ('A' for Active; 'I' for Inactive)
REMARK    1  A    between atoms: C_2  and  C_3
REMARK    2  A    between atoms: C_2  and  C_16
REMARK    3  A    between atoms: C_3  and  N_4
REMARK    4  A    between atoms: N_6  and  C_7
REMARK                            x       y       z     vdW  Elec       q    Type
REMARK                         _______ _______ _______ _____ _____    ______ ____
ROOT
ATOM      1  N   UNL     1       4.748   3.801  17.410  0.00  0.00    +0.000 N 
ATOM      2  C   UNL     1       4.823   3.842  16.068  0.00  0.00    +0.000 A 
ATOM      3  N   UNL     1       5.785   4.709  15.735  0.00  0.00    +0.000 N 
ATOM      4  C   UNL     1       6.382   5.221  16.868  0.00  0.00    +0.000 A 
ATOM      5  C   UNL     1       7.431   6.122  17.033  0.00  0.00    +0.000 A 
ATOM      6  C   UNL     1       7.784   6.422  18.358  0.00  0.00    +0.000 A 
ATOM      7  C   UNL     1       7.111   5.841  19.452  0.00  0.00    +0.000 A 
ATOM      8  C   UNL     1       6.054   4.937  19.273  0.00  0.00    +0.000 A 
ATOM      9  C   UNL     1       5.716   4.643  17.956  0.00  0.00    +0.000 A 
ENDROOT
BRANCH   3  10
ATOM     10  C   UNL     1       6.126   5.010  14.371  0.00  0.00    +0.000 C 
ATOM     11  F   UNL     1       7.432   4.723  14.169  0.00  0.00    +0.000 F 
ATOM     12  F   UNL     1       5.411   4.213  13.546  0.00  0.00    +0.000 F 
ENDBRANCH   3  10
BRANCH   1  13
ATOM     13  C   UNL     1       3.761   2.996  18.152  0.00  0.00    +0.000 C 
BRANCH  13  15
ATOM     14  O   UNL     1       1.450   3.174  17.488  0.00  0.00    +0.000 OA
ATOM     15  C   UNL     1       2.383   3.646  18.137  0.00  0.00    +0.000 C 
BRANCH  15  16
ATOM     16  C   UNL     1       2.179   4.872  18.959  0.00  0.00    +0.000 A 
ATOM     17  C   UNL     1       1.661   4.800  20.259  0.00  0.00    +0.000 A 
ATOM     18  C   UNL     1       1.426   5.971  20.985  0.00  0.00    +0.000 A 
ATOM     19  C   UNL     1       1.711   7.211  20.415  0.00  0.00    +0.000 A 
ATOM     20 BR   UNL     1       1.321   8.788  21.377  0.00  0.00    +0.000 Br
ATOM     21  C   UNL     1       2.253   7.291  19.134  0.00  0.00    +0.000 A 
ATOM     22  C   UNL     1       2.484   6.122  18.402  0.00  0.00    +0.000 A 
ENDBRANCH  15  16
ENDBRANCH  13  15
ENDBRANCH   1  13
TORSDOF 4
ENDMDL
MODEL 4
REMARK VINA RESULT:      -7.5      1.381      1.898
REMARK  Name = 
REMARK  4 active torsions:
REMARK  status: ('A' for Active; 'I' for Inactive)
REMARK    1  A    between atoms: C_2  and  C_3
REMARK    2  A    between atoms: C_2  and  C_16
REMARK    3  A    between atoms: C_3  and  N_4
REMARK    4  A    between atoms: N_6  and  C_7
REMARK                            x       y       z     vdW  Elec       q    Type
REMARK                         _______ _______ _______ _____ _____    ______ ____
ROOT
ATOM      1  N   UNL     1       4.618   4.778  18.105  0.00  0.00    +0.000 N 
ATOM      2  C   UNL     1       5.535   5.182  19.001  0.00  0.00    +0.000 A 
ATOM      3  N   UNL     1       6.704   5.312  18.364  0.00  0.00    +0.000 N 
ATOM      4  C   UNL     1       6.554   5.029  17.023  0.00  0.00    +0.000 A 
ATOM      5  C   UNL     1       7.461   5.051  15.966  0.00  0.00    +0.000 A 
ATOM      6  C   UNL     1       6.951   4.698  14.708  0.00  0.00    +0.000 A 
ATOM      7  C   UNL     1       5.598   4.343  14.532  0.00  0.00    +0.000 A 
ATOM      8  C   UNL     1       4.694   4.322  15.603  0.00  0.00    +0.000 A 
ATOM      9  C   UNL     1       5.210   4.678  16.846  0.00  0.00    +0.000 A 
ENDROOT
BRANCH   3  10
ATOM     10  C   UNL     1       7.913   5.719  19.028  0.00  0.00    +0.000 C 
ATOM     11  F   UNL     1       8.167   7.014  18.729  0.00  0.00    +0.000 F 
ATOM     12  F   UNL     1       7.733   5.649  20.366  0.00  0.00    +0.000 F 
ENDBRANCH   3  10
BRANCH   1  13
ATOM     13  C   UNL     1       3.218   4.470  18.446  0.00  0.00    +0.000 C 
BRANCH  13  15
ATOM     14  O   UNL     1       2.785   4.798  20.795  0.00  0.00    +0.000 OA
ATOM     15  C   UNL     1       2.748   5.266  19.658  0.00  0.00    +0.000 C 
BRANCH  15  16
ATOM     16  C   UNL     1       2.260   6.657  19.435  0.00  0.00    +0.000 A 
ATOM     17  C   UNL     1       2.374   7.277  18.184  0.00  0.00    +0.000 A 
ATOM     18  C   UNL     1       1.961   8.601  18.019  0.00  0.00    +0.000 A 
ATOM     19  C   UNL     1       1.433   9.304  19.101  0.00  0.00    +0.000 A 
ATOM     20 BR   UNL     1       0.946  11.116  18.884  0.00  0.00    +0.000 Br
ATOM     21  C   UNL     1       1.290   8.687  20.341  0.00  0.00    +0.000 A 
ATOM     22  C   UNL     1       1.707   7.363  20.512  0.00  0.00    +0.000 A 
ENDBRANCH  15  16
ENDBRANCH  13  15
ENDBRANCH   1  13
TORSDOF 4
ENDMDL
MODEL 5
REMARK VINA RESULT:      -7.5      1.863      3.097
REMARK  Name = 
REMARK  4 active torsions:
REMARK  status: ('A' for Active; 'I' for Inactive)
REMARK    1  A    between atoms: C_2  and  C_3
REMARK    2  A    between atoms: C_2  and  C_16
REMARK    3  A    between atoms: C_3  and  N_4
REMARK    4  A    between atoms: N_6  and  C_7
REMARK                            x       y       z     vdW  Elec       q    Type
REMARK                         _______ _______ _______ _____ _____    ______ ____
ROOT
ATOM      1  N   UNL     1       4.848   3.818  17.443  0.00  0.00    +0.000 N 
ATOM      2  C   UNL     1       4.901   3.864  16.100  0.00  0.00    +0.000 A 
ATOM      3  N   UNL     1       5.827   4.765  15.755  0.00  0.00    +0.000 N 
ATOM      4  C   UNL     1       6.423   5.296  16.880  0.00  0.00    +0.000 A 
ATOM      5  C   UNL     1       7.442   6.233  17.031  0.00  0.00    +0.000 A 
ATOM      6  C   UNL     1       7.803   6.543  18.351  0.00  0.00    +0.000 A 
ATOM      7  C   UNL     1       7.167   5.936  19.454  0.00  0.00    +0.000 A 
ATOM      8  C   UNL     1       6.141   4.996  19.289  0.00  0.00    +0.000 A 
ATOM      9  C   UNL     1       5.793   4.693  17.976  0.00  0.00    +0.000 A 
ENDROOT
BRANCH   3  10
ATOM     10  C   UNL     1       6.137   5.080  14.387  0.00  0.00    +0.000 C 
ATOM     11  F   UNL     1       7.465   4.914  14.185  0.00  0.00    +0.000 F 
ATOM     12  F   UNL     1       5.500   4.209  13.573  0.00  0.00    +0.000 F 
ENDBRANCH   3  10
BRANCH   1  13
ATOM     13  C   UNL     1       3.901   2.978  18.198  0.00  0.00    +0.000 C 
BRANCH  13  15
ATOM     14  O   UNL     1       1.593   2.956  17.502  0.00  0.00    +0.000 OA
ATOM     15  C   UNL     1       2.483   3.531  18.128  0.00  0.00    +0.000 C 
BRANCH  15  16
ATOM     16  C   UNL     1       2.186   4.790  18.868  0.00  0.00    +0.000 A 
ATOM     17  C   UNL     1       2.422   6.046  18.293  0.00  0.00    +0.000 A 
ATOM     18  C   UNL     1       2.188   7.208  19.032  0.00  0.00    +0.000 A 
ATOM     19  C   UNL     1       1.717   7.117  20.341  0.00  0.00    +0.000 A 
ATOM     20 BR   UNL     1       1.476   8.693  21.354  0.00  0.00    +0.000 Br
ATOM     21  C   UNL     1       1.454   5.874  20.911  0.00  0.00    +0.000 A 
ATOM     22  C   UNL     1       1.691   4.707  20.178  0.00  0.00    +0.000 A 
ENDBRANCH  15  16
ENDBRANCH  13  15
ENDBRANCH   1  13
TORSDOF 4
ENDMDL
MODEL 6
REMARK VINA RESULT:      -7.4      1.499      1.873
REMARK  Name = 
REMARK  4 active torsions:
REMARK  status: ('A' for Active; 'I' for Inactive)
REMARK    1  A    between atoms: C_2  and  C_3
REMARK    2  A    between atoms: C_2  and  C_16
REMARK    3  A    between atoms: C_3  and  N_4
REMARK    4  A    between atoms: N_6  and  C_7
REMARK                            x       y       z     vdW  Elec       q    Type
REMARK                         _______ _______ _______ _____ _____    ______ ____
ROOT
ATOM      1  N   UNL     1       4.508   4.808  18.382  0.00  0.00    +0.000 N 
ATOM      2  C   UNL     1       5.390   5.265  19.289  0.00  0.00    +0.000 A 
ATOM      3  N   UNL     1       6.576   5.391  18.684  0.00  0.00    +0.000 N 
ATOM      4  C   UNL     1       6.474   5.050  17.352  0.00  0.00    +0.000 A 
ATOM      5  C   UNL     1       7.413   5.045  16.324  0.00  0.00    +0.000 A 
ATOM      6  C   UNL     1       6.949   4.632  15.066  0.00  0.00    +0.000 A 
ATOM      7  C   UNL     1       5.609   4.245  14.863  0.00  0.00    +0.000 A 
ATOM      8  C   UNL     1       4.672   4.251  15.906  0.00  0.00    +0.000 A 
ATOM      9  C   UNL     1       5.142   4.668  17.148  0.00  0.00    +0.000 A 
ENDROOT
BRANCH   3  10
ATOM     10  C   UNL     1       7.756   5.847  19.368  0.00  0.00    +0.000 C 
ATOM     11  F   UNL     1       8.710   4.891  19.287  0.00  0.00    +0.000 F 
ATOM     12  F   UNL     1       8.239   6.943  18.743  0.00  0.00    +0.000 F 
ENDBRANCH   3  10
BRANCH   1  13
ATOM     13  C   UNL     1       3.103   4.489  18.692  0.00  0.00    +0.000 C 
BRANCH  13  15
ATOM     14  O   UNL     1       2.538   4.798  21.016  0.00  0.00    +0.000 OA
ATOM     15  C   UNL     1       2.599   5.287  19.888  0.00  0.00    +0.000 C 
BRANCH  15  16
ATOM     16  C   UNL     1       2.197   6.705  19.664  0.00  0.00    +0.000 A 
ATOM     17  C   UNL     1       1.623   7.470  20.687  0.00  0.00    +0.000 A 
ATOM     18  C   UNL     1       1.204   8.778  20.432  0.00  0.00    +0.000 A 
ATOM     19  C   UNL     1       1.360   9.322  19.157  0.00  0.00    +0.000 A 
ATOM     20 BR   UNL     1       0.722  11.064  18.805  0.00  0.00    +0.000 Br
ATOM     21  C   UNL     1       1.955   8.578  18.141  0.00  0.00    +0.000 A 
ATOM     22  C   UNL     1       2.372   7.267  18.391  0.00  0.00    +0.000 A 
ENDBRANCH  15  16
ENDBRANCH  13  15
ENDBRANCH   1  13
TORSDOF 4
ENDMDL
MODEL 7
REMARK VINA RESULT:      -7.2      1.149      1.290
REMARK  Name = 
REMARK  4 active torsions:
REMARK  status: ('A' for Active; 'I' for Inactive)
REMARK    1  A    between atoms: C_2  and  C_3
REMARK    2  A    between atoms: C_2  and  C_16
REMARK    3  A    between atoms: C_3  and  N_4
REMARK    4  A    between atoms: N_6  and  C_7
REMARK                            x       y       z     vdW  Elec       q    Type
REMARK                         _______ _______ _______ _____ _____    ______ ____
ROOT
ATOM      1  N   UNL     1       5.644   4.706  18.236  0.00  0.00    +0.000 N 
ATOM      2  C   UNL     1       6.376   5.756  18.651  0.00  0.00    +0.000 A 
ATOM      3  N   UNL     1       7.064   6.220  17.603  0.00  0.00    +0.000 N 
ATOM      4  C   UNL     1       6.758   5.495  16.470  0.00  0.00    +0.000 A 
ATOM      5  C   UNL     1       7.192   5.613  15.151  0.00  0.00    +0.000 A 
ATOM      6  C   UNL     1       6.662   4.685  14.243  0.00  0.00    +0.000 A 
ATOM      7  C   UNL     1       5.744   3.694  14.648  0.00  0.00    +0.000 A 
ATOM      8  C   UNL     1       5.316   3.583  15.978  0.00  0.00    +0.000 A 
ATOM      9  C   UNL     1       5.845   4.511  16.871  0.00  0.00    +0.000 A 
ENDROOT
BRANCH   3  10
ATOM     10  C   UNL     1       7.964   7.337  17.693  0.00  0.00    +0.000 C 
ATOM     11  F   UNL     1       7.261   8.484  17.549  0.00  0.00    +0.000 F 
ATOM     12  F   UNL     1       8.521   7.364  18.924  0.00  0.00    +0.000 F 
ENDBRANCH   3  10
BRANCH   1  13
ATOM     13  C   UNL     1       4.796   3.895  19.127  0.00  0.00    +0.000 C 
BRANCH  13  15
ATOM     14  O   UNL     1       2.558   3.246  18.507  0.00  0.00    +0.000 OA
ATOM     15  C   UNL     1       3.315   4.145  18.871  0.00  0.00    +0.000 C 
BRANCH  15  16
ATOM     16  C   UNL     1       2.788   5.521  19.100  0.00  0.00    +0.000 A 
ATOM     17  C   UNL     1       2.249   5.897  20.337  0.00  0.00    +0.000 A 
ATOM     18  C   UNL     1       1.711   7.176  20.506  0.00  0.00    +0.000 A 
ATOM     19  C   UNL     1       1.712   8.077  19.442  0.00  0.00    +0.000 A 
ATOM     20 BR   UNL     1       0.915   9.775  19.660  0.00  0.00    +0.000 Br
ATOM     21  C   UNL     1       2.271   7.720  18.217  0.00  0.00    +0.000 A 
ATOM     22  C   UNL     1       2.807   6.440  18.042  0.00  0.00    +0.000 A 
ENDBRANCH  15  16
ENDBRANCH  13  15
ENDBRANCH   1  13
TORSDOF 4
ENDMDL
MODEL 8
REMARK VINA RESULT:      -7.0      3.606      6.331
REMARK  Name = 
REMARK  4 active torsions:
REMARK  status: ('A' for Active; 'I' for Inactive)
REMARK    1  A    between atoms: C_2  and  C_3
REMARK    2  A    between atoms: C_2  and  C_16
REMARK    3  A    between atoms: C_3  and  N_4
REMARK    4  A    between atoms: N_6  and  C_7
REMARK                            x       y       z     vdW  Elec       q    Type
REMARK                         _______ _______ _______ _____ _____    ______ ____
ROOT
ATOM      1  N   UNL     1       4.659   4.942  19.295  0.00  0.00    +0.000 N 
ATOM      2  C   UNL     1       4.258   6.178  18.945  0.00  0.00    +0.000 A 
ATOM      3  N   UNL     1       2.957   6.286  19.236  0.00  0.00    +0.000 N 
ATOM      4  C   UNL     1       2.497   5.124  19.819  0.00  0.00    +0.000 A 
ATOM      5  C   UNL     1       1.242   4.770  20.311  0.00  0.00    +0.000 A 
ATOM      6  C   UNL     1       1.133   3.478  20.847  0.00  0.00    +0.000 A 
ATOM      7  C   UNL     1       2.233   2.597  20.884  0.00  0.00    +0.000 A 
ATOM      8  C   UNL     1       3.490   2.964  20.384  0.00  0.00    +0.000 A 
ATOM      9  C   UNL     1       3.589   4.248  19.858  0.00  0.00    +0.000 A 
ENDROOT
BRANCH   3  10
ATOM     10  C   UNL     1       2.197   7.479  18.977  0.00  0.00    +0.000 C 
ATOM     11  F   UNL     1       1.943   8.103  20.150  0.00  0.00    +0.000 F 
ATOM     12  F   UNL     1       2.937   8.327  18.229  0.00  0.00    +0.000 F 
ENDBRANCH   3  10
BRANCH   1  13
ATOM     13  C   UNL     1       6.023   4.430  19.074  0.00  0.00    +0.000 C 
BRANCH  13  15
ATOM     14  O   UNL     1       7.516   6.118  18.218  0.00  0.00    +0.000 OA
ATOM     15  C   UNL     1       6.738   5.198  17.969  0.00  0.00    +0.000 C 
BRANCH  15  16
ATOM     16  C   UNL     1       6.490   4.786  16.559  0.00  0.00    +0.000 A 
ATOM     17  C   UNL     1       5.453   3.903  16.229  0.00  0.00    +0.000 A 
ATOM     18  C   UNL     1       5.280   3.489  14.906  0.00  0.00    +0.000 A 
ATOM     19  C   UNL     1       6.139   3.958  13.913  0.00  0.00    +0.000 A 
ATOM     20 BR   UNL     1       5.941   3.335  12.141  0.00  0.00    +0.000 Br
ATOM     21  C   UNL     1       7.155   4.858  14.226  0.00  0.00    +0.000 A 
ATOM     22  C   UNL     1       7.336   5.271  15.550  0.00  0.00    +0.000 A 
ENDBRANCH  15  16
ENDBRANCH  13  15
ENDBRANCH   1  13
TORSDOF 4
ENDMDL
MODEL 9
REMARK VINA RESULT:      -7.0      2.631      4.622
REMARK  Name = 
REMARK  4 active torsions:
REMARK  status: ('A' for Active; 'I' for Inactive)
REMARK    1  A    between atoms: C_2  and  C_3
REMARK    2  A    between atoms: C_2  and  C_16
REMARK    3  A    between atoms: C_3  and  N_4
REMARK    4  A    between atoms: N_6  and  C_7
REMARK                            x       y       z     vdW  Elec       q    Type
REMARK                         _______ _______ _______ _____ _____    ______ ____
ROOT
ATOM      1  N   UNL     1       3.226   5.722  18.911  0.00  0.00    +0.000 N 
ATOM      2  C   UNL     1       4.201   5.552  18.000  0.00  0.00    +0.000 A 
ATOM      3  N   UNL     1       4.094   4.313  17.508  0.00  0.00    +0.000 N 
ATOM      4  C   UNL     1       3.015   3.664  18.071  0.00  0.00    +0.000 A 
ATOM      5  C   UNL     1       2.491   2.391  17.864  0.00  0.00    +0.000 A 
ATOM      6  C   UNL     1       1.360   2.058  18.626  0.00  0.00    +0.000 A 
ATOM      7  C   UNL     1       0.794   2.966  19.544  0.00  0.00    +0.000 A 
ATOM      8  C   UNL     1       1.332   4.244  19.746  0.00  0.00    +0.000 A 
ATOM      9  C   UNL     1       2.450   4.566  18.982  0.00  0.00    +0.000 A 
ENDROOT
BRANCH   3  10
ATOM     10  C   UNL     1       4.992   3.788  16.515  0.00  0.00    +0.000 C 
ATOM     11  F   UNL     1       4.747   4.398  15.333  0.00  0.00    +0.000 F 
ATOM     12  F   UNL     1       6.264   4.086  16.861  0.00  0.00    +0.000 F 
ENDBRANCH   3  10
BRANCH   1  13
ATOM     13  C   UNL     1       3.056   6.947  19.711  0.00  0.00    +0.000 C 
BRANCH  13  15
ATOM     14  O   UNL     1       1.970   8.004  17.837  0.00  0.00    +0.000 OA
ATOM     15  C   UNL     1       2.073   7.911  19.059  0.00  0.00    +0.000 C 
BRANCH  15  16
ATOM     16  C   UNL     1       1.206   8.734  19.950  0.00  0.00    +0.000 A 
ATOM     17  C   UNL     1       0.557   9.882  19.476  0.00  0.00    +0.000 A 
ATOM     18  C   UNL     1      -0.204  10.665  20.348  0.00  0.00    +0.000 A 
ATOM     19  C   UNL     1      -0.317  10.303  21.689  0.00  0.00    +0.000 A 
ATOM     20 BR   UNL     1      -1.286  11.410  22.874  0.00  0.00    +0.000 Br
ATOM     21  C   UNL     1       0.302   9.148  22.163  0.00  0.00    +0.000 A 
ATOM     22  C   UNL     1       1.068   8.363  21.295  0.00  0.00    +0.000 A 
ENDBRANCH  15  16
ENDBRANCH  13  15
ENDBRANCH   1  13
TORSDOF 4
ENDMDL
