MODEL 1
REMARK VINA RESULT:      -6.9      0.000      0.000
REMARK  Name = 
REMARK  7 active torsions:
REMARK  status: ('A' for Active; 'I' for Inactive)
REMARK    1  A    between atoms: N_1  and  C_2
REMARK    2  A    between atoms: C_2  and  C_3
REMARK    3  A    between atoms: C_4  and  C_6
REMARK    4  A    between atoms: C_6  and  N_7
REMARK    5  A    between atoms: C_9  and  C_10
REMARK    6  A    between atoms: C_10  and  O_11
REMARK    7  A    between atoms: O_11  and  C_12
REMARK                            x       y       z     vdW  Elec       q    Type
REMARK                         _______ _______ _______ _____ _____    ______ ____
ROOT
ATOM      1  N   UNL     1       6.707   5.346  15.634  0.00  0.00    +0.000 N 
ATOM      2  C   UNL     1       6.875   4.696  16.798  0.00  0.00    +0.000 A 
ATOM      3  C   UNL     1       6.224   5.446  17.750  0.00  0.00    +0.000 A 
ATOM      4  N   UNL     1       5.678   6.521  17.145  0.00  0.00    +0.000 NA
ATOM      5  N   UNL     1       5.995   6.440  15.861  0.00  0.00    +0.000 NA
ENDROOT
BRANCH   1   6
ATOM      6  C   UNL     1       7.187   4.935  14.320  0.00  0.00    +0.000 C 
BRANCH   6   8
ATOM      7  C   UNL     1       6.445   3.472  12.481  0.00  0.00    +0.000 C 
ATOM      8  C   UNL     1       6.147   4.105  13.623  0.00  0.00    +0.000 C 
ATOM      9  F   UNL     1       4.909   3.996  14.175  0.00  0.00    +0.000 F 
BRANCH   7  10
ATOM     10  C   UNL     1       5.449   2.612  11.755  0.00  0.00    +0.000 C 
BRANCH  10  11
ATOM     11  N   UNL     1       6.055   1.340  11.371  0.00  0.00    +0.000 NA
ATOM     12  H   UNL     1       5.434   0.879  10.666  0.00  0.00    +0.000 HD
ATOM     13  H   UNL     1       6.982   1.509  10.917  0.00  0.00    +0.000 HD
ENDBRANCH  10  11
ENDBRANCH   7  10
ENDBRANCH   6   8
ENDBRANCH   1   6
BRANCH   3  14
ATOM     14  C   UNL     1       6.053   5.113  19.193  0.00  0.00    +0.000 C 
BRANCH  14  15
ATOM     15  O   UNL     1       5.399   3.905  19.348  0.00  0.00    +0.000 OA
BRANCH  15  16
ATOM     16  C   UNL     1       4.097   3.692  19.009  0.00  0.00    +0.000 A 
ATOM     17  C   UNL     1       3.706   2.687  18.096  0.00  0.00    +0.000 A 
ATOM     18  C   UNL     1       2.358   2.499  17.780  0.00  0.00    +0.000 A 
ATOM     19  C   UNL     1       1.383   3.310  18.359  0.00  0.00    +0.000 A 
ATOM     20  C   UNL     1       1.756   4.312  19.261  0.00  0.00    +0.000 A 
ATOM     21  C   UNL     1       3.107   4.504  19.586  0.00  0.00    +0.000 A 
ENDBRANCH  15  16
ENDBRANCH  14  15
ENDBRANCH   3  14
TORSDOF 7
ENDMDL
MODEL 2
REMARK VINA RESULT:      -6.9      1.154      1.682
REMARK  Name = 
REMARK  7 active torsions:
REMARK  status: ('A' for Active; 'I' for Inactive)
REMARK    1  A    between atoms: N_1  and  C_2
REMARK    2  A    between atoms: C_2  and  C_3
REMARK    3  A    between atoms: C_4  and  C_6
REMARK    4  A    between atoms: C_6  and  N_7
REMARK    5  A    between atoms: C_9  and  C_10
REMARK    6  A    between atoms: C_10  and  O_11
REMARK    7  A    between atoms: O_11  and  C_12
REMARK                            x       y       z     vdW  Elec       q    Type
REMARK                         _______ _______ _______ _____ _____    ______ ____
ROOT
ATOM      1  N   UNL     1       6.939   4.847  16.054  0.00  0.00    +0.000 N 
ATOM      2  C   UNL     1       5.828   5.130  16.754  0.00  0.00    +0.000 A 
ATOM      3  C   UNL     1       6.143   4.906  18.074  0.00  0.00    +0.000 A 
ATOM      4  N   UNL     1       7.428   4.502  18.143  0.00  0.00    +0.000 NA
ATOM      5  N   UNL     1       7.885   4.465  16.900  0.00  0.00    +0.000 NA
ENDROOT
BRANCH   1   6
ATOM      6  C   UNL     1       7.121   4.957  14.611  0.00  0.00    +0.000 C 
BRANCH   6   8
ATOM      7  C   UNL     1       6.304   3.850  12.566  0.00  0.00    +0.000 C 
ATOM      8  C   UNL     1       6.337   3.888  13.905  0.00  0.00    +0.000 C 
ATOM      9  F   UNL     1       5.679   2.954  14.643  0.00  0.00    +0.000 F 
BRANCH   7  10
ATOM     10  C   UNL     1       5.555   2.789  11.811  0.00  0.00    +0.000 C 
BRANCH  10  11
ATOM     11  N   UNL     1       6.408   1.625  11.581  0.00  0.00    +0.000 NA
ATOM     12  H   UNL     1       6.600   1.556  10.555  0.00  0.00    +0.000 HD
ATOM     13  H   UNL     1       7.323   1.751  12.071  0.00  0.00    +0.000 HD
ENDBRANCH  10  11
ENDBRANCH   7  10
ENDBRANCH   6   8
ENDBRANCH   1   6
BRANCH   3  14
ATOM     14  C   UNL     1       5.270   5.147  19.259  0.00  0.00    +0.000 C 
BRANCH  14  15
ATOM     15  O   UNL     1       4.740   3.961  19.732  0.00  0.00    +0.000 OA
BRANCH  15  16
ATOM     16  C   UNL     1       3.420   3.633  19.663  0.00  0.00    +0.000 A 
ATOM     17  C   UNL     1       2.459   4.164  20.553  0.00  0.00    +0.000 A 
ATOM     18  C   UNL     1       1.114   3.804  20.444  0.00  0.00    +0.000 A 
ATOM     19  C   UNL     1       0.706   2.909  19.456  0.00  0.00    +0.000 A 
ATOM     20  C   UNL     1       1.645   2.373  18.570  0.00  0.00    +0.000 A 
ATOM     21  C   UNL     1       2.998   2.731  18.672  0.00  0.00    +0.000 A 
ENDBRANCH  15  16
ENDBRANCH  14  15
ENDBRANCH   3  14
TORSDOF 7
ENDMDL
MODEL 3
REMARK VINA RESULT:      -6.9      1.331      1.559
REMARK  Name = 
REMARK  7 active torsions:
REMARK  status: ('A' for Active; 'I' for Inactive)
REMARK    1  A    between atoms: N_1  and  C_2
REMARK    2  A    between atoms: C_2  and  C_3
REMARK    3  A    between atoms: C_4  and  C_6
REMARK    4  A    between atoms: C_6  and  N_7
REMARK    5  A    between atoms: C_9  and  C_10
REMARK    6  A    between atoms: C_10  and  O_11
REMARK    7  A    between atoms: O_11  and  C_12
REMARK                            x       y       z     vdW  Elec       q    Type
REMARK                         _______ _______ _______ _____ _____    ______ ____
ROOT
ATOM      1  N   UNL     1       7.062   4.932  16.001  0.00  0.00    +0.000 N 
ATOM      2  C   UNL     1       6.090   5.399  16.802  0.00  0.00    +0.000 A 
ATOM      3  C   UNL     1       6.442   5.033  18.080  0.00  0.00    +0.000 A 
ATOM      4  N   UNL     1       7.612   4.365  18.025  0.00  0.00    +0.000 NA
ATOM      5  N   UNL     1       7.962   4.309  16.748  0.00  0.00    +0.000 NA
ENDROOT
BRANCH   1   6
ATOM      6  C   UNL     1       7.161   5.090  14.554  0.00  0.00    +0.000 C 
BRANCH   6   8
ATOM      7  C   UNL     1       6.429   3.646  12.697  0.00  0.00    +0.000 C 
ATOM      8  C   UNL     1       6.139   4.230  13.866  0.00  0.00    +0.000 C 
ATOM      9  F   UNL     1       4.928   4.042  14.456  0.00  0.00    +0.000 F 
BRANCH   7  10
ATOM     10  C   UNL     1       5.452   2.758  11.978  0.00  0.00    +0.000 C 
BRANCH  10  11
ATOM     11  N   UNL     1       6.124   1.564  11.471  0.00  0.00    +0.000 NA
ATOM     12  H   UNL     1       5.729   0.730  11.963  0.00  0.00    +0.000 HD
ATOM     13  H   UNL     1       5.932   1.453  10.449  0.00  0.00    +0.000 HD
ENDBRANCH  10  11
ENDBRANCH   7  10
ENDBRANCH   6   8
ENDBRANCH   1   6
BRANCH   3  14
ATOM     14  C   UNL     1       5.726   5.379  19.343  0.00  0.00    +0.000 C 
BRANCH  14  15
ATOM     15  O   UNL     1       4.380   5.584  19.108  0.00  0.00    +0.000 OA
BRANCH  15  16
ATOM     16  C   UNL     1       3.387   4.805  19.622  0.00  0.00    +0.000 A 
ATOM     17  C   UNL     1       3.522   3.407  19.770  0.00  0.00    +0.000 A 
ATOM     18  C   UNL     1       2.480   2.646  20.306  0.00  0.00    +0.000 A 
ATOM     19  C   UNL     1       1.291   3.261  20.695  0.00  0.00    +0.000 A 
ATOM     20  C   UNL     1       1.142   4.644  20.551  0.00  0.00    +0.000 A 
ATOM     21  C   UNL     1       2.185   5.415  20.016  0.00  0.00    +0.000 A 
ENDBRANCH  15  16
ENDBRANCH  14  15
ENDBRANCH   3  14
TORSDOF 7
ENDMDL
MODEL 4
REMARK VINA RESULT:      -6.7      3.344      6.639
REMARK  Name = 
REMARK  7 active torsions:
REMARK  status: ('A' for Active; 'I' for Inactive)
REMARK    1  A    between atoms: N_1  and  C_2
REMARK    2  A    between atoms: C_2  and  C_3
REMARK    3  A    between atoms: C_4  and  C_6
REMARK    4  A    between atoms: C_6  and  N_7
REMARK    5  A    between atoms: C_9  and  C_10
REMARK    6  A    between atoms: C_10  and  O_11
REMARK    7  A    between atoms: O_11  and  C_12
REMARK                            x       y       z     vdW  Elec       q    Type
REMARK                         _______ _______ _______ _____ _____    ______ ____
ROOT
ATOM      1  N   UNL     1       4.166   5.476  18.627  0.00  0.00    +0.000 N 
ATOM      2  C   UNL     1       4.848   5.302  17.483  0.00  0.00    +0.000 A 
ATOM      3  C   UNL     1       6.138   4.995  17.851  0.00  0.00    +0.000 A 
ATOM      4  N   UNL     1       6.204   4.984  19.198  0.00  0.00    +0.000 NA
ATOM      5  N   UNL     1       4.995   5.290  19.644  0.00  0.00    +0.000 NA
ENDROOT
BRANCH   1   6
ATOM      6  C   UNL     1       2.749   5.789  18.767  0.00  0.00    +0.000 C 
BRANCH   6   8
ATOM      7  C   UNL     1       1.916   3.776  19.920  0.00  0.00    +0.000 C 
ATOM      8  C   UNL     1       2.177   5.089  19.967  0.00  0.00    +0.000 C 
ATOM      9  F   UNL     1       1.946   5.803  21.101  0.00  0.00    +0.000 F 
BRANCH   7  10
ATOM     10  C   UNL     1       1.366   3.023  21.098  0.00  0.00    +0.000 C 
BRANCH  10  11
ATOM     11  N   UNL     1       2.437   2.680  22.031  0.00  0.00    +0.000 NA
ATOM     12  H   UNL     1       2.754   3.558  22.505  0.00  0.00    +0.000 HD
ATOM     13  H   UNL     1       2.075   2.031  22.767  0.00  0.00    +0.000 HD
ENDBRANCH  10  11
ENDBRANCH   7  10
ENDBRANCH   6   8
ENDBRANCH   1   6
BRANCH   3  14
ATOM     14  C   UNL     1       7.269   4.638  16.948  0.00  0.00    +0.000 C 
BRANCH  14  15
ATOM     15  O   UNL     1       7.245   5.406  15.798  0.00  0.00    +0.000 OA
BRANCH  15  16
ATOM     16  C   UNL     1       7.038   4.905  14.549  0.00  0.00    +0.000 A 
ATOM     17  C   UNL     1       6.059   3.921  14.280  0.00  0.00    +0.000 A 
ATOM     18  C   UNL     1       5.876   3.437  12.983  0.00  0.00    +0.000 A 
ATOM     19  C   UNL     1       6.664   3.917  11.938  0.00  0.00    +0.000 A 
ATOM     20  C   UNL     1       7.639   4.888  12.189  0.00  0.00    +0.000 A 
ATOM     21  C   UNL     1       7.827   5.381  13.489  0.00  0.00    +0.000 A 
ENDBRANCH  15  16
ENDBRANCH  14  15
ENDBRANCH   3  14
TORSDOF 7
ENDMDL
MODEL 5
REMARK VINA RESULT:      -6.7      1.882      2.308
REMARK  Name = 
REMARK  7 active torsions:
REMARK  status: ('A' for Active; 'I' for Inactive)
REMARK    1  A    between atoms: N_1  and  C_2
REMARK    2  A    between atoms: C_2  and  C_3
REMARK    3  A    between atoms: C_4  and  C_6
REMARK    4  A    between atoms: C_6  and  N_7
REMARK    5  A    between atoms: C_9  and  C_10
REMARK    6  A    between atoms: C_10  and  O_11
REMARK    7  A    between atoms: O_11  and  C_12
REMARK                            x       y       z     vdW  Elec       q    Type
REMARK                         _______ _______ _______ _____ _____    ______ ____
ROOT
ATOM      1  N   UNL     1       6.559   4.175  13.675  0.00  0.00    +0.000 N 
ATOM      2  C   UNL     1       5.933   3.538  14.679  0.00  0.00    +0.000 A 
ATOM      3  C   UNL     1       5.937   4.408  15.744  0.00  0.00    +0.000 A 
ATOM      4  N   UNL     1       6.555   5.545  15.362  0.00  0.00    +0.000 NA
ATOM      5  N   UNL     1       6.932   5.372  14.103  0.00  0.00    +0.000 NA
ENDROOT
BRANCH   1   6
ATOM      6  C   UNL     1       6.784   3.678  12.323  0.00  0.00    +0.000 C 
BRANCH   6   8
ATOM      7  C   UNL     1       4.521   3.763  11.349  0.00  0.00    +0.000 C 
ATOM      8  C   UNL     1       5.540   3.018  11.798  0.00  0.00    +0.000 C 
ATOM      9  F   UNL     1       5.473   1.661  11.770  0.00  0.00    +0.000 F 
BRANCH   7  10
ATOM     10  C   UNL     1       3.265   3.154  10.793  0.00  0.00    +0.000 C 
BRANCH  10  11
ATOM     11  N   UNL     1       2.978   3.695   9.467  0.00  0.00    +0.000 NA
ATOM     12  H   UNL     1       2.035   4.148   9.493  0.00  0.00    +0.000 HD
ATOM     13  H   UNL     1       3.680   4.432   9.222  0.00  0.00    +0.000 HD
ENDBRANCH  10  11
ENDBRANCH   7  10
ENDBRANCH   6   8
ENDBRANCH   1   6
BRANCH   3  14
ATOM     14  C   UNL     1       5.298   4.202  17.075  0.00  0.00    +0.000 C 
BRANCH  14  15
ATOM     15  O   UNL     1       3.988   4.645  17.068  0.00  0.00    +0.000 OA
BRANCH  15  16
ATOM     16  C   UNL     1       3.000   4.121  17.846  0.00  0.00    +0.000 A 
ATOM     17  C   UNL     1       2.480   2.824  17.637  0.00  0.00    +0.000 A 
ATOM     18  C   UNL     1       1.470   2.322  18.461  0.00  0.00    +0.000 A 
ATOM     19  C   UNL     1       0.959   3.102  19.497  0.00  0.00    +0.000 A 
ATOM     20  C   UNL     1       1.462   4.389  19.714  0.00  0.00    +0.000 A 
ATOM     21  C   UNL     1       2.478   4.899  18.892  0.00  0.00    +0.000 A 
ENDBRANCH  15  16
ENDBRANCH  14  15
ENDBRANCH   3  14
TORSDOF 7
ENDMDL
MODEL 6
REMARK VINA RESULT:      -6.6      1.655      2.202
REMARK  Name = 
REMARK  7 active torsions:
REMARK  status: ('A' for Active; 'I' for Inactive)
REMARK    1  A    between atoms: N_1  and  C_2
REMARK    2  A    between atoms: C_2  and  C_3
REMARK    3  A    between atoms: C_4  and  C_6
REMARK    4  A    between atoms: C_6  and  N_7
REMARK    5  A    between atoms: C_9  and  C_10
REMARK    6  A    between atoms: C_10  and  O_11
REMARK    7  A    between atoms: O_11  and  C_12
REMARK                            x       y       z     vdW  Elec       q    Type
REMARK                         _______ _______ _______ _____ _____    ______ ____
ROOT
ATOM      1  N   UNL     1       6.135   4.480  14.231  0.00  0.00    +0.000 N 
ATOM      2  C   UNL     1       5.965   4.019  15.482  0.00  0.00    +0.000 A 
ATOM      3  C   UNL     1       6.888   4.680  16.259  0.00  0.00    +0.000 A 
ATOM      4  N   UNL     1       7.584   5.523  15.469  0.00  0.00    +0.000 NA
ATOM      5  N   UNL     1       7.113   5.374  14.240  0.00  0.00    +0.000 NA
ENDROOT
BRANCH   1   6
ATOM      6  C   UNL     1       5.371   4.106  13.046  0.00  0.00    +0.000 C 
BRANCH   6   8
ATOM      7  C   UNL     1       5.785   1.986  11.860  0.00  0.00    +0.000 C 
ATOM      8  C   UNL     1       6.198   3.226  12.152  0.00  0.00    +0.000 C 
ATOM      9  F   UNL     1       7.357   3.712  11.633  0.00  0.00    +0.000 F 
BRANCH   7  10
ATOM     10  C   UNL     1       6.561   1.073  10.953  0.00  0.00    +0.000 C 
BRANCH  10  11
ATOM     11  N   UNL     1       6.195  -0.320  11.194  0.00  0.00    +0.000 NA
ATOM     12  H   UNL     1       5.216  -0.466  10.855  0.00  0.00    +0.000 HD
ATOM     13  H   UNL     1       6.821  -0.954  10.646  0.00  0.00    +0.000 HD
ENDBRANCH  10  11
ENDBRANCH   7  10
ENDBRANCH   6   8
ENDBRANCH   1   6
BRANCH   3  14
ATOM     14  C   UNL     1       7.056   4.577  17.737  0.00  0.00    +0.000 C 
BRANCH  14  15
ATOM     15  O   UNL     1       6.187   5.428  18.394  0.00  0.00    +0.000 OA
BRANCH  15  16
ATOM     16  C   UNL     1       4.854   5.192  18.543  0.00  0.00    +0.000 A 
ATOM     17  C   UNL     1       3.868   6.046  18.001  0.00  0.00    +0.000 A 
ATOM     18  C   UNL     1       2.511   5.764  18.174  0.00  0.00    +0.000 A 
ATOM     19  C   UNL     1       2.115   4.636  18.891  0.00  0.00    +0.000 A 
ATOM     20  C   UNL     1       3.080   3.783  19.437  0.00  0.00    +0.000 A 
ATOM     21  C   UNL     1       4.445   4.058  19.265  0.00  0.00    +0.000 A 
ENDBRANCH  15  16
ENDBRANCH  14  15
ENDBRANCH   3  14
TORSDOF 7
ENDMDL
MODEL 7
REMARK VINA RESULT:      -6.6      3.088      6.515
REMARK  Name = 
REMARK  7 active torsions:
REMARK  status: ('A' for Active; 'I' for Inactive)
REMARK    1  A    between atoms: N_1  and  C_2
REMARK    2  A    between atoms: C_2  and  C_3
REMARK    3  A    between atoms: C_4  and  C_6
REMARK    4  A    between atoms: C_6  and  N_7
REMARK    5  A    between atoms: C_9  and  C_10
REMARK    6  A    between atoms: C_10  and  O_11
REMARK    7  A    between atoms: O_11  and  C_12
REMARK                            x       y       z     vdW  Elec       q    Type
REMARK                         _______ _______ _______ _____ _____    ______ ____
ROOT
ATOM      1  N   UNL     1       4.516   5.645  18.771  0.00  0.00    +0.000 N 
ATOM      2  C   UNL     1       5.069   5.439  17.564  0.00  0.00    +0.000 A 
ATOM      3  C   UNL     1       6.360   5.029  17.802  0.00  0.00    +0.000 A 
ATOM      4  N   UNL     1       6.556   4.990  19.135  0.00  0.00    +0.000 NA
ATOM      5  N   UNL     1       5.422   5.379  19.701  0.00  0.00    +0.000 NA
ENDROOT
BRANCH   1   6
ATOM      6  C   UNL     1       3.147   6.061  19.051  0.00  0.00    +0.000 C 
BRANCH   6   8
ATOM      7  C   UNL     1       2.202   4.257  20.439  0.00  0.00    +0.000 C 
ATOM      8  C   UNL     1       2.266   4.859  19.244  0.00  0.00    +0.000 C 
ATOM      9  F   UNL     1       1.528   4.406  18.196  0.00  0.00    +0.000 F 
BRANCH   7  10
ATOM     10  C   UNL     1       1.320   3.066  20.691  0.00  0.00    +0.000 C 
BRANCH  10  11
ATOM     11  N   UNL     1       1.513   2.567  22.050  0.00  0.00    +0.000 NA
ATOM     12  H   UNL     1       1.893   1.593  21.992  0.00  0.00    +0.000 HD
ATOM     13  H   UNL     1       2.217   3.156  22.551  0.00  0.00    +0.000 HD
ENDBRANCH  10  11
ENDBRANCH   7  10
ENDBRANCH   6   8
ENDBRANCH   1   6
BRANCH   3  14
ATOM     14  C   UNL     1       7.368   4.603  16.789  0.00  0.00    +0.000 C 
BRANCH  14  15
ATOM     15  O   UNL     1       7.279   5.377  15.647  0.00  0.00    +0.000 OA
BRANCH  15  16
ATOM     16  C   UNL     1       7.051   4.876  14.401  0.00  0.00    +0.000 A 
ATOM     17  C   UNL     1       7.792   5.289  13.271  0.00  0.00    +0.000 A 
ATOM     18  C   UNL     1       7.528   4.746  12.011  0.00  0.00    +0.000 A 
ATOM     19  C   UNL     1       6.524   3.792  11.855  0.00  0.00    +0.000 A 
ATOM     20  C   UNL     1       5.781   3.376  12.964  0.00  0.00    +0.000 A 
ATOM     21  C   UNL     1       6.041   3.914  14.233  0.00  0.00    +0.000 A 
ENDBRANCH  15  16
ENDBRANCH  14  15
ENDBRANCH   3  14
TORSDOF 7
ENDMDL
MODEL 8
REMARK VINA RESULT:      -6.6      1.544      2.071
REMARK  Name = 
REMARK  7 active torsions:
REMARK  status: ('A' for Active; 'I' for Inactive)
REMARK    1  A    between atoms: N_1  and  C_2
REMARK    2  A    between atoms: C_2  and  C_3
REMARK    3  A    between atoms: C_4  and  C_6
REMARK    4  A    between atoms: C_6  and  N_7
REMARK    5  A    between atoms: C_9  and  C_10
REMARK    6  A    between atoms: C_10  and  O_11
REMARK    7  A    between atoms: O_11  and  C_12
REMARK                            x       y       z     vdW  Elec       q    Type
REMARK                         _______ _______ _______ _____ _____    ______ ____
ROOT
ATOM      1  N   UNL     1       6.739   4.676  14.294  0.00  0.00    +0.000 N 
ATOM      2  C   UNL     1       5.580   4.724  14.972  0.00  0.00    +0.000 A 
ATOM      3  C   UNL     1       5.921   4.836  16.300  0.00  0.00    +0.000 A 
ATOM      4  N   UNL     1       7.266   4.860  16.394  0.00  0.00    +0.000 NA
ATOM      5  N   UNL     1       7.738   4.751  15.161  0.00  0.00    +0.000 NA
ENDROOT
BRANCH   1   6
ATOM      6  C   UNL     1       6.909   4.586  12.848  0.00  0.00    +0.000 C 
BRANCH   6   8
ATOM      7  C   UNL     1       6.549   2.408  11.752  0.00  0.00    +0.000 C 
ATOM      8  C   UNL     1       6.017   3.516  12.285  0.00  0.00    +0.000 C 
ATOM      9  F   UNL     1       4.669   3.682  12.340  0.00  0.00    +0.000 F 
BRANCH   7  10
ATOM     10  C   UNL     1       5.703   1.298  11.197  0.00  0.00    +0.000 C 
BRANCH  10  11
ATOM     11  N   UNL     1       6.420   0.027  11.260  0.00  0.00    +0.000 NA
ATOM     12  H   UNL     1       6.130  -0.556  10.441  0.00  0.00    +0.000 HD
ATOM     13  H   UNL     1       7.450   0.194  11.186  0.00  0.00    +0.000 HD
ENDBRANCH  10  11
ENDBRANCH   7  10
ENDBRANCH   6   8
ENDBRANCH   1   6
BRANCH   3  14
ATOM     14  C   UNL     1       4.992   5.000  17.455  0.00  0.00    +0.000 C 
BRANCH  14  15
ATOM     15  O   UNL     1       3.743   4.485  17.162  0.00  0.00    +0.000 OA
BRANCH  15  16
ATOM     16  C   UNL     1       2.808   4.169  18.100  0.00  0.00    +0.000 A 
ATOM     17  C   UNL     1       2.597   4.955  19.255  0.00  0.00    +0.000 A 
ATOM     18  C   UNL     1       1.624   4.596  20.191  0.00  0.00    +0.000 A 
ATOM     19  C   UNL     1       0.852   3.452  19.996  0.00  0.00    +0.000 A 
ATOM     20  C   UNL     1       1.052   2.662  18.859  0.00  0.00    +0.000 A 
ATOM     21  C   UNL     1       2.026   3.017  17.914  0.00  0.00    +0.000 A 
ENDBRANCH  15  16
ENDBRANCH  14  15
ENDBRANCH   3  14
TORSDOF 7
ENDMDL
MODEL 9
REMARK VINA RESULT:      -6.6      1.693      2.201
REMARK  Name = 
REMARK  7 active torsions:
REMARK  status: ('A' for Active; 'I' for Inactive)
REMARK    1  A    between atoms: N_1  and  C_2
REMARK    2  A    between atoms: C_2  and  C_3
REMARK    3  A    between atoms: C_4  and  C_6
REMARK    4  A    between atoms: C_6  and  N_7
REMARK    5  A    between atoms: C_9  and  C_10
REMARK    6  A    between atoms: C_10  and  O_11
REMARK    7  A    between atoms: O_11  and  C_12
REMARK                            x       y       z     vdW  Elec       q    Type
REMARK                         _______ _______ _______ _____ _____    ______ ____
ROOT
ATOM      1  N   UNL     1       6.279   5.490  16.441  0.00  0.00    +0.000 N 
ATOM      2  C   UNL     1       5.021   5.283  16.864  0.00  0.00    +0.000 A 
ATOM      3  C   UNL     1       4.580   6.491  17.353  0.00  0.00    +0.000 A 
ATOM      4  N   UNL     1       5.571   7.395  17.209  0.00  0.00    +0.000 NA
ATOM      5  N   UNL     1       6.595   6.758  16.662  0.00  0.00    +0.000 NA
ENDROOT
BRANCH   1   6
ATOM      6  C   UNL     1       7.167   4.517  15.814  0.00  0.00    +0.000 C 
BRANCH   6   8
ATOM      7  C   UNL     1       5.991   3.614  13.845  0.00  0.00    +0.000 C 
ATOM      8  C   UNL     1       6.909   4.457  14.335  0.00  0.00    +0.000 C 
ATOM      9  F   UNL     1       7.610   5.278  13.508  0.00  0.00    +0.000 F 
BRANCH   7  10
ATOM     10  C   UNL     1       5.678   3.531  12.377  0.00  0.00    +0.000 C 
BRANCH  10  11
ATOM     11  N   UNL     1       6.123   2.251  11.832  0.00  0.00    +0.000 NA
ATOM     12  H   UNL     1       6.335   1.609  12.631  0.00  0.00    +0.000 HD
ATOM     13  H   UNL     1       5.356   1.817  11.268  0.00  0.00    +0.000 HD
ENDBRANCH  10  11
ENDBRANCH   7  10
ENDBRANCH   6   8
ENDBRANCH   1   6
BRANCH   3  14
ATOM     14  C   UNL     1       3.219   6.807  17.872  0.00  0.00    +0.000 C 
BRANCH  14  15
ATOM     15  O   UNL     1       3.065   6.349  19.167  0.00  0.00    +0.000 OA
BRANCH  15  16
ATOM     16  C   UNL     1       2.402   5.206  19.499  0.00  0.00    +0.000 A 
ATOM     17  C   UNL     1       2.313   4.742  20.831  0.00  0.00    +0.000 A 
ATOM     18  C   UNL     1       1.620   3.566  21.128  0.00  0.00    +0.000 A 
ATOM     19  C   UNL     1       1.013   2.833  20.109  0.00  0.00    +0.000 A 
ATOM     20  C   UNL     1       1.096   3.279  18.786  0.00  0.00    +0.000 A 
ATOM     21  C   UNL     1       1.788   4.460  18.480  0.00  0.00    +0.000 A 
ENDBRANCH  15  16
ENDBRANCH  14  15
ENDBRANCH   3  14
TORSDOF 7
ENDMDL
