MODEL 1
REMARK VINA RESULT:      -8.5      0.000      0.000
REMARK  Name = 
REMARK  9 active torsions:
REMARK  status: ('A' for Active; 'I' for Inactive)
REMARK    1  A    between atoms: C_1  and  O_2
REMARK    2  A    between atoms: O_2  and  C_3
REMARK    3  A    between atoms: C_6  and  N_7
REMARK    4  A    between atoms: N_8  and  C_9
REMARK    5  A    between atoms: C_12  and  N_13
REMARK    6  A    between atoms: N_13  and  C_14
REMARK    7  A    between atoms: C_14  and  C_15
REMARK    8  A    between atoms: C_15  and  C_16
REMARK    9  A    between atoms: C_16  and  N_17
REMARK                            x       y       z     vdW  Elec       q    Type
REMARK                         _______ _______ _______ _____ _____    ______ ____
ROOT
ATOM      1  C   UNL     1       2.382   6.378  19.486  0.00  0.00    +0.000 A 
ATOM      2  C   UNL     1       3.140   6.948  18.462  0.00  0.00    +0.000 A 
ATOM      3  C   UNL     1       3.747   6.150  17.509  0.00  0.00    +0.000 A 
ATOM      4  C   UNL     1       3.639   4.754  17.549  0.00  0.00    +0.000 A 
ATOM      5  C   UNL     1       2.776   4.167  18.520  0.00  0.00    +0.000 A 
ATOM      6  C   UNL     1       2.167   4.981  19.496  0.00  0.00    +0.000 A 
ATOM      7  C   UNL     1       1.266   4.440  20.574  0.00  0.00    +0.000 C 
ATOM      8  C   UNL     1       1.027   2.942  20.640  0.00  0.00    +0.000 C 
ATOM      9  C   UNL     1       1.595   2.073  19.535  0.00  0.00    +0.000 C 
ATOM     10  C   UNL     1       2.525   2.686  18.490  0.00  0.00    +0.000 C 
ENDROOT
BRANCH   1  12
ATOM     11  N   UNL     1       1.815   8.408  20.134  0.00  0.00    +0.000 NA
ATOM     12  N   UNL     1       1.736   7.198  20.433  0.00  0.00    +0.000 NA
BRANCH  11  16
ATOM     13  C   UNL     1      -0.815  10.783  22.412  0.00  0.00    +0.000 A 
ATOM     14  C   UNL     1      -0.086   9.746  22.999  0.00  0.00    +0.000 A 
ATOM     15  C   UNL     1       0.778   8.966  22.229  0.00  0.00    +0.000 A 
ATOM     16  C   UNL     1       0.901   9.191  20.858  0.00  0.00    +0.000 A 
ATOM     17  C   UNL     1       0.171  10.240  20.277  0.00  0.00    +0.000 A 
ATOM     18  C   UNL     1      -0.690  11.026  21.048  0.00  0.00    +0.000 A 
BRANCH  13  20
ATOM     19  C   UNL     1      -1.626  12.886  23.111  0.00  0.00    +0.000 C 
ATOM     20  O   UNL     1      -1.636  11.472  23.263  0.00  0.00    +0.000 OA
ENDBRANCH  13  20
ENDBRANCH  11  16
ENDBRANCH   1  12
BRANCH   4  21
ATOM     21  N   UNL     1       4.321   3.955  16.588  0.00  0.00    +0.000 N 
ATOM     22  H   UNL     1       3.745   3.130  16.411  0.00  0.00    +0.000 HD
BRANCH  21  23
ATOM     23  C   UNL     1       4.665   4.654  15.337  0.00  0.00    +0.000 C 
BRANCH  23  24
ATOM     24  C   UNL     1       6.024   4.266  14.771  0.00  0.00    +0.000 C 
BRANCH  24  25
ATOM     25  C   UNL     1       7.090   4.122  15.855  0.00  0.00    +0.000 C 
BRANCH  25  26
ATOM     26  N   UNL     1       6.971   5.111  16.947  0.00  0.00    +0.000 NA
ATOM     27  C   UNL     1       7.786   4.731  18.114  0.00  0.00    +0.000 C 
ATOM     28  C   UNL     1       7.760   5.787  19.220  0.00  0.00    +0.000 C 
ATOM     29  C   UNL     1       8.177   7.150  18.691  0.00  0.00    +0.000 C 
ATOM     30  C   UNL     1       7.320   7.525  17.492  0.00  0.00    +0.000 C 
ATOM     31  C   UNL     1       7.366   6.434  16.425  0.00  0.00    +0.000 C 
ENDBRANCH  25  26
ENDBRANCH  24  25
ENDBRANCH  23  24
ENDBRANCH  21  23
ENDBRANCH   4  21
TORSDOF 8
ENDMDL
MODEL 2
REMARK VINA RESULT:      -8.4      0.458      1.003
REMARK  Name = 
REMARK  9 active torsions:
REMARK  status: ('A' for Active; 'I' for Inactive)
REMARK    1  A    between atoms: C_1  and  O_2
REMARK    2  A    between atoms: O_2  and  C_3
REMARK    3  A    between atoms: C_6  and  N_7
REMARK    4  A    between atoms: N_8  and  C_9
REMARK    5  A    between atoms: C_12  and  N_13
REMARK    6  A    between atoms: N_13  and  C_14
REMARK    7  A    between atoms: C_14  and  C_15
REMARK    8  A    between atoms: C_15  and  C_16
REMARK    9  A    between atoms: C_16  and  N_17
REMARK                            x       y       z     vdW  Elec       q    Type
REMARK                         _______ _______ _______ _____ _____    ______ ____
ROOT
ATOM      1  C   UNL     1       2.460   6.357  19.521  0.00  0.00    +0.000 A 
ATOM      2  C   UNL     1       3.185   6.861  18.441  0.00  0.00    +0.000 A 
ATOM      3  C   UNL     1       3.733   6.006  17.501  0.00  0.00    +0.000 A 
ATOM      4  C   UNL     1       3.597   4.617  17.611  0.00  0.00    +0.000 A 
ATOM      5  C   UNL     1       2.764   4.095  18.643  0.00  0.00    +0.000 A 
ATOM      6  C   UNL     1       2.215   4.967  19.605  0.00  0.00    +0.000 A 
ATOM      7  C   UNL     1       1.349   4.497  20.744  0.00  0.00    +0.000 C 
ATOM      8  C   UNL     1       1.082   3.010  20.890  0.00  0.00    +0.000 C 
ATOM      9  C   UNL     1       1.582   2.078  19.804  0.00  0.00    +0.000 C 
ATOM     10  C   UNL     1       2.480   2.620  18.694  0.00  0.00    +0.000 C 
ENDROOT
BRANCH   1  12
ATOM     11  N   UNL     1       1.769   8.394  20.004  0.00  0.00    +0.000 NA
ATOM     12  N   UNL     1       1.873   7.234  20.454  0.00  0.00    +0.000 NA
BRANCH  11  16
ATOM     13  C   UNL     1      -0.757  10.764  22.401  0.00  0.00    +0.000 A 
ATOM     14  C   UNL     1      -0.094   9.654  22.928  0.00  0.00    +0.000 A 
ATOM     15  C   UNL     1       0.737   8.877  22.119  0.00  0.00    +0.000 A 
ATOM     16  C   UNL     1       0.890   9.180  20.766  0.00  0.00    +0.000 A 
ATOM     17  C   UNL     1       0.225  10.302  20.245  0.00  0.00    +0.000 A 
ATOM     18  C   UNL     1      -0.601  11.085  21.057  0.00  0.00    +0.000 A 
BRANCH  13  20
ATOM     19  C   UNL     1      -1.615  12.851  23.093  0.00  0.00    +0.000 C 
ATOM     20  O   UNL     1      -1.550  11.444  23.286  0.00  0.00    +0.000 OA
ENDBRANCH  13  20
ENDBRANCH  11  16
ENDBRANCH   1  12
BRANCH   4  21
ATOM     21  N   UNL     1       4.220   3.758  16.661  0.00  0.00    +0.000 N 
ATOM     22  H   UNL     1       3.588   2.972  16.497  0.00  0.00    +0.000 HD
BRANCH  21  23
ATOM     23  C   UNL     1       4.609   4.414  15.399  0.00  0.00    +0.000 C 
BRANCH  23  24
ATOM     24  C   UNL     1       5.993   4.018  14.903  0.00  0.00    +0.000 C 
BRANCH  24  25
ATOM     25  C   UNL     1       6.938   5.213  14.792  0.00  0.00    +0.000 C 
BRANCH  25  26
ATOM     26  N   UNL     1       7.594   5.578  16.065  0.00  0.00    +0.000 NA
ATOM     27  C   UNL     1       7.032   6.818  16.628  0.00  0.00    +0.000 C 
ATOM     28  C   UNL     1       7.624   7.166  17.995  0.00  0.00    +0.000 C 
ATOM     29  C   UNL     1       7.469   6.011  18.972  0.00  0.00    +0.000 C 
ATOM     30  C   UNL     1       8.060   4.743  18.374  0.00  0.00    +0.000 C 
ATOM     31  C   UNL     1       7.451   4.450  17.005  0.00  0.00    +0.000 C 
ENDBRANCH  25  26
ENDBRANCH  24  25
ENDBRANCH  23  24
ENDBRANCH  21  23
ENDBRANCH   4  21
TORSDOF 8
ENDMDL
MODEL 3
REMARK VINA RESULT:      -8.1      0.722      1.446
REMARK  Name = 
REMARK  9 active torsions:
REMARK  status: ('A' for Active; 'I' for Inactive)
REMARK    1  A    between atoms: C_1  and  O_2
REMARK    2  A    between atoms: O_2  and  C_3
REMARK    3  A    between atoms: C_6  and  N_7
REMARK    4  A    between atoms: N_8  and  C_9
REMARK    5  A    between atoms: C_12  and  N_13
REMARK    6  A    between atoms: N_13  and  C_14
REMARK    7  A    between atoms: C_14  and  C_15
REMARK    8  A    between atoms: C_15  and  C_16
REMARK    9  A    between atoms: C_16  and  N_17
REMARK                            x       y       z     vdW  Elec       q    Type
REMARK                         _______ _______ _______ _____ _____    ______ ____
ROOT
ATOM      1  C   UNL     1       2.526   6.437  19.246  0.00  0.00    +0.000 A 
ATOM      2  C   UNL     1       3.303   6.827  18.154  0.00  0.00    +0.000 A 
ATOM      3  C   UNL     1       3.878   5.879  17.326  0.00  0.00    +0.000 A 
ATOM      4  C   UNL     1       3.719   4.509  17.564  0.00  0.00    +0.000 A 
ATOM      5  C   UNL     1       2.837   4.097  18.605  0.00  0.00    +0.000 A 
ATOM      6  C   UNL     1       2.259   5.064  19.454  0.00  0.00    +0.000 A 
ATOM      7  C   UNL     1       1.341   4.715  20.594  0.00  0.00    +0.000 C 
ATOM      8  C   UNL     1       1.048   3.251  20.871  0.00  0.00    +0.000 C 
ATOM      9  C   UNL     1       1.581   2.214  19.903  0.00  0.00    +0.000 C 
ATOM     10  C   UNL     1       2.531   2.637  18.785  0.00  0.00    +0.000 C 
ENDROOT
BRANCH   1  12
ATOM     11  N   UNL     1       1.861   8.522  19.508  0.00  0.00    +0.000 NA
ATOM     12  N   UNL     1       1.912   7.406  20.064  0.00  0.00    +0.000 NA
BRANCH  11  16
ATOM     13  C   UNL     1      -0.952  11.067  21.341  0.00  0.00    +0.000 A 
ATOM     14  C   UNL     1      -0.859  10.976  19.951  0.00  0.00    +0.000 A 
ATOM     15  C   UNL     1       0.082  10.130  19.360  0.00  0.00    +0.000 A 
ATOM     16  C   UNL     1       0.962   9.391  20.148  0.00  0.00    +0.000 A 
ATOM     17  C   UNL     1       0.858   9.482  21.546  0.00  0.00    +0.000 A 
ATOM     18  C   UNL     1      -0.088  10.323  22.139  0.00  0.00    +0.000 A 
BRANCH  13  20
ATOM     19  C   UNL     1      -2.194  11.836  23.195  0.00  0.00    +0.000 C 
ATOM     20  O   UNL     1      -1.903  11.934  21.807  0.00  0.00    +0.000 OA
ENDBRANCH  13  20
ENDBRANCH  11  16
ENDBRANCH   1  12
BRANCH   4  21
ATOM     21  N   UNL     1       4.369   3.557  16.729  0.00  0.00    +0.000 N 
ATOM     22  H   UNL     1       3.784   2.719  16.705  0.00  0.00    +0.000 HD
BRANCH  21  23
ATOM     23  C   UNL     1       4.683   4.039  15.371  0.00  0.00    +0.000 C 
BRANCH  23  24
ATOM     24  C   UNL     1       6.163   3.970  15.022  0.00  0.00    +0.000 C 
BRANCH  24  25
ATOM     25  C   UNL     1       6.824   5.347  15.002  0.00  0.00    +0.000 C 
BRANCH  25  26
ATOM     26  N   UNL     1       7.602   5.655  16.220  0.00  0.00    +0.000 NA
ATOM     27  C   UNL     1       7.145   6.904  16.854  0.00  0.00    +0.000 C 
ATOM     28  C   UNL     1       7.865   7.195  18.171  0.00  0.00    +0.000 C 
ATOM     29  C   UNL     1       7.744   6.025  19.136  0.00  0.00    +0.000 C 
ATOM     30  C   UNL     1       8.227   4.748  18.464  0.00  0.00    +0.000 C 
ATOM     31  C   UNL     1       7.491   4.512  17.147  0.00  0.00    +0.000 C 
ENDBRANCH  25  26
ENDBRANCH  24  25
ENDBRANCH  23  24
ENDBRANCH  21  23
ENDBRANCH   4  21
TORSDOF 8
ENDMDL
MODEL 4
REMARK VINA RESULT:      -7.8      0.703      1.126
REMARK  Name = 
REMARK  9 active torsions:
REMARK  status: ('A' for Active; 'I' for Inactive)
REMARK    1  A    between atoms: C_1  and  O_2
REMARK    2  A    between atoms: O_2  and  C_3
REMARK    3  A    between atoms: C_6  and  N_7
REMARK    4  A    between atoms: N_8  and  C_9
REMARK    5  A    between atoms: C_12  and  N_13
REMARK    6  A    between atoms: N_13  and  C_14
REMARK    7  A    between atoms: C_14  and  C_15
REMARK    8  A    between atoms: C_15  and  C_16
REMARK    9  A    between atoms: C_16  and  N_17
REMARK                            x       y       z     vdW  Elec       q    Type
REMARK                         _______ _______ _______ _____ _____    ______ ____
ROOT
ATOM      1  C   UNL     1       2.509   6.709  19.205  0.00  0.00    +0.000 A 
ATOM      2  C   UNL     1       3.240   7.142  18.098  0.00  0.00    +0.000 A 
ATOM      3  C   UNL     1       3.830   6.227  17.243  0.00  0.00    +0.000 A 
ATOM      4  C   UNL     1       3.732   4.849  17.469  0.00  0.00    +0.000 A 
ATOM      5  C   UNL     1       2.896   4.391  18.528  0.00  0.00    +0.000 A 
ATOM      6  C   UNL     1       2.303   5.325  19.403  0.00  0.00    +0.000 A 
ATOM      7  C   UNL     1       1.431   4.926  20.563  0.00  0.00    +0.000 C 
ATOM      8  C   UNL     1       1.204   3.449  20.831  0.00  0.00    +0.000 C 
ATOM      9  C   UNL     1       1.752   2.444  19.837  0.00  0.00    +0.000 C 
ATOM     10  C   UNL     1       2.654   2.918  18.699  0.00  0.00    +0.000 C 
ENDROOT
BRANCH   1  12
ATOM     11  N   UNL     1       1.779   8.766  19.513  0.00  0.00    +0.000 NA
ATOM     12  N   UNL     1       1.879   7.643  20.050  0.00  0.00    +0.000 NA
BRANCH  11  16
ATOM     13  C   UNL     1      -1.083  11.178  21.448  0.00  0.00    +0.000 A 
ATOM     14  C   UNL     1      -1.059  11.060  20.057  0.00  0.00    +0.000 A 
ATOM     15  C   UNL     1      -0.102  10.260  19.432  0.00  0.00    +0.000 A 
ATOM     16  C   UNL     1       0.864   9.593  20.185  0.00  0.00    +0.000 A 
ATOM     17  C   UNL     1       0.830   9.711  21.584  0.00  0.00    +0.000 A 
ATOM     18  C   UNL     1      -0.133  10.506  22.212  0.00  0.00    +0.000 A 
BRANCH  13  20
ATOM     19  C   UNL     1      -2.634  12.903  21.017  0.00  0.00    +0.000 C 
ATOM     20  O   UNL     1      -2.059  11.996  21.948  0.00  0.00    +0.000 OA
ENDBRANCH  13  20
ENDBRANCH  11  16
ENDBRANCH   1  12
BRANCH   4  21
ATOM     21  N   UNL     1       4.398   3.933  16.606  0.00  0.00    +0.000 N 
ATOM     22  H   UNL     1       3.867   3.060  16.616  0.00  0.00    +0.000 HD
BRANCH  21  23
ATOM     23  C   UNL     1       4.609   4.423  15.231  0.00  0.00    +0.000 C 
BRANCH  23  24
ATOM     24  C   UNL     1       6.071   4.453  14.808  0.00  0.00    +0.000 C 
BRANCH  24  25
ATOM     25  C   UNL     1       7.022   4.169  15.969  0.00  0.00    +0.000 C 
BRANCH  25  26
ATOM     26  N   UNL     1       6.962   5.172  17.052  0.00  0.00    +0.000 NA
ATOM     27  C   UNL     1       7.791   4.778  18.204  0.00  0.00    +0.000 C 
ATOM     28  C   UNL     1       7.827   5.846  19.298  0.00  0.00    +0.000 C 
ATOM     29  C   UNL     1       8.277   7.189  18.744  0.00  0.00    +0.000 C 
ATOM     30  C   UNL     1       7.403   7.579  17.561  0.00  0.00    +0.000 C 
ATOM     31  C   UNL     1       7.388   6.476  16.506  0.00  0.00    +0.000 C 
ENDBRANCH  25  26
ENDBRANCH  24  25
ENDBRANCH  23  24
ENDBRANCH  21  23
ENDBRANCH   4  21
TORSDOF 8
ENDMDL
MODEL 5
REMARK VINA RESULT:      -7.5      2.040      3.484
REMARK  Name = 
REMARK  9 active torsions:
REMARK  status: ('A' for Active; 'I' for Inactive)
REMARK    1  A    between atoms: C_1  and  O_2
REMARK    2  A    between atoms: O_2  and  C_3
REMARK    3  A    between atoms: C_6  and  N_7
REMARK    4  A    between atoms: N_8  and  C_9
REMARK    5  A    between atoms: C_12  and  N_13
REMARK    6  A    between atoms: N_13  and  C_14
REMARK    7  A    between atoms: C_14  and  C_15
REMARK    8  A    between atoms: C_15  and  C_16
REMARK    9  A    between atoms: C_16  and  N_17
REMARK                            x       y       z     vdW  Elec       q    Type
REMARK                         _______ _______ _______ _____ _____    ______ ____
ROOT
ATOM      1  C   UNL     1       2.676   6.597  19.311  0.00  0.00    +0.000 A 
ATOM      2  C   UNL     1       3.754   6.994  18.520  0.00  0.00    +0.000 A 
ATOM      3  C   UNL     1       4.818   6.137  18.298  0.00  0.00    +0.000 A 
ATOM      4  C   UNL     1       4.858   4.861  18.871  0.00  0.00    +0.000 A 
ATOM      5  C   UNL     1       3.715   4.400  19.587  0.00  0.00    +0.000 A 
ATOM      6  C   UNL     1       2.636   5.278  19.819  0.00  0.00    +0.000 A 
ATOM      7  C   UNL     1       1.405   4.883  20.589  0.00  0.00    +0.000 C 
ATOM      8  C   UNL     1       1.330   3.485  21.176  0.00  0.00    +0.000 C 
ATOM      9  C   UNL     1       2.436   2.504  20.845  0.00  0.00    +0.000 C 
ATOM     10  C   UNL     1       3.671   2.983  20.083  0.00  0.00    +0.000 C 
ENDROOT
BRANCH   1  12
ATOM     11  N   UNL     1       1.924   8.660  19.508  0.00  0.00    +0.000 NA
ATOM     12  N   UNL     1       1.579   7.460  19.503  0.00  0.00    +0.000 NA
BRANCH  11  16
ATOM     13  C   UNL     1      -1.440  11.136  18.958  0.00  0.00    +0.000 A 
ATOM     14  C   UNL     1      -0.881  10.430  17.890  0.00  0.00    +0.000 A 
ATOM     15  C   UNL     1       0.236   9.616  18.090  0.00  0.00    +0.000 A 
ATOM     16  C   UNL     1       0.828   9.524  19.349  0.00  0.00    +0.000 A 
ATOM     17  C   UNL     1       0.257  10.233  20.418  0.00  0.00    +0.000 A 
ATOM     18  C   UNL     1      -0.866  11.042  20.221  0.00  0.00    +0.000 A 
BRANCH  13  20
ATOM     19  C   UNL     1      -3.682  11.194  18.225  0.00  0.00    +0.000 C 
ATOM     20  O   UNL     1      -2.525  11.907  18.642  0.00  0.00    +0.000 OA
ENDBRANCH  13  20
ENDBRANCH  11  16
ENDBRANCH   1  12
BRANCH   4  21
ATOM     21  N   UNL     1       5.991   4.022  18.673  0.00  0.00    +0.000 N 
ATOM     22  H   UNL     1       5.666   3.168  18.216  0.00  0.00    +0.000 HD
BRANCH  21  23
ATOM     23  C   UNL     1       7.099   4.647  17.928  0.00  0.00    +0.000 C 
BRANCH  23  24
ATOM     24  C   UNL     1       7.138   4.268  16.454  0.00  0.00    +0.000 C 
BRANCH  24  25
ATOM     25  C   UNL     1       7.119   5.488  15.535  0.00  0.00    +0.000 C 
BRANCH  25  26
ATOM     26  N   UNL     1       6.708   5.187  14.148  0.00  0.00    +0.000 NA
ATOM     27  C   UNL     1       7.851   5.241  13.219  0.00  0.00    +0.000 C 
ATOM     28  C   UNL     1       7.472   4.835  11.794  0.00  0.00    +0.000 C 
ATOM     29  C   UNL     1       6.820   3.462  11.767  0.00  0.00    +0.000 C 
ATOM     30  C   UNL     1       5.640   3.430  12.727  0.00  0.00    +0.000 C 
ATOM     31  C   UNL     1       6.065   3.859  14.129  0.00  0.00    +0.000 C 
ENDBRANCH  25  26
ENDBRANCH  24  25
ENDBRANCH  23  24
ENDBRANCH  21  23
ENDBRANCH   4  21
TORSDOF 8
ENDMDL
MODEL 6
REMARK VINA RESULT:      -7.4      1.498      2.886
REMARK  Name = 
REMARK  9 active torsions:
REMARK  status: ('A' for Active; 'I' for Inactive)
REMARK    1  A    between atoms: C_1  and  O_2
REMARK    2  A    between atoms: O_2  and  C_3
REMARK    3  A    between atoms: C_6  and  N_7
REMARK    4  A    between atoms: N_8  and  C_9
REMARK    5  A    between atoms: C_12  and  N_13
REMARK    6  A    between atoms: N_13  and  C_14
REMARK    7  A    between atoms: C_14  and  C_15
REMARK    8  A    between atoms: C_15  and  C_16
REMARK    9  A    between atoms: C_16  and  N_17
REMARK                            x       y       z     vdW  Elec       q    Type
REMARK                         _______ _______ _______ _____ _____    ______ ____
ROOT
ATOM      1  C   UNL     1       1.934   7.833  19.527  0.00  0.00    +0.000 A 
ATOM      2  C   UNL     1       2.355   8.563  18.414  0.00  0.00    +0.000 A 
ATOM      3  C   UNL     1       3.224   8.004  17.493  0.00  0.00    +0.000 A 
ATOM      4  C   UNL     1       3.723   6.706  17.656  0.00  0.00    +0.000 A 
ATOM      5  C   UNL     1       3.215   5.911  18.724  0.00  0.00    +0.000 A 
ATOM      6  C   UNL     1       2.336   6.485  19.666  0.00  0.00    +0.000 A 
ATOM      7  C   UNL     1       1.776   5.726  20.839  0.00  0.00    +0.000 C 
ATOM      8  C   UNL     1       2.202   4.284  21.043  0.00  0.00    +0.000 C 
ATOM      9  C   UNL     1       3.063   3.629  19.981  0.00  0.00    +0.000 C 
ATOM     10  C   UNL     1       3.620   4.468  18.833  0.00  0.00    +0.000 C 
ENDROOT
BRANCH   1  12
ATOM     11  N   UNL     1       1.308   9.576  20.723  0.00  0.00    +0.000 NA
ATOM     12  N   UNL     1       1.020   8.394  20.440  0.00  0.00    +0.000 NA
BRANCH  11  16
ATOM     13  C   UNL     1      -1.806  11.606  22.705  0.00  0.00    +0.000 A 
ATOM     14  C   UNL     1      -1.134  10.543  23.313  0.00  0.00    +0.000 A 
ATOM     15  C   UNL     1      -0.107   9.879  22.641  0.00  0.00    +0.000 A 
ATOM     16  C   UNL     1       0.240  10.246  21.341  0.00  0.00    +0.000 A 
ATOM     17  C   UNL     1      -0.436  11.319  20.738  0.00  0.00    +0.000 A 
ATOM     18  C   UNL     1      -1.460  11.990  21.413  0.00  0.00    +0.000 A 
BRANCH  13  20
ATOM     19  C   UNL     1      -3.319  13.400  22.956  0.00  0.00    +0.000 C 
ATOM     20  O   UNL     1      -2.800  12.174  23.455  0.00  0.00    +0.000 OA
ENDBRANCH  13  20
ENDBRANCH  11  16
ENDBRANCH   1  12
BRANCH   4  21
ATOM     21  N   UNL     1       4.661   6.177  16.724  0.00  0.00    +0.000 N 
ATOM     22  H   UNL     1       4.227   6.210  15.800  0.00  0.00    +0.000 HD
BRANCH  21  23
ATOM     23  C   UNL     1       5.977   6.842  16.730  0.00  0.00    +0.000 C 
BRANCH  23  24
ATOM     24  C   UNL     1       7.127   5.924  17.123  0.00  0.00    +0.000 C 
BRANCH  24  25
ATOM     25  C   UNL     1       7.154   4.636  16.303  0.00  0.00    +0.000 C 
BRANCH  25  26
ATOM     26  N   UNL     1       6.765   4.818  14.889  0.00  0.00    +0.000 NA
ATOM     27  C   UNL     1       7.938   5.058  14.030  0.00  0.00    +0.000 C 
ATOM     28  C   UNL     1       7.574   5.149  12.547  0.00  0.00    +0.000 C 
ATOM     29  C   UNL     1       6.813   3.915  12.089  0.00  0.00    +0.000 C 
ATOM     30  C   UNL     1       5.604   3.690  12.984  0.00  0.00    +0.000 C 
ATOM     31  C   UNL     1       6.017   3.623  14.452  0.00  0.00    +0.000 C 
ENDBRANCH  25  26
ENDBRANCH  24  25
ENDBRANCH  23  24
ENDBRANCH  21  23
ENDBRANCH   4  21
TORSDOF 8
ENDMDL
MODEL 7
REMARK VINA RESULT:      -7.4      4.310     10.721
REMARK  Name = 
REMARK  9 active torsions:
REMARK  status: ('A' for Active; 'I' for Inactive)
REMARK    1  A    between atoms: C_1  and  O_2
REMARK    2  A    between atoms: O_2  and  C_3
REMARK    3  A    between atoms: C_6  and  N_7
REMARK    4  A    between atoms: N_8  and  C_9
REMARK    5  A    between atoms: C_12  and  N_13
REMARK    6  A    between atoms: N_13  and  C_14
REMARK    7  A    between atoms: C_14  and  C_15
REMARK    8  A    between atoms: C_15  and  C_16
REMARK    9  A    between atoms: C_16  and  N_17
REMARK                            x       y       z     vdW  Elec       q    Type
REMARK                         _______ _______ _______ _____ _____    ______ ____
ROOT
ATOM      1  C   UNL     1       0.221  10.178  19.687  0.00  0.00    +0.000 A 
ATOM      2  C   UNL     1       0.320  10.742  20.960  0.00  0.00    +0.000 A 
ATOM      3  C   UNL     1      -0.631  11.642  21.407  0.00  0.00    +0.000 A 
ATOM      4  C   UNL     1      -1.706  12.030  20.597  0.00  0.00    +0.000 A 
ATOM      5  C   UNL     1      -1.883  11.377  19.343  0.00  0.00    +0.000 A 
ATOM      6  C   UNL     1      -0.907  10.467  18.885  0.00  0.00    +0.000 A 
ATOM      7  C   UNL     1      -1.000   9.757  17.562  0.00  0.00    +0.000 C 
ATOM      8  C   UNL     1      -2.180  10.057  16.656  0.00  0.00    +0.000 C 
ATOM      9  C   UNL     1      -3.283  10.953  17.182  0.00  0.00    +0.000 C 
ATOM     10  C   UNL     1      -3.108  11.664  18.522  0.00  0.00    +0.000 C 
ENDROOT
BRANCH   1  12
ATOM     11  N   UNL     1       1.476   8.427  20.155  0.00  0.00    +0.000 NA
ATOM     12  N   UNL     1       1.172   9.234  19.252  0.00  0.00    +0.000 NA
BRANCH  11  16
ATOM     13  C   UNL     1       3.332   4.951  18.665  0.00  0.00    +0.000 A 
ATOM     14  C   UNL     1       2.662   4.943  19.891  0.00  0.00    +0.000 A 
ATOM     15  C   UNL     1       2.056   6.105  20.371  0.00  0.00    +0.000 A 
ATOM     16  C   UNL     1       2.138   7.296  19.651  0.00  0.00    +0.000 A 
ATOM     17  C   UNL     1       2.808   7.294  18.416  0.00  0.00    +0.000 A 
ATOM     18  C   UNL     1       3.409   6.130  17.930  0.00  0.00    +0.000 A 
BRANCH  13  20
ATOM     19  C   UNL     1       4.083   2.823  19.355  0.00  0.00    +0.000 C 
ATOM     20  O   UNL     1       3.895   3.758  18.301  0.00  0.00    +0.000 OA
ENDBRANCH  13  20
ENDBRANCH  11  16
ENDBRANCH   1  12
BRANCH   4  21
ATOM     21  N   UNL     1      -2.638  13.001  21.061  0.00  0.00    +0.000 N 
ATOM     22  H   UNL     1      -3.259  13.227  20.281  0.00  0.00    +0.000 HD
BRANCH  21  23
ATOM     23  C   UNL     1      -3.397  12.604  22.261  0.00  0.00    +0.000 C 
BRANCH  23  24
ATOM     24  C   UNL     1      -4.621  13.469  22.527  0.00  0.00    +0.000 C 
BRANCH  24  25
ATOM     25  C   UNL     1      -5.910  12.835  22.007  0.00  0.00    +0.000 C 
BRANCH  25  26
ATOM     26  N   UNL     1      -5.864  12.473  20.574  0.00  0.00    +0.000 NA
ATOM     27  C   UNL     1      -6.716  11.308  20.281  0.00  0.00    +0.000 C 
ATOM     28  C   UNL     1      -6.766  10.975  18.789  0.00  0.00    +0.000 C 
ATOM     29  C   UNL     1      -7.198  12.180  17.968  0.00  0.00    +0.000 C 
ATOM     30  C   UNL     1      -6.301  13.369  18.282  0.00  0.00    +0.000 C 
ATOM     31  C   UNL     1      -6.272  13.650  19.782  0.00  0.00    +0.000 C 
ENDBRANCH  25  26
ENDBRANCH  24  25
ENDBRANCH  23  24
ENDBRANCH  21  23
ENDBRANCH   4  21
TORSDOF 8
ENDMDL
MODEL 8
REMARK VINA RESULT:      -7.4      1.415      2.923
REMARK  Name = 
REMARK  9 active torsions:
REMARK  status: ('A' for Active; 'I' for Inactive)
REMARK    1  A    between atoms: C_1  and  O_2
REMARK    2  A    between atoms: O_2  and  C_3
REMARK    3  A    between atoms: C_6  and  N_7
REMARK    4  A    between atoms: N_8  and  C_9
REMARK    5  A    between atoms: C_12  and  N_13
REMARK    6  A    between atoms: N_13  and  C_14
REMARK    7  A    between atoms: C_14  and  C_15
REMARK    8  A    between atoms: C_15  and  C_16
REMARK    9  A    between atoms: C_16  and  N_17
REMARK                            x       y       z     vdW  Elec       q    Type
REMARK                         _______ _______ _______ _____ _____    ______ ____
ROOT
ATOM      1  C   UNL     1       2.266   6.791  19.741  0.00  0.00    +0.000 A 
ATOM      2  C   UNL     1       3.067   7.378  18.761  0.00  0.00    +0.000 A 
ATOM      3  C   UNL     1       3.865   6.597  17.944  0.00  0.00    +0.000 A 
ATOM      4  C   UNL     1       3.912   5.205  18.084  0.00  0.00    +0.000 A 
ATOM      5  C   UNL     1       3.016   4.584  19.002  0.00  0.00    +0.000 A 
ATOM      6  C   UNL     1       2.210   5.382  19.840  0.00  0.00    +0.000 A 
ATOM      7  C   UNL     1       1.259   4.809  20.856  0.00  0.00    +0.000 C 
ATOM      8  C   UNL     1       1.185   3.302  21.017  0.00  0.00    +0.000 C 
ATOM      9  C   UNL     1       1.970   2.435  20.052  0.00  0.00    +0.000 C 
ATOM     10  C   UNL     1       2.938   3.085  19.065  0.00  0.00    +0.000 C 
ENDROOT
BRANCH   1  12
ATOM     11  N   UNL     1       1.768   8.790  20.527  0.00  0.00    +0.000 NA
ATOM     12  N   UNL     1       1.427   7.588  20.545  0.00  0.00    +0.000 NA
BRANCH  11  16
ATOM     13  C   UNL     1      -1.338  11.285  21.895  0.00  0.00    +0.000 A 
ATOM     14  C   UNL     1      -0.796  11.442  20.618  0.00  0.00    +0.000 A 
ATOM     15  C   UNL     1       0.236  10.609  20.182  0.00  0.00    +0.000 A 
ATOM     16  C   UNL     1       0.760   9.631  21.027  0.00  0.00    +0.000 A 
ATOM     17  C   UNL     1       0.205   9.475  22.307  0.00  0.00    +0.000 A 
ATOM     18  C   UNL     1      -0.833  10.304  22.742  0.00  0.00    +0.000 A 
BRANCH  13  20
ATOM     19  C   UNL     1      -2.867  12.035  23.529  0.00  0.00    +0.000 C 
ATOM     20  O   UNL     1      -2.337  12.164  22.216  0.00  0.00    +0.000 OA
ENDBRANCH  13  20
ENDBRANCH  11  16
ENDBRANCH   1  12
BRANCH   4  21
ATOM     21  N   UNL     1       4.785   4.431  17.269  0.00  0.00    +0.000 N 
ATOM     22  H   UNL     1       4.629   4.712  16.299  0.00  0.00    +0.000 HD
BRANCH  21  23
ATOM     23  C   UNL     1       6.211   4.520  17.635  0.00  0.00    +0.000 C 
BRANCH  23  24
ATOM     24  C   UNL     1       7.160   4.288  16.468  0.00  0.00    +0.000 C 
BRANCH  24  25
ATOM     25  C   UNL     1       7.243   5.492  15.532  0.00  0.00    +0.000 C 
BRANCH  25  26
ATOM     26  N   UNL     1       6.795   5.210  14.152  0.00  0.00    +0.000 NA
ATOM     27  C   UNL     1       7.901   5.335  13.187  0.00  0.00    +0.000 C 
ATOM     28  C   UNL     1       7.489   4.951  11.765  0.00  0.00    +0.000 C 
ATOM     29  C   UNL     1       6.891   3.553  11.722  0.00  0.00    +0.000 C 
ATOM     30  C   UNL     1       5.748   3.448  12.721  0.00  0.00    +0.000 C 
ATOM     31  C   UNL     1       6.206   3.858  14.119  0.00  0.00    +0.000 C 
ENDBRANCH  25  26
ENDBRANCH  24  25
ENDBRANCH  23  24
ENDBRANCH  21  23
ENDBRANCH   4  21
TORSDOF 8
ENDMDL
MODEL 9
REMARK VINA RESULT:      -7.4      1.585      3.084
REMARK  Name = 
REMARK  9 active torsions:
REMARK  status: ('A' for Active; 'I' for Inactive)
REMARK    1  A    between atoms: C_1  and  O_2
REMARK    2  A    between atoms: O_2  and  C_3
REMARK    3  A    between atoms: C_6  and  N_7
REMARK    4  A    between atoms: N_8  and  C_9
REMARK    5  A    between atoms: C_12  and  N_13
REMARK    6  A    between atoms: N_13  and  C_14
REMARK    7  A    between atoms: C_14  and  C_15
REMARK    8  A    between atoms: C_15  and  C_16
REMARK    9  A    between atoms: C_16  and  N_17
REMARK                            x       y       z     vdW  Elec       q    Type
REMARK                         _______ _______ _______ _____ _____    ______ ____
ROOT
ATOM      1  C   UNL     1       2.500   6.700  19.413  0.00  0.00    +0.000 A 
ATOM      2  C   UNL     1       3.205   7.198  18.317  0.00  0.00    +0.000 A 
ATOM      3  C   UNL     1       3.740   6.339  17.374  0.00  0.00    +0.000 A 
ATOM      4  C   UNL     1       3.611   4.950  17.496  0.00  0.00    +0.000 A 
ATOM      5  C   UNL     1       2.798   4.433  18.545  0.00  0.00    +0.000 A 
ATOM      6  C   UNL     1       2.261   5.310  19.511  0.00  0.00    +0.000 A 
ATOM      7  C   UNL     1       1.417   4.844  20.666  0.00  0.00    +0.000 C 
ATOM      8  C   UNL     1       1.157   3.358  20.827  0.00  0.00    +0.000 C 
ATOM      9  C   UNL     1       1.642   2.420  19.740  0.00  0.00    +0.000 C 
ATOM     10  C   UNL     1       2.519   2.958  18.611  0.00  0.00    +0.000 C 
ENDROOT
BRANCH   1  12
ATOM     11  N   UNL     1       1.561   8.652  19.821  0.00  0.00    +0.000 NA
ATOM     12  N   UNL     1       1.925   7.581  20.350  0.00  0.00    +0.000 NA
BRANCH  11  16
ATOM     13  C   UNL     1      -0.941  10.830  22.418  0.00  0.00    +0.000 A 
ATOM     14  C   UNL     1      -0.347   9.633  22.823  0.00  0.00    +0.000 A 
ATOM     15  C   UNL     1       0.477   8.922  21.948  0.00  0.00    +0.000 A 
ATOM     16  C   UNL     1       0.691   9.380  20.649  0.00  0.00    +0.000 A 
ATOM     17  C   UNL     1       0.096  10.588  20.251  0.00  0.00    +0.000 A 
ATOM     18  C   UNL     1      -0.723  11.305  21.128  0.00  0.00    +0.000 A 
BRANCH  13  20
ATOM     19  C   UNL     1      -1.857  12.845  23.236  0.00  0.00    +0.000 C 
ATOM     20  O   UNL     1      -1.734  11.434  23.356  0.00  0.00    +0.000 OA
ENDBRANCH  13  20
ENDBRANCH  11  16
ENDBRANCH   1  12
BRANCH   4  21
ATOM     21  N   UNL     1       4.221   4.087  16.542  0.00  0.00    +0.000 N 
ATOM     22  H   UNL     1       4.068   4.494  15.617  0.00  0.00    +0.000 HD
BRANCH  21  23
ATOM     23  C   UNL     1       5.649   3.813  16.783  0.00  0.00    +0.000 C 
BRANCH  23  24
ATOM     24  C   UNL     1       6.567   4.317  15.678  0.00  0.00    +0.000 C 
BRANCH  24  25
ATOM     25  C   UNL     1       5.822   5.142  14.630  0.00  0.00    +0.000 C 
BRANCH  25  26
ATOM     26  N   UNL     1       5.871   4.567  13.270  0.00  0.00    +0.000 NA
ATOM     27  C   UNL     1       7.114   3.809  13.046  0.00  0.00    +0.000 C 
ATOM     28  C   UNL     1       7.146   3.119  11.681  0.00  0.00    +0.000 C 
ATOM     29  C   UNL     1       5.928   2.229  11.484  0.00  0.00    +0.000 C 
ATOM     30  C   UNL     1       4.657   3.033  11.714  0.00  0.00    +0.000 C 
ATOM     31  C   UNL     1       4.682   3.714  13.080  0.00  0.00    +0.000 C 
ENDBRANCH  25  26
ENDBRANCH  24  25
ENDBRANCH  23  24
ENDBRANCH  21  23
ENDBRANCH   4  21
TORSDOF 8
ENDMDL
