MODEL 1
REMARK VINA RESULT:      -8.0      0.000      0.000
REMARK  Name = 
REMARK  10 active torsions:
REMARK  status: ('A' for Active; 'I' for Inactive)
REMARK    1  A    between atoms: C_1  and  C_2
REMARK    2  A    between atoms: N_4  and  CA_5
REMARK    3  A    between atoms: CA_5  and  CB_6
REMARK    4  A    between atoms: CA_5  and  C_16
REMARK    5  A    between atoms: CB_6  and  CG_7
REMARK    6  A    between atoms: N_18  and  CA_19
REMARK    7  A    between atoms: CA_19  and  C_20
REMARK    8  A    between atoms: N_22  and  CA_23
REMARK    9  A    between atoms: CA_23  and  C_24
REMARK   10  A    between atoms: C_24  and  OXT_26
REMARK                            x       y       z     vdW  Elec       q    Type
REMARK                         _______ _______ _______ _____ _____    ______ ____
ROOT
ATOM      1  CA  TRP A   1       5.458   4.481  16.777  0.00  0.00    +0.000 C 
ENDROOT
BRANCH   1   5
ATOM      2  C   UNK A   0       7.867   5.655  19.495  0.00  0.00    +0.000 C 
ATOM      3  C   UNK A   0       7.435   4.901  18.265  0.00  0.00    +0.000 C 
ATOM      4  O   UNK A   0       8.200   4.186  17.628  0.00  0.00    +0.000 OA
ATOM      5  N   TRP A   1       6.122   5.096  17.936  0.00  0.00    +0.000 N 
ATOM      6  H   TRP A   1       5.552   5.747  18.472  0.00  0.00    +0.000 HD
ENDBRANCH   1   5
BRANCH   1   7
ATOM      7  C   TRP A   1       6.034   5.175  15.514  0.00  0.00    +0.000 C 
ATOM      8  O   TRP A   1       5.669   6.305  15.175  0.00  0.00    +0.000 OA
ATOM      9  N   GLY A   2       7.013   4.499  14.823  0.00  0.00    +0.000 N 
ATOM     10  H   GLY A   2       7.293   3.561  15.085  0.00  0.00    +0.000 HD
BRANCH   9  11
ATOM     11  CA  GLY A   2       7.535   5.019  13.570  0.00  0.00    +0.000 C 
BRANCH  11  12
ATOM     12  C   GLY A   2       6.967   4.250  12.374  0.00  0.00    +0.000 C 
ATOM     13  O   GLY A   2       7.250   4.531  11.208  0.00  0.00    +0.000 OA
ATOM     14  N   GLY A   3       6.115   3.217  12.703  0.00  0.00    +0.000 N 
ATOM     15  H   GLY A   3       5.915   2.993  13.673  0.00  0.00    +0.000 HD
BRANCH  14  16
ATOM     16  CA  GLY A   3       5.476   2.406  11.681  0.00  0.00    +0.000 C 
BRANCH  16  17
ATOM     17  C   GLY A   3       6.350   1.218  11.296  0.00  0.00    +0.000 C 
ATOM     18  O   GLY A   3       5.939   0.071  11.179  0.00  0.00    +0.000 OA
BRANCH  17  19
ATOM     19  OXT GLY A   3       7.646   1.552  11.086  0.00  0.00    +0.000 OA
ATOM     20  HXT GLY A   3       8.028   1.205  10.256  0.00  0.00    +0.000 HD
ENDBRANCH  17  19
ENDBRANCH  16  17
ENDBRANCH  14  16
ENDBRANCH  11  12
ENDBRANCH   9  11
ENDBRANCH   1   7
BRANCH   1  21
ATOM     21  CB  TRP A   1       3.915   4.527  16.838  0.00  0.00    +0.000 C 
BRANCH  21  22
ATOM     22  CG  TRP A   1       3.320   3.502  17.758  0.00  0.00    +0.000 A 
ATOM     23  CD1 TRP A   1       3.233   2.144  17.514  0.00  0.00    +0.000 A 
ATOM     24  NE1 TRP A   1       2.776   1.534  18.647  0.00  0.00    +0.000 N 
ATOM     25  CE2 TRP A   1       2.464   2.475  19.600  0.00  0.00    +0.000 A 
ATOM     26  CZ2 TRP A   1       1.960   2.312  20.895  0.00  0.00    +0.000 A 
ATOM     27  CH2 TRP A   1       1.696   3.467  21.637  0.00  0.00    +0.000 A 
ATOM     28  CZ3 TRP A   1       1.925   4.732  21.103  0.00  0.00    +0.000 A 
ATOM     29  CE3 TRP A   1       2.449   4.874  19.815  0.00  0.00    +0.000 A 
ATOM     30  CD2 TRP A   1       2.742   3.726  19.049  0.00  0.00    +0.000 A 
ATOM     31  HE1 TRP A   1       2.673   0.537  18.770  0.00  0.00    +0.000 HD
ENDBRANCH  21  22
ENDBRANCH   1  21
TORSDOF 9
ENDMDL
MODEL 2
REMARK VINA RESULT:      -7.9      1.940      2.344
REMARK  Name = 
REMARK  10 active torsions:
REMARK  status: ('A' for Active; 'I' for Inactive)
REMARK    1  A    between atoms: C_1  and  C_2
REMARK    2  A    between atoms: N_4  and  CA_5
REMARK    3  A    between atoms: CA_5  and  CB_6
REMARK    4  A    between atoms: CA_5  and  C_16
REMARK    5  A    between atoms: CB_6  and  CG_7
REMARK    6  A    between atoms: N_18  and  CA_19
REMARK    7  A    between atoms: CA_19  and  C_20
REMARK    8  A    between atoms: N_22  and  CA_23
REMARK    9  A    between atoms: CA_23  and  C_24
REMARK   10  A    between atoms: C_24  and  OXT_26
REMARK                            x       y       z     vdW  Elec       q    Type
REMARK                         _______ _______ _______ _____ _____    ______ ____
ROOT
ATOM      1  CA  TRP A   1       5.773   4.353  16.362  0.00  0.00    +0.000 C 
ENDROOT
BRANCH   1   5
ATOM      2  C   UNK A   0       7.904   5.891  19.130  0.00  0.00    +0.000 C 
ATOM      3  C   UNK A   0       6.861   4.983  18.534  0.00  0.00    +0.000 C 
ATOM      4  O   UNK A   0       6.211   4.195  19.211  0.00  0.00    +0.000 OA
ATOM      5  N   TRP A   1       6.718   5.127  17.181  0.00  0.00    +0.000 N 
ATOM      6  H   TRP A   1       7.327   5.760  16.667  0.00  0.00    +0.000 HD
ENDBRANCH   1   5
BRANCH   1   7
ATOM      7  C   TRP A   1       6.173   4.587  14.881  0.00  0.00    +0.000 C 
ATOM      8  O   TRP A   1       6.478   5.709  14.464  0.00  0.00    +0.000 OA
ATOM      9  N   GLY A   2       6.229   3.479  14.068  0.00  0.00    +0.000 N 
ATOM     10  H   GLY A   2       5.952   2.563  14.402  0.00  0.00    +0.000 HD
BRANCH   9  11
ATOM     11  CA  GLY A   2       6.487   3.611  12.643  0.00  0.00    +0.000 C 
BRANCH  11  12
ATOM     12  C   GLY A   2       5.409   2.904  11.819  0.00  0.00    +0.000 C 
ATOM     13  O   GLY A   2       5.497   1.721  11.485  0.00  0.00    +0.000 OA
ATOM     14  N   GLY A   3       4.330   3.693  11.480  0.00  0.00    +0.000 N 
ATOM     15  H   GLY A   3       4.272   4.660  11.786  0.00  0.00    +0.000 HD
BRANCH  14  16
ATOM     16  CA  GLY A   3       3.233   3.176  10.680  0.00  0.00    +0.000 C 
BRANCH  16  17
ATOM     17  C   GLY A   3       2.859   4.147   9.567  0.00  0.00    +0.000 C 
ATOM     18  O   GLY A   3       1.969   4.984   9.653  0.00  0.00    +0.000 OA
BRANCH  17  19
ATOM     19  OXT GLY A   3       3.617   4.004   8.453  0.00  0.00    +0.000 OA
ATOM     20  HXT GLY A   3       3.917   4.843   8.052  0.00  0.00    +0.000 HD
ENDBRANCH  17  19
ENDBRANCH  16  17
ENDBRANCH  14  16
ENDBRANCH  11  12
ENDBRANCH   9  11
ENDBRANCH   1   7
BRANCH   1  21
ATOM     21  CB  TRP A   1       4.289   4.674  16.643  0.00  0.00    +0.000 C 
BRANCH  21  22
ATOM     22  CG  TRP A   1       3.586   3.617  17.442  0.00  0.00    +0.000 A 
ATOM     23  CD1 TRP A   1       3.651   2.253  17.220  0.00  0.00    +0.000 A 
ATOM     24  NE1 TRP A   1       3.008   1.622  18.247  0.00  0.00    +0.000 N 
ATOM     25  CE2 TRP A   1       2.434   2.546  19.088  0.00  0.00    +0.000 A 
ATOM     26  CZ2 TRP A   1       1.680   2.359  20.251  0.00  0.00    +0.000 A 
ATOM     27  CH2 TRP A   1       1.181   3.498  20.890  0.00  0.00    +0.000 A 
ATOM     28  CZ3 TRP A   1       1.428   4.771  20.384  0.00  0.00    +0.000 A 
ATOM     29  CE3 TRP A   1       2.203   4.940  19.233  0.00  0.00    +0.000 A 
ATOM     30  CD2 TRP A   1       2.733   3.809  18.575  0.00  0.00    +0.000 A 
ATOM     31  HE1 TRP A   1       2.952   0.621  18.371  0.00  0.00    +0.000 HD
ENDBRANCH  21  22
ENDBRANCH   1  21
TORSDOF 9
ENDMDL
MODEL 3
REMARK VINA RESULT:      -7.7      3.796      5.738
REMARK  Name = 
REMARK  10 active torsions:
REMARK  status: ('A' for Active; 'I' for Inactive)
REMARK    1  A    between atoms: C_1  and  C_2
REMARK    2  A    between atoms: N_4  and  CA_5
REMARK    3  A    between atoms: CA_5  and  CB_6
REMARK    4  A    between atoms: CA_5  and  C_16
REMARK    5  A    between atoms: CB_6  and  CG_7
REMARK    6  A    between atoms: N_18  and  CA_19
REMARK    7  A    between atoms: CA_19  and  C_20
REMARK    8  A    between atoms: N_22  and  CA_23
REMARK    9  A    between atoms: CA_23  and  C_24
REMARK   10  A    between atoms: C_24  and  OXT_26
REMARK                            x       y       z     vdW  Elec       q    Type
REMARK                         _______ _______ _______ _____ _____    ______ ____
ROOT
ATOM      1  CA  TRP A   1       2.853   5.874  18.717  0.00  0.00    +0.000 C 
ENDROOT
BRANCH   1   5
ATOM      2  C   UNK A   0       1.280   2.396  18.704  0.00  0.00    +0.000 C 
ATOM      3  C   UNK A   0       1.536   3.797  18.215  0.00  0.00    +0.000 C 
ATOM      4  O   UNK A   0       0.989   4.257  17.219  0.00  0.00    +0.000 OA
ATOM      5  N   TRP A   1       2.429   4.492  18.985  0.00  0.00    +0.000 N 
ATOM      6  H   TRP A   1       2.891   4.035  19.768  0.00  0.00    +0.000 HD
ENDBRANCH   1   5
BRANCH   1   7
ATOM      7  C   TRP A   1       4.398   5.845  18.576  0.00  0.00    +0.000 C 
ATOM      8  O   TRP A   1       5.111   5.259  19.395  0.00  0.00    +0.000 OA
ATOM      9  N   GLY A   2       4.933   6.453  17.463  0.00  0.00    +0.000 N 
ATOM     10  H   GLY A   2       4.351   6.959  16.805  0.00  0.00    +0.000 HD
BRANCH   9  11
ATOM     11  CA  GLY A   2       6.373   6.573  17.299  0.00  0.00    +0.000 C 
BRANCH  11  12
ATOM     12  C   GLY A   2       6.929   5.429  16.446  0.00  0.00    +0.000 C 
ATOM     13  O   GLY A   2       7.617   4.523  16.918  0.00  0.00    +0.000 OA
ATOM     14  N   GLY A   3       6.597   5.491  15.109  0.00  0.00    +0.000 N 
ATOM     15  H   GLY A   3       6.010   6.238  14.750  0.00  0.00    +0.000 HD
BRANCH  14  16
ATOM     16  CA  GLY A   3       7.065   4.493  14.164  0.00  0.00    +0.000 C 
BRANCH  16  17
ATOM     17  C   GLY A   3       7.842   5.138  13.022  0.00  0.00    +0.000 C 
ATOM     18  O   GLY A   3       8.717   5.982  13.176  0.00  0.00    +0.000 OA
BRANCH  17  19
ATOM     19  OXT GLY A   3       7.474   4.685  11.799  0.00  0.00    +0.000 OA
ATOM     20  HXT GLY A   3       6.820   3.959  11.813  0.00  0.00    +0.000 HD
ENDBRANCH  17  19
ENDBRANCH  16  17
ENDBRANCH  14  16
ENDBRANCH  11  12
ENDBRANCH   9  11
ENDBRANCH   1   7
BRANCH   1  21
ATOM     21  CB  TRP A   1       2.364   6.896  19.766  0.00  0.00    +0.000 C 
BRANCH  21  22
ATOM     22  CG  TRP A   1       1.855   8.174  19.168  0.00  0.00    +0.000 A 
ATOM     23  CD1 TRP A   1       2.102   8.625  17.884  0.00  0.00    +0.000 A 
ATOM     24  NE1 TRP A   1       1.342   9.739  17.669  0.00  0.00    +0.000 N 
ATOM     25  CE2 TRP A   1       0.676  10.090  18.820  0.00  0.00    +0.000 A 
ATOM     26  CZ2 TRP A   1      -0.198  11.155  19.066  0.00  0.00    +0.000 A 
ATOM     27  CH2 TRP A   1      -0.702  11.292  20.362  0.00  0.00    +0.000 A 
ATOM     28  CZ3 TRP A   1      -0.345  10.401  21.370  0.00  0.00    +0.000 A 
ATOM     29  CE3 TRP A   1       0.512   9.330  21.100  0.00  0.00    +0.000 A 
ATOM     30  CD2 TRP A   1       1.024   9.157  19.796  0.00  0.00    +0.000 A 
ATOM     31  HE1 TRP A   1       1.281  10.242  16.794  0.00  0.00    +0.000 HD
ENDBRANCH  21  22
ENDBRANCH   1  21
TORSDOF 9
ENDMDL
MODEL 4
REMARK VINA RESULT:      -7.7      3.472      6.210
REMARK  Name = 
REMARK  10 active torsions:
REMARK  status: ('A' for Active; 'I' for Inactive)
REMARK    1  A    between atoms: C_1  and  C_2
REMARK    2  A    between atoms: N_4  and  CA_5
REMARK    3  A    between atoms: CA_5  and  CB_6
REMARK    4  A    between atoms: CA_5  and  C_16
REMARK    5  A    between atoms: CB_6  and  CG_7
REMARK    6  A    between atoms: N_18  and  CA_19
REMARK    7  A    between atoms: CA_19  and  C_20
REMARK    8  A    between atoms: N_22  and  CA_23
REMARK    9  A    between atoms: CA_23  and  C_24
REMARK   10  A    between atoms: C_24  and  OXT_26
REMARK                            x       y       z     vdW  Elec       q    Type
REMARK                         _______ _______ _______ _____ _____    ______ ____
ROOT
ATOM      1  CA  TRP A   1       2.711   4.975  18.638  0.00  0.00    +0.000 C 
ENDROOT
BRANCH   1   5
ATOM      2  C   UNK A   0       1.333   2.693  21.370  0.00  0.00    +0.000 C 
ATOM      3  C   UNK A   0       1.379   3.904  20.476  0.00  0.00    +0.000 C 
ATOM      4  O   UNK A   0       0.534   4.790  20.524  0.00  0.00    +0.000 OA
ATOM      5  N   TRP A   1       2.444   3.911  19.617  0.00  0.00    +0.000 N 
ATOM      6  H   TRP A   1       3.081   3.118  19.587  0.00  0.00    +0.000 HD
ENDBRANCH   1   5
BRANCH   1   7
ATOM      7  C   TRP A   1       3.601   4.348  17.532  0.00  0.00    +0.000 C 
ATOM      8  O   TRP A   1       3.721   3.125  17.414  0.00  0.00    +0.000 OA
ATOM      9  N   GLY A   2       4.204   5.217  16.651  0.00  0.00    +0.000 N 
ATOM     10  H   GLY A   2       4.129   6.222  16.764  0.00  0.00    +0.000 HD
BRANCH   9  11
ATOM     11  CA  GLY A   2       5.141   4.733  15.650  0.00  0.00    +0.000 C 
BRANCH  11  12
ATOM     12  C   GLY A   2       6.571   4.715  16.196  0.00  0.00    +0.000 C 
ATOM     13  O   GLY A   2       7.562   4.700  15.463  0.00  0.00    +0.000 OA
ATOM     14  N   GLY A   3       6.666   4.719  17.571  0.00  0.00    +0.000 N 
ATOM     15  H   GLY A   3       5.833   4.753  18.152  0.00  0.00    +0.000 HD
BRANCH  14  16
ATOM     16  CA  GLY A   3       7.952   4.681  18.244  0.00  0.00    +0.000 C 
BRANCH  16  17
ATOM     17  C   GLY A   3       8.107   5.857  19.201  0.00  0.00    +0.000 C 
ATOM     18  O   GLY A   3       8.219   7.024  18.844  0.00  0.00    +0.000 OA
BRANCH  17  19
ATOM     19  OXT GLY A   3       8.106   5.492  20.505  0.00  0.00    +0.000 OA
ATOM     20  HXT GLY A   3       7.260   5.121  20.824  0.00  0.00    +0.000 HD
ENDBRANCH  17  19
ENDBRANCH  16  17
ENDBRANCH  14  16
ENDBRANCH  11  12
ENDBRANCH   9  11
ENDBRANCH   1   7
BRANCH   1  21
ATOM     21  CB  TRP A   1       3.323   6.253  19.251  0.00  0.00    +0.000 C 
BRANCH  21  22
ATOM     22  CG  TRP A   1       2.537   7.497  18.958  0.00  0.00    +0.000 A 
ATOM     23  CD1 TRP A   1       2.475   8.150  17.741  0.00  0.00    +0.000 A 
ATOM     24  NE1 TRP A   1       1.538   9.139  17.834  0.00  0.00    +0.000 N 
ATOM     25  CE2 TRP A   1       1.054   9.216  19.119  0.00  0.00    +0.000 A 
ATOM     26  CZ2 TRP A   1       0.099  10.076  19.673  0.00  0.00    +0.000 A 
ATOM     27  CH2 TRP A   1      -0.170   9.952  21.038  0.00  0.00    +0.000 A 
ATOM     28  CZ3 TRP A   1       0.491   9.006  21.818  0.00  0.00    +0.000 A 
ATOM     29  CE3 TRP A   1       1.426   8.141  21.243  0.00  0.00    +0.000 A 
ATOM     30  CD2 TRP A   1       1.706   8.232  19.863  0.00  0.00    +0.000 A 
ATOM     31  HE1 TRP A   1       1.244   9.737  17.074  0.00  0.00    +0.000 HD
ENDBRANCH  21  22
ENDBRANCH   1  21
TORSDOF 9
ENDMDL
MODEL 5
REMARK VINA RESULT:      -7.7      3.191      4.791
REMARK  Name = 
REMARK  10 active torsions:
REMARK  status: ('A' for Active; 'I' for Inactive)
REMARK    1  A    between atoms: C_1  and  C_2
REMARK    2  A    between atoms: N_4  and  CA_5
REMARK    3  A    between atoms: CA_5  and  CB_6
REMARK    4  A    between atoms: CA_5  and  C_16
REMARK    5  A    between atoms: CB_6  and  CG_7
REMARK    6  A    between atoms: N_18  and  CA_19
REMARK    7  A    between atoms: CA_19  and  C_20
REMARK    8  A    between atoms: N_22  and  CA_23
REMARK    9  A    between atoms: CA_23  and  C_24
REMARK   10  A    between atoms: C_24  and  OXT_26
REMARK                            x       y       z     vdW  Elec       q    Type
REMARK                         _______ _______ _______ _____ _____    ______ ____
ROOT
ATOM      1  CA  TRP A   1       3.085   4.505  18.921  0.00  0.00    +0.000 C 
ENDROOT
BRANCH   1   5
ATOM      2  C   UNK A   0       1.348   2.568  21.715  0.00  0.00    +0.000 C 
ATOM      3  C   UNK A   0       1.499   3.632  20.660  0.00  0.00    +0.000 C 
ATOM      4  O   UNK A   0       0.622   4.456  20.426  0.00  0.00    +0.000 OA
ATOM      5  N   TRP A   1       2.696   3.583  19.999  0.00  0.00    +0.000 N 
ATOM      6  H   TRP A   1       3.361   2.840  20.201  0.00  0.00    +0.000 HD
ENDBRANCH   1   5
BRANCH   1   7
ATOM      7  C   TRP A   1       4.013   3.707  17.968  0.00  0.00    +0.000 C 
ATOM      8  O   TRP A   1       3.899   2.485  17.827  0.00  0.00    +0.000 OA
ATOM      9  N   GLY A   2       4.931   4.431  17.241  0.00  0.00    +0.000 N 
ATOM     10  H   GLY A   2       5.044   5.430  17.377  0.00  0.00    +0.000 HD
BRANCH   9  11
ATOM     11  CA  GLY A   2       5.914   3.763  16.405  0.00  0.00    +0.000 C 
BRANCH  11  12
ATOM     12  C   GLY A   2       5.862   4.285  14.967  0.00  0.00    +0.000 C 
ATOM     13  O   GLY A   2       5.428   5.402  14.681  0.00  0.00    +0.000 OA
ATOM     14  N   GLY A   3       6.340   3.408  14.016  0.00  0.00    +0.000 N 
ATOM     15  H   GLY A   3       6.712   2.501  14.281  0.00  0.00    +0.000 HD
BRANCH  14  16
ATOM     16  CA  GLY A   3       6.338   3.746  12.603  0.00  0.00    +0.000 C 
BRANCH  16  17
ATOM     17  C   GLY A   3       5.351   2.877  11.832  0.00  0.00    +0.000 C 
ATOM     18  O   GLY A   3       4.248   3.256  11.457  0.00  0.00    +0.000 OA
BRANCH  17  19
ATOM     19  OXT GLY A   3       5.812   1.626  11.590  0.00  0.00    +0.000 OA
ATOM     20  HXT GLY A   3       6.644   1.590  11.078  0.00  0.00    +0.000 HD
ENDBRANCH  17  19
ENDBRANCH  16  17
ENDBRANCH  14  16
ENDBRANCH  11  12
ENDBRANCH   9  11
ENDBRANCH   1   7
BRANCH   1  21
ATOM     21  CB  TRP A   1       3.722   5.821  19.419  0.00  0.00    +0.000 C 
BRANCH  21  22
ATOM     22  CG  TRP A   1       3.013   7.051  18.937  0.00  0.00    +0.000 A 
ATOM     23  CD1 TRP A   1       3.171   7.647  17.700  0.00  0.00    +0.000 A 
ATOM     24  NE1 TRP A   1       2.244   8.643  17.583  0.00  0.00    +0.000 N 
ATOM     25  CE2 TRP A   1       1.546   8.782  18.760  0.00  0.00    +0.000 A 
ATOM     26  CZ2 TRP A   1       0.519   9.671  19.099  0.00  0.00    +0.000 A 
ATOM     27  CH2 TRP A   1       0.016   9.612  20.401  0.00  0.00    +0.000 A 
ATOM     28  CZ3 TRP A   1       0.520   8.702  21.326  0.00  0.00    +0.000 A 
ATOM     29  CE3 TRP A   1       1.530   7.807  20.963  0.00  0.00    +0.000 A 
ATOM     30  CD2 TRP A   1       2.047   7.832  19.650  0.00  0.00    +0.000 A 
ATOM     31  HE1 TRP A   1       2.094   9.205  16.757  0.00  0.00    +0.000 HD
ENDBRANCH  21  22
ENDBRANCH   1  21
TORSDOF 9
ENDMDL
MODEL 6
REMARK VINA RESULT:      -7.6      2.036      2.715
REMARK  Name = 
REMARK  10 active torsions:
REMARK  status: ('A' for Active; 'I' for Inactive)
REMARK    1  A    between atoms: C_1  and  C_2
REMARK    2  A    between atoms: N_4  and  CA_5
REMARK    3  A    between atoms: CA_5  and  CB_6
REMARK    4  A    between atoms: CA_5  and  C_16
REMARK    5  A    between atoms: CB_6  and  CG_7
REMARK    6  A    between atoms: N_18  and  CA_19
REMARK    7  A    between atoms: CA_19  and  C_20
REMARK    8  A    between atoms: N_22  and  CA_23
REMARK    9  A    between atoms: CA_23  and  C_24
REMARK   10  A    between atoms: C_24  and  OXT_26
REMARK                            x       y       z     vdW  Elec       q    Type
REMARK                         _______ _______ _______ _____ _____    ______ ____
ROOT
ATOM      1  CA  TRP A   1       5.860   6.531  17.504  0.00  0.00    +0.000 C 
ENDROOT
BRANCH   1   5
ATOM      2  C   UNK A   0       8.390   9.366  17.870  0.00  0.00    +0.000 C 
ATOM      3  C   UNK A   0       7.820   7.989  18.083  0.00  0.00    +0.000 C 
ATOM      4  O   UNK A   0       8.391   7.136  18.753  0.00  0.00    +0.000 OA
ATOM      5  N   TRP A   1       6.619   7.790  17.458  0.00  0.00    +0.000 N 
ATOM      6  H   TRP A   1       6.222   8.519  16.870  0.00  0.00    +0.000 HD
ENDBRANCH   1   5
BRANCH   1   7
ATOM      7  C   TRP A   1       6.568   5.550  16.533  0.00  0.00    +0.000 C 
ATOM      8  O   TRP A   1       7.143   4.537  16.943  0.00  0.00    +0.000 OA
ATOM      9  N   GLY A   2       6.476   5.828  15.189  0.00  0.00    +0.000 N 
ATOM     10  H   GLY A   2       6.028   6.674  14.853  0.00  0.00    +0.000 HD
BRANCH   9  11
ATOM     11  CA  GLY A   2       7.196   5.030  14.210  0.00  0.00    +0.000 C 
BRANCH  11  12
ATOM     12  C   GLY A   2       6.322   3.895  13.672  0.00  0.00    +0.000 C 
ATOM     13  O   GLY A   2       5.578   3.229  14.395  0.00  0.00    +0.000 OA
ATOM     14  N   GLY A   3       6.430   3.675  12.315  0.00  0.00    +0.000 N 
ATOM     15  H   GLY A   3       7.035   4.252  11.738  0.00  0.00    +0.000 HD
BRANCH  14  16
ATOM     16  CA  GLY A   3       5.682   2.619  11.655  0.00  0.00    +0.000 C 
BRANCH  16  17
ATOM     17  C   GLY A   3       6.599   1.477  11.234  0.00  0.00    +0.000 C 
ATOM     18  O   GLY A   3       7.744   1.628  10.828  0.00  0.00    +0.000 OA
BRANCH  17  19
ATOM     19  OXT GLY A   3       6.025   0.255  11.356  0.00  0.00    +0.000 OA
ATOM     20  HXT GLY A   3       6.475  -0.347  11.980  0.00  0.00    +0.000 HD
ENDBRANCH  17  19
ENDBRANCH  16  17
ENDBRANCH  14  16
ENDBRANCH  11  12
ENDBRANCH   9  11
ENDBRANCH   1   7
BRANCH   1  21
ATOM     21  CB  TRP A   1       4.354   6.694  17.203  0.00  0.00    +0.000 C 
BRANCH  21  22
ATOM     22  CG  TRP A   1       3.464   6.071  18.236  0.00  0.00    +0.000 A 
ATOM     23  CD1 TRP A   1       3.003   6.684  19.387  0.00  0.00    +0.000 A 
ATOM     24  NE1 TRP A   1       2.098   5.852  19.982  0.00  0.00    +0.000 N 
ATOM     25  CE2 TRP A   1       2.030   4.659  19.301  0.00  0.00    +0.000 A 
ATOM     26  CZ2 TRP A   1       1.255   3.521  19.551  0.00  0.00    +0.000 A 
ATOM     27  CH2 TRP A   1       1.424   2.423  18.704  0.00  0.00    +0.000 A 
ATOM     28  CZ3 TRP A   1       2.332   2.463  17.649  0.00  0.00    +0.000 A 
ATOM     29  CE3 TRP A   1       3.081   3.616  17.401  0.00  0.00    +0.000 A 
ATOM     30  CD2 TRP A   1       2.920   4.746  18.230  0.00  0.00    +0.000 A 
ATOM     31  HE1 TRP A   1       1.561   6.072  20.809  0.00  0.00    +0.000 HD
ENDBRANCH  21  22
ENDBRANCH   1  21
TORSDOF 9
ENDMDL
MODEL 7
REMARK VINA RESULT:      -7.6      3.680      6.352
REMARK  Name = 
REMARK  10 active torsions:
REMARK  status: ('A' for Active; 'I' for Inactive)
REMARK    1  A    between atoms: C_1  and  C_2
REMARK    2  A    between atoms: N_4  and  CA_5
REMARK    3  A    between atoms: CA_5  and  CB_6
REMARK    4  A    between atoms: CA_5  and  C_16
REMARK    5  A    between atoms: CB_6  and  CG_7
REMARK    6  A    between atoms: N_18  and  CA_19
REMARK    7  A    between atoms: CA_19  and  C_20
REMARK    8  A    between atoms: N_22  and  CA_23
REMARK    9  A    between atoms: CA_23  and  C_24
REMARK   10  A    between atoms: C_24  and  OXT_26
REMARK                            x       y       z     vdW  Elec       q    Type
REMARK                         _______ _______ _______ _____ _____    ______ ____
ROOT
ATOM      1  CA  TRP A   1       2.739   5.909  18.238  0.00  0.00    +0.000 C 
ENDROOT
BRANCH   1   5
ATOM      2  C   UNK A   0       1.535   2.424  19.222  0.00  0.00    +0.000 C 
ATOM      3  C   UNK A   0       1.596   3.680  18.395  0.00  0.00    +0.000 C 
ATOM      4  O   UNK A   0       0.908   3.844  17.394  0.00  0.00    +0.000 OA
ATOM      5  N   TRP A   1       2.487   4.605  18.868  0.00  0.00    +0.000 N 
ATOM      6  H   TRP A   1       3.070   4.387  19.673  0.00  0.00    +0.000 HD
ENDBRANCH   1   5
BRANCH   1   7
ATOM      7  C   TRP A   1       3.922   5.706  17.254  0.00  0.00    +0.000 C 
ATOM      8  O   TRP A   1       4.631   6.650  16.891  0.00  0.00    +0.000 OA
ATOM      9  N   GLY A   2       4.183   4.417  16.851  0.00  0.00    +0.000 N 
ATOM     10  H   GLY A   2       3.585   3.645  17.126  0.00  0.00    +0.000 HD
BRANCH   9  11
ATOM     11  CA  GLY A   2       5.199   4.139  15.849  0.00  0.00    +0.000 C 
BRANCH  11  12
ATOM     12  C   GLY A   2       6.597   4.476  16.372  0.00  0.00    +0.000 C 
ATOM     13  O   GLY A   2       7.497   4.894  15.641  0.00  0.00    +0.000 OA
ATOM     14  N   GLY A   3       6.772   4.277  17.725  0.00  0.00    +0.000 N 
ATOM     15  H   GLY A   3       6.007   3.951  18.308  0.00  0.00    +0.000 HD
BRANCH  14  16
ATOM     16  CA  GLY A   3       8.048   4.529  18.371  0.00  0.00    +0.000 C 
BRANCH  16  17
ATOM     17  C   GLY A   3       8.004   5.811  19.193  0.00  0.00    +0.000 C 
ATOM     18  O   GLY A   3       8.069   6.937  18.715  0.00  0.00    +0.000 OA
BRANCH  17  19
ATOM     19  OXT GLY A   3       7.882   5.592  20.524  0.00  0.00    +0.000 OA
ATOM     20  HXT GLY A   3       8.723   5.617  21.021  0.00  0.00    +0.000 HD
ENDBRANCH  17  19
ENDBRANCH  16  17
ENDBRANCH  14  16
ENDBRANCH  11  12
ENDBRANCH   9  11
ENDBRANCH   1   7
BRANCH   1  21
ATOM     21  CB  TRP A   1       2.983   7.056  19.243  0.00  0.00    +0.000 C 
BRANCH  21  22
ATOM     22  CG  TRP A   1       2.118   8.258  19.004  0.00  0.00    +0.000 A 
ATOM     23  CD1 TRP A   1       1.942   8.904  17.794  0.00  0.00    +0.000 A 
ATOM     24  NE1 TRP A   1       0.965   9.846  17.951  0.00  0.00    +0.000 N 
ATOM     25  CE2 TRP A   1       0.566   9.903  19.265  0.00  0.00    +0.000 A 
ATOM     26  CZ2 TRP A   1      -0.391  10.716  19.882  0.00  0.00    +0.000 A 
ATOM     27  CH2 TRP A   1      -0.562  10.582  21.262  0.00  0.00    +0.000 A 
ATOM     28  CZ3 TRP A   1       0.195   9.673  21.995  0.00  0.00    +0.000 A 
ATOM     29  CE3 TRP A   1       1.132   8.853  21.358  0.00  0.00    +0.000 A 
ATOM     30  CD2 TRP A   1       1.314   8.954  19.963  0.00  0.00    +0.000 A 
ATOM     31  HE1 TRP A   1       0.593  10.427  17.212  0.00  0.00    +0.000 HD
ENDBRANCH  21  22
ENDBRANCH   1  21
TORSDOF 9
ENDMDL
MODEL 8
REMARK VINA RESULT:      -7.6      1.458      1.933
REMARK  Name = 
REMARK  10 active torsions:
REMARK  status: ('A' for Active; 'I' for Inactive)
REMARK    1  A    between atoms: C_1  and  C_2
REMARK    2  A    between atoms: N_4  and  CA_5
REMARK    3  A    between atoms: CA_5  and  CB_6
REMARK    4  A    between atoms: CA_5  and  C_16
REMARK    5  A    between atoms: CB_6  and  CG_7
REMARK    6  A    between atoms: N_18  and  CA_19
REMARK    7  A    between atoms: CA_19  and  C_20
REMARK    8  A    between atoms: N_22  and  CA_23
REMARK    9  A    between atoms: CA_23  and  C_24
REMARK   10  A    between atoms: C_24  and  OXT_26
REMARK                            x       y       z     vdW  Elec       q    Type
REMARK                         _______ _______ _______ _____ _____    ______ ____
ROOT
ATOM      1  CA  TRP A   1       6.457   5.340  18.112  0.00  0.00    +0.000 C 
ENDROOT
BRANCH   1   5
ATOM      2  C   UNK A   0       8.574   8.473  18.629  0.00  0.00    +0.000 C 
ATOM      3  C   UNK A   0       7.650   7.538  17.897  0.00  0.00    +0.000 C 
ATOM      4  O   UNK A   0       7.218   7.782  16.776  0.00  0.00    +0.000 OA
ATOM      5  N   TRP A   1       7.344   6.406  18.602  0.00  0.00    +0.000 N 
ATOM      6  H   TRP A   1       7.690   6.286  19.551  0.00  0.00    +0.000 HD
ENDBRANCH   1   5
BRANCH   1   7
ATOM      7  C   TRP A   1       7.094   4.796  16.806  0.00  0.00    +0.000 C 
ATOM      8  O   TRP A   1       8.129   4.122  16.823  0.00  0.00    +0.000 OA
ATOM      9  N   GLY A   2       6.421   5.048  15.633  0.00  0.00    +0.000 N 
ATOM     10  H   GLY A   2       5.587   5.625  15.615  0.00  0.00    +0.000 HD
BRANCH   9  11
ATOM     11  CA  GLY A   2       6.993   4.675  14.350  0.00  0.00    +0.000 C 
BRANCH  11  12
ATOM     12  C   GLY A   2       5.972   3.932  13.484  0.00  0.00    +0.000 C 
ATOM     13  O   GLY A   2       4.760   4.151  13.552  0.00  0.00    +0.000 OA
ATOM     14  N   GLY A   3       6.511   3.002  12.622  0.00  0.00    +0.000 N 
ATOM     15  H   GLY A   3       7.515   2.857  12.571  0.00  0.00    +0.000 HD
BRANCH  14  16
ATOM     16  CA  GLY A   3       5.672   2.199  11.750  0.00  0.00    +0.000 C 
BRANCH  16  17
ATOM     17  C   GLY A   3       6.486   1.122  11.043  0.00  0.00    +0.000 C 
ATOM     18  O   GLY A   3       7.415   1.352  10.278  0.00  0.00    +0.000 OA
BRANCH  17  19
ATOM     19  OXT GLY A   3       6.087  -0.137  11.345  0.00  0.00    +0.000 OA
ATOM     20  HXT GLY A   3       6.072  -0.342  12.301  0.00  0.00    +0.000 HD
ENDBRANCH  17  19
ENDBRANCH  16  17
ENDBRANCH  14  16
ENDBRANCH  11  12
ENDBRANCH   9  11
ENDBRANCH   1   7
BRANCH   1  21
ATOM     21  CB  TRP A   1       4.988   5.780  17.928  0.00  0.00    +0.000 C 
BRANCH  21  22
ATOM     22  CG  TRP A   1       4.006   4.650  18.021  0.00  0.00    +0.000 A 
ATOM     23  CD1 TRP A   1       3.767   3.699  17.047  0.00  0.00    +0.000 A 
ATOM     24  NE1 TRP A   1       2.927   2.756  17.566  0.00  0.00    +0.000 N 
ATOM     25  CE2 TRP A   1       2.526   3.122  18.830  0.00  0.00    +0.000 A 
ATOM     26  CZ2 TRP A   1       1.671   2.472  19.727  0.00  0.00    +0.000 A 
ATOM     27  CH2 TRP A   1       1.408   3.105  20.945  0.00  0.00    +0.000 A 
ATOM     28  CZ3 TRP A   1       1.977   4.338  21.251  0.00  0.00    +0.000 A 
ATOM     29  CE3 TRP A   1       2.848   4.961  20.352  0.00  0.00    +0.000 A 
ATOM     30  CD2 TRP A   1       3.145   4.338  19.121  0.00  0.00    +0.000 A 
ATOM     31  HE1 TRP A   1       2.631   1.915  17.092  0.00  0.00    +0.000 HD
ENDBRANCH  21  22
ENDBRANCH   1  21
TORSDOF 9
ENDMDL
MODEL 9
REMARK VINA RESULT:      -7.5      3.529      5.799
REMARK  Name = 
REMARK  10 active torsions:
REMARK  status: ('A' for Active; 'I' for Inactive)
REMARK    1  A    between atoms: C_1  and  C_2
REMARK    2  A    between atoms: N_4  and  CA_5
REMARK    3  A    between atoms: CA_5  and  CB_6
REMARK    4  A    between atoms: CA_5  and  C_16
REMARK    5  A    between atoms: CB_6  and  CG_7
REMARK    6  A    between atoms: N_18  and  CA_19
REMARK    7  A    between atoms: CA_19  and  C_20
REMARK    8  A    between atoms: N_22  and  CA_23
REMARK    9  A    between atoms: CA_23  and  C_24
REMARK   10  A    between atoms: C_24  and  OXT_26
REMARK                            x       y       z     vdW  Elec       q    Type
REMARK                         _______ _______ _______ _____ _____    ______ ____
ROOT
ATOM      1  CA  TRP A   1       2.841   5.312  19.133  0.00  0.00    +0.000 C 
ENDROOT
BRANCH   1   5
ATOM      2  C   UNK A   0       0.613   2.228  18.834  0.00  0.00    +0.000 C 
ATOM      3  C   UNK A   0       1.399   3.415  18.345  0.00  0.00    +0.000 C 
ATOM      4  O   UNK A   0       1.475   3.710  17.158  0.00  0.00    +0.000 OA
ATOM      5  N   TRP A   1       2.010   4.118  19.347  0.00  0.00    +0.000 N 
ATOM      6  H   TRP A   1       1.954   3.790  20.309  0.00  0.00    +0.000 HD
ENDBRANCH   1   5
BRANCH   1   7
ATOM      7  C   TRP A   1       4.319   4.848  19.223  0.00  0.00    +0.000 C 
ATOM      8  O   TRP A   1       4.617   3.709  19.595  0.00  0.00    +0.000 OA
ATOM      9  N   GLY A   2       5.279   5.743  18.812  0.00  0.00    +0.000 N 
ATOM     10  H   GLY A   2       5.038   6.688  18.533  0.00  0.00    +0.000 HD
BRANCH   9  11
ATOM     11  CA  GLY A   2       6.693   5.440  18.961  0.00  0.00    +0.000 C 
BRANCH  11  12
ATOM     12  C   GLY A   2       7.204   4.599  17.789  0.00  0.00    +0.000 C 
ATOM     13  O   GLY A   2       8.351   4.149  17.744  0.00  0.00    +0.000 OA
ATOM     14  N   GLY A   3       6.282   4.381  16.787  0.00  0.00    +0.000 N 
ATOM     15  H   GLY A   3       5.336   4.746  16.859  0.00  0.00    +0.000 HD
BRANCH  14  16
ATOM     16  CA  GLY A   3       6.619   3.620  15.597  0.00  0.00    +0.000 C 
BRANCH  16  17
ATOM     17  C   GLY A   3       6.435   4.459  14.338  0.00  0.00    +0.000 C 
ATOM     18  O   GLY A   3       6.365   3.996  13.206  0.00  0.00    +0.000 OA
BRANCH  17  19
ATOM     19  OXT GLY A   3       6.350   5.788  14.587  0.00  0.00    +0.000 OA
ATOM     20  HXT GLY A   3       6.059   6.328  13.826  0.00  0.00    +0.000 HD
ENDBRANCH  17  19
ENDBRANCH  16  17
ENDBRANCH  14  16
ENDBRANCH  11  12
ENDBRANCH   9  11
ENDBRANCH   1   7
BRANCH   1  21
ATOM     21  CB  TRP A   1       2.519   6.482  20.089  0.00  0.00    +0.000 C 
BRANCH  21  22
ATOM     22  CG  TRP A   1       2.110   7.740  19.383  0.00  0.00    +0.000 A 
ATOM     23  CD1 TRP A   1       2.492   8.117  18.108  0.00  0.00    +0.000 A 
ATOM     24  NE1 TRP A   1       1.791   9.238  17.766  0.00  0.00    +0.000 N 
ATOM     25  CE2 TRP A   1       1.031   9.666  18.829  0.00  0.00    +0.000 A 
ATOM     26  CZ2 TRP A   1       0.171  10.765  18.937  0.00  0.00    +0.000 A 
ATOM     27  CH2 TRP A   1      -0.449  10.983  20.170  0.00  0.00    +0.000 A 
ATOM     28  CZ3 TRP A   1      -0.217  10.137  21.250  0.00  0.00    +0.000 A 
ATOM     29  CE3 TRP A   1       0.627   9.031  21.117  0.00  0.00    +0.000 A 
ATOM     30  CD2 TRP A   1       1.255   8.776  19.879  0.00  0.00    +0.000 A 
ATOM     31  HE1 TRP A   1       1.829   9.696  16.866  0.00  0.00    +0.000 HD
ENDBRANCH  21  22
ENDBRANCH   1  21
TORSDOF 9
ENDMDL
