MODEL 1
REMARK VINA RESULT:      -7.8      0.000      0.000
REMARK  Name = 
REMARK  6 active torsions:
REMARK  status: ('A' for Active; 'I' for Inactive)
REMARK    1  A    between atoms: C_1  and  C_2
REMARK    2  A    between atoms: C_11  and  C_12
REMARK    3  A    between atoms: N_14  and  C_15
REMARK    4  A    between atoms: C_15  and  C_16
REMARK    5  A    between atoms: C_16  and  C_17
REMARK    6  A    between atoms: C_16  and  C_18
REMARK                            x       y       z     vdW  Elec       q    Type
REMARK                         _______ _______ _______ _____ _____    ______ ____
ROOT
ATOM      1  C   UNL     1       1.993   8.126  19.570  0.00  0.00    +0.000 C 
ATOM      2  C   UNL     1       2.128   6.666  19.873  0.00  0.00    +0.000 A 
ATOM      3  C   UNL     1       1.527   6.074  20.917  0.00  0.00    +0.000 A 
ATOM      4  C   UNL     1       1.686   4.669  21.167  0.00  0.00    +0.000 A 
ATOM      5  C   UNL     1       2.443   3.923  20.355  0.00  0.00    +0.000 A 
ATOM      6  N   UNL     1       3.098   4.465  19.253  0.00  0.00    +0.000 N 
ATOM      7  C   UNL     1       3.877   3.607  18.450  0.00  0.00    +0.000 A 
ATOM      8  O   UNL     1       4.022   2.405  18.648  0.00  0.00    +0.000 OA
ATOM      9  C   UNL     1       4.521   4.267  17.328  0.00  0.00    +0.000 A 
ATOM     10  C   UNL     1       5.378   3.724  16.315  0.00  0.00    +0.000 A 
ATOM     11  C   UNL     1       5.788   4.702  15.416  0.00  0.00    +0.000 A 
ATOM     12  S   UNL     1       5.126   6.229  15.823  0.00  0.00    +0.000 S 
ATOM     13  C   UNL     1       4.311   5.612  17.168  0.00  0.00    +0.000 A 
ATOM     14  N   UNL     1       3.563   6.419  17.944  0.00  0.00    +0.000 NA
ATOM     15  C   UNL     1       2.981   5.835  18.954  0.00  0.00    +0.000 A 
ENDROOT
BRANCH  11  16
ATOM     16  C   UNL     1       6.660   4.585  14.241  0.00  0.00    +0.000 C 
ATOM     17  O   UNL     1       7.659   5.264  14.064  0.00  0.00    +0.000 OA
ATOM     18  N   UNL     1       6.264   3.635  13.312  0.00  0.00    +0.000 N 
ATOM     19  H   UNL     1       5.423   3.095  13.479  0.00  0.00    +0.000 HD
BRANCH  18  20
ATOM     20  C   UNL     1       7.031   3.418  12.111  0.00  0.00    +0.000 C 
BRANCH  20  21
ATOM     21  C   UNL     1       6.278   2.586  11.065  0.00  0.00    +0.000 C 
ATOM     22  C   UNL     1       6.673   1.109  11.130  0.00  0.00    +0.000 C 
ATOM     23  C   UNL     1       4.770   2.730  11.283  0.00  0.00    +0.000 C 
ENDBRANCH  20  21
ENDBRANCH  18  20
ENDBRANCH  11  16
TORSDOF 3
ENDMDL
MODEL 2
REMARK VINA RESULT:      -7.6      1.517      2.338
REMARK  Name = 
REMARK  6 active torsions:
REMARK  status: ('A' for Active; 'I' for Inactive)
REMARK    1  A    between atoms: C_1  and  C_2
REMARK    2  A    between atoms: C_11  and  C_12
REMARK    3  A    between atoms: N_14  and  C_15
REMARK    4  A    between atoms: C_15  and  C_16
REMARK    5  A    between atoms: C_16  and  C_17
REMARK    6  A    between atoms: C_16  and  C_18
REMARK                            x       y       z     vdW  Elec       q    Type
REMARK                         _______ _______ _______ _____ _____    ______ ____
ROOT
ATOM      1  C   UNL     1       1.928   2.518  20.174  0.00  0.00    +0.000 C 
ATOM      2  C   UNL     1       1.986   4.010  20.062  0.00  0.00    +0.000 A 
ATOM      3  C   UNL     1       1.314   4.835  20.880  0.00  0.00    +0.000 A 
ATOM      4  C   UNL     1       1.401   6.261  20.733  0.00  0.00    +0.000 A 
ATOM      5  C   UNL     1       2.160   6.792  19.768  0.00  0.00    +0.000 A 
ATOM      6  N   UNL     1       2.886   6.002  18.881  0.00  0.00    +0.000 N 
ATOM      7  C   UNL     1       3.659   6.644  17.893  0.00  0.00    +0.000 A 
ATOM      8  O   UNL     1       3.746   7.860  17.755  0.00  0.00    +0.000 OA
ATOM      9  C   UNL     1       4.375   5.734  17.016  0.00  0.00    +0.000 A 
ATOM     10  C   UNL     1       5.245   6.021  15.913  0.00  0.00    +0.000 A 
ATOM     11  C   UNL     1       5.730   4.855  15.330  0.00  0.00    +0.000 A 
ATOM     12  S   UNL     1       5.125   3.467  16.134  0.00  0.00    +0.000 S 
ATOM     13  C   UNL     1       4.232   4.389  17.233  0.00  0.00    +0.000 A 
ATOM     14  N   UNL     1       3.489   3.789  18.182  0.00  0.00    +0.000 NA
ATOM     15  C   UNL     1       2.842   4.599  18.974  0.00  0.00    +0.000 A 
ENDROOT
BRANCH  11  16
ATOM     16  C   UNL     1       6.638   4.688  14.189  0.00  0.00    +0.000 C 
ATOM     17  O   UNL     1       7.633   5.369  14.005  0.00  0.00    +0.000 OA
ATOM     18  N   UNL     1       6.281   3.685  13.300  0.00  0.00    +0.000 N 
ATOM     19  H   UNL     1       5.442   3.142  13.472  0.00  0.00    +0.000 HD
BRANCH  18  20
ATOM     20  C   UNL     1       7.086   3.415  12.135  0.00  0.00    +0.000 C 
BRANCH  20  21
ATOM     21  C   UNL     1       6.340   2.599  11.072  0.00  0.00    +0.000 C 
ATOM     22  C   UNL     1       6.755   1.126  11.100  0.00  0.00    +0.000 C 
ATOM     23  C   UNL     1       4.832   2.718  11.297  0.00  0.00    +0.000 C 
ENDBRANCH  20  21
ENDBRANCH  18  20
ENDBRANCH  11  16
TORSDOF 3
ENDMDL
MODEL 3
REMARK VINA RESULT:      -7.5      0.924      1.159
REMARK  Name = 
REMARK  6 active torsions:
REMARK  status: ('A' for Active; 'I' for Inactive)
REMARK    1  A    between atoms: C_1  and  C_2
REMARK    2  A    between atoms: C_11  and  C_12
REMARK    3  A    between atoms: N_14  and  C_15
REMARK    4  A    between atoms: C_15  and  C_16
REMARK    5  A    between atoms: C_16  and  C_17
REMARK    6  A    between atoms: C_16  and  C_18
REMARK                            x       y       z     vdW  Elec       q    Type
REMARK                         _______ _______ _______ _____ _____    ______ ____
ROOT
ATOM      1  C   UNL     1       1.804   6.571  20.677  0.00  0.00    +0.000 C 
ATOM      2  C   UNL     1       1.904   5.083  20.544  0.00  0.00    +0.000 A 
ATOM      3  C   UNL     1       1.291   4.227  21.377  0.00  0.00    +0.000 A 
ATOM      4  C   UNL     1       1.416   2.807  21.208  0.00  0.00    +0.000 A 
ATOM      5  C   UNL     1       2.153   2.311  20.207  0.00  0.00    +0.000 A 
ATOM      6  N   UNL     1       2.818   3.134  19.303  0.00  0.00    +0.000 N 
ATOM      7  C   UNL     1       3.573   2.528  18.278  0.00  0.00    +0.000 A 
ATOM      8  O   UNL     1       3.688   1.317  18.119  0.00  0.00    +0.000 OA
ATOM      9  C   UNL     1       4.230   3.470  17.390  0.00  0.00    +0.000 A 
ATOM     10  C   UNL     1       5.071   3.224  16.255  0.00  0.00    +0.000 A 
ATOM     11  C   UNL     1       5.503   4.412  15.673  0.00  0.00    +0.000 A 
ATOM     12  S   UNL     1       4.879   5.770  16.512  0.00  0.00    +0.000 S 
ATOM     13  C   UNL     1       4.053   4.807  17.628  0.00  0.00    +0.000 A 
ATOM     14  N   UNL     1       3.327   5.372  18.612  0.00  0.00    +0.000 NA
ATOM     15  C   UNL     1       2.734   4.534  19.415  0.00  0.00    +0.000 A 
ENDROOT
BRANCH  11  16
ATOM     16  C   UNL     1       6.368   4.620  14.506  0.00  0.00    +0.000 C 
ATOM     17  O   UNL     1       7.041   5.622  14.328  0.00  0.00    +0.000 OA
ATOM     18  N   UNL     1       6.369   3.582  13.587  0.00  0.00    +0.000 N 
ATOM     19  H   UNL     1       5.791   2.766  13.755  0.00  0.00    +0.000 HD
BRANCH  18  20
ATOM     20  C   UNL     1       7.176   3.658  12.394  0.00  0.00    +0.000 C 
BRANCH  20  21
ATOM     21  C   UNL     1       6.541   2.937  11.199  0.00  0.00    +0.000 C 
ATOM     22  C   UNL     1       7.128   1.536  11.010  0.00  0.00    +0.000 C 
ATOM     23  C   UNL     1       5.027   2.842  11.400  0.00  0.00    +0.000 C 
ENDBRANCH  20  21
ENDBRANCH  18  20
ENDBRANCH  11  16
TORSDOF 3
ENDMDL
MODEL 4
REMARK VINA RESULT:      -7.3      3.159      5.188
REMARK  Name = 
REMARK  6 active torsions:
REMARK  status: ('A' for Active; 'I' for Inactive)
REMARK    1  A    between atoms: C_1  and  C_2
REMARK    2  A    between atoms: C_11  and  C_12
REMARK    3  A    between atoms: N_14  and  C_15
REMARK    4  A    between atoms: C_15  and  C_16
REMARK    5  A    between atoms: C_16  and  C_17
REMARK    6  A    between atoms: C_16  and  C_18
REMARK                            x       y       z     vdW  Elec       q    Type
REMARK                         _______ _______ _______ _____ _____    ______ ____
ROOT
ATOM      1  C   UNL     1      -0.379   9.045  22.881  0.00  0.00    +0.000 C 
ATOM      2  C   UNL     1      -0.098   9.784  21.609  0.00  0.00    +0.000 A 
ATOM      3  C   UNL     1      -0.588  11.005  21.345  0.00  0.00    +0.000 A 
ATOM      4  C   UNL     1      -0.290  11.674  20.109  0.00  0.00    +0.000 A 
ATOM      5  C   UNL     1       0.487  11.083  19.195  0.00  0.00    +0.000 A 
ATOM      6  N   UNL     1       1.031   9.818  19.396  0.00  0.00    +0.000 N 
ATOM      7  C   UNL     1       1.839   9.268  18.380  0.00  0.00    +0.000 A 
ATOM      8  O   UNL     1       2.104   9.827  17.320  0.00  0.00    +0.000 OA
ATOM      9  C   UNL     1       2.355   7.945  18.683  0.00  0.00    +0.000 A 
ATOM     10  C   UNL     1       3.196   7.089  17.898  0.00  0.00    +0.000 A 
ATOM     11  C   UNL     1       3.463   5.893  18.557  0.00  0.00    +0.000 A 
ATOM     12  S   UNL     1       2.696   5.851  20.089  0.00  0.00    +0.000 S 
ATOM     13  C   UNL     1       2.019   7.386  19.887  0.00  0.00    +0.000 A 
ATOM     14  N   UNL     1       1.246   7.924  20.850  0.00  0.00    +0.000 NA
ATOM     15  C   UNL     1       0.777   9.111  20.586  0.00  0.00    +0.000 A 
ENDROOT
BRANCH  11  16
ATOM     16  C   UNL     1       4.268   4.747  18.123  0.00  0.00    +0.000 C 
ATOM     17  O   UNL     1       4.775   3.941  18.887  0.00  0.00    +0.000 OA
ATOM     18  N   UNL     1       4.432   4.634  16.750  0.00  0.00    +0.000 N 
ATOM     19  H   UNL     1       4.010   5.324  16.140  0.00  0.00    +0.000 HD
BRANCH  18  20
ATOM     20  C   UNL     1       5.202   3.552  16.189  0.00  0.00    +0.000 C 
BRANCH  20  21
ATOM     21  C   UNL     1       6.307   4.036  15.241  0.00  0.00    +0.000 C 
ATOM     22  C   UNL     1       5.802   4.152  13.801  0.00  0.00    +0.000 C 
ATOM     23  C   UNL     1       6.834   5.392  15.717  0.00  0.00    +0.000 C 
ENDBRANCH  20  21
ENDBRANCH  18  20
ENDBRANCH  11  16
TORSDOF 3
ENDMDL
MODEL 5
REMARK VINA RESULT:      -7.3      1.727      2.669
REMARK  Name = 
REMARK  6 active torsions:
REMARK  status: ('A' for Active; 'I' for Inactive)
REMARK    1  A    between atoms: C_1  and  C_2
REMARK    2  A    between atoms: C_11  and  C_12
REMARK    3  A    between atoms: N_14  and  C_15
REMARK    4  A    between atoms: C_15  and  C_16
REMARK    5  A    between atoms: C_16  and  C_17
REMARK    6  A    between atoms: C_16  and  C_18
REMARK                            x       y       z     vdW  Elec       q    Type
REMARK                         _______ _______ _______ _____ _____    ______ ____
ROOT
ATOM      1  C   UNL     1       1.604   4.206  21.090  0.00  0.00    +0.000 C 
ATOM      2  C   UNL     1       1.694   5.620  20.606  0.00  0.00    +0.000 A 
ATOM      3  C   UNL     1       1.046   6.640  21.190  0.00  0.00    +0.000 A 
ATOM      4  C   UNL     1       1.163   7.980  20.688  0.00  0.00    +0.000 A 
ATOM      5  C   UNL     1       1.927   8.234  19.620  0.00  0.00    +0.000 A 
ATOM      6  N   UNL     1       2.629   7.229  18.960  0.00  0.00    +0.000 N 
ATOM      7  C   UNL     1       3.411   7.584  17.842  0.00  0.00    +0.000 A 
ATOM      8  O   UNL     1       3.523   8.723  17.401  0.00  0.00    +0.000 OA
ATOM      9  C   UNL     1       4.100   6.466  17.221  0.00  0.00    +0.000 A 
ATOM     10  C   UNL     1       4.968   6.445  16.081  0.00  0.00    +0.000 A 
ATOM     11  C   UNL     1       5.424   5.159  15.810  0.00  0.00    +0.000 A 
ATOM     12  S   UNL     1       4.794   4.033  16.938  0.00  0.00    +0.000 S 
ATOM     13  C   UNL     1       3.929   5.222  17.770  0.00  0.00    +0.000 A 
ATOM     14  N   UNL     1       3.179   4.898  18.841  0.00  0.00    +0.000 NA
ATOM     15  C   UNL     1       2.555   5.896  19.403  0.00  0.00    +0.000 A 
ENDROOT
BRANCH  11  16
ATOM     16  C   UNL     1       6.320   4.689  14.747  0.00  0.00    +0.000 C 
ATOM     17  O   UNL     1       7.537   4.750  14.806  0.00  0.00    +0.000 OA
ATOM     18  N   UNL     1       5.680   4.164  13.634  0.00  0.00    +0.000 N 
ATOM     19  H   UNL     1       4.668   4.137  13.607  0.00  0.00    +0.000 HD
BRANCH  18  20
ATOM     20  C   UNL     1       6.443   3.666  12.516  0.00  0.00    +0.000 C 
BRANCH  20  21
ATOM     21  C   UNL     1       5.848   2.388  11.912  0.00  0.00    +0.000 C 
ATOM     22  C   UNL     1       4.531   2.668  11.186  0.00  0.00    +0.000 C 
ATOM     23  C   UNL     1       6.853   1.763  10.942  0.00  0.00    +0.000 C 
ENDBRANCH  20  21
ENDBRANCH  18  20
ENDBRANCH  11  16
TORSDOF 3
ENDMDL
MODEL 6
REMARK VINA RESULT:      -7.1      1.463      2.209
REMARK  Name = 
REMARK  6 active torsions:
REMARK  status: ('A' for Active; 'I' for Inactive)
REMARK    1  A    between atoms: C_1  and  C_2
REMARK    2  A    between atoms: C_11  and  C_12
REMARK    3  A    between atoms: N_14  and  C_15
REMARK    4  A    between atoms: C_15  and  C_16
REMARK    5  A    between atoms: C_16  and  C_17
REMARK    6  A    between atoms: C_16  and  C_18
REMARK                            x       y       z     vdW  Elec       q    Type
REMARK                         _______ _______ _______ _____ _____    ______ ____
ROOT
ATOM      1  C   UNL     1       1.733  10.440  18.282  0.00  0.00    +0.000 C 
ATOM      2  C   UNL     1       1.687   9.235  19.169  0.00  0.00    +0.000 A 
ATOM      3  C   UNL     1       0.980   9.188  20.309  0.00  0.00    +0.000 A 
ATOM      4  C   UNL     1       0.966   8.008  21.127  0.00  0.00    +0.000 A 
ATOM      5  C   UNL     1       1.666   6.928  20.761  0.00  0.00    +0.000 A 
ATOM      6  N   UNL     1       2.424   6.901  19.593  0.00  0.00    +0.000 N 
ATOM      7  C   UNL     1       3.131   5.722  19.284  0.00  0.00    +0.000 A 
ATOM      8  O   UNL     1       3.129   4.705  19.970  0.00  0.00    +0.000 OA
ATOM      9  C   UNL     1       3.893   5.794  18.050  0.00  0.00    +0.000 A 
ATOM     10  C   UNL     1       4.723   4.805  17.427  0.00  0.00    +0.000 A 
ATOM     11  C   UNL     1       5.280   5.279  16.243  0.00  0.00    +0.000 A 
ATOM     12  S   UNL     1       4.780   6.887  15.929  0.00  0.00    +0.000 S 
ATOM     13  C   UNL     1       3.845   6.962  17.334  0.00  0.00    +0.000 A 
ATOM     14  N   UNL     1       3.163   8.081  17.642  0.00  0.00    +0.000 NA
ATOM     15  C   UNL     1       2.477   8.025  18.750  0.00  0.00    +0.000 A 
ENDROOT
BRANCH  11  16
ATOM     16  C   UNL     1       6.180   4.606  15.299  0.00  0.00    +0.000 C 
ATOM     17  O   UNL     1       7.345   4.336  15.544  0.00  0.00    +0.000 OA
ATOM     18  N   UNL     1       5.614   4.294  14.072  0.00  0.00    +0.000 N 
ATOM     19  H   UNL     1       4.648   4.541  13.892  0.00  0.00    +0.000 HD
BRANCH  18  20
ATOM     20  C   UNL     1       6.389   3.632  13.053  0.00  0.00    +0.000 C 
BRANCH  20  21
ATOM     21  C   UNL     1       5.549   2.683  12.189  0.00  0.00    +0.000 C 
ATOM     22  C   UNL     1       4.462   3.436  11.418  0.00  0.00    +0.000 C 
ATOM     23  C   UNL     1       6.459   1.938  11.210  0.00  0.00    +0.000 C 
ENDBRANCH  20  21
ENDBRANCH  18  20
ENDBRANCH  11  16
TORSDOF 3
ENDMDL
MODEL 7
REMARK VINA RESULT:      -7.0      3.668      6.018
REMARK  Name = 
REMARK  6 active torsions:
REMARK  status: ('A' for Active; 'I' for Inactive)
REMARK    1  A    between atoms: C_1  and  C_2
REMARK    2  A    between atoms: C_11  and  C_12
REMARK    3  A    between atoms: N_14  and  C_15
REMARK    4  A    between atoms: C_15  and  C_16
REMARK    5  A    between atoms: C_16  and  C_17
REMARK    6  A    between atoms: C_16  and  C_18
REMARK                            x       y       z     vdW  Elec       q    Type
REMARK                         _______ _______ _______ _____ _____    ______ ____
ROOT
ATOM      1  C   UNL     1      -0.615   9.639  23.059  0.00  0.00    +0.000 C 
ATOM      2  C   UNL     1      -0.325  10.421  21.816  0.00  0.00    +0.000 A 
ATOM      3  C   UNL     1      -0.773  11.670  21.612  0.00  0.00    +0.000 A 
ATOM      4  C   UNL     1      -0.468  12.381  20.402  0.00  0.00    +0.000 A 
ATOM      5  C   UNL     1       0.274  11.802  19.451  0.00  0.00    +0.000 A 
ATOM      6  N   UNL     1       0.774  10.510  19.590  0.00  0.00    +0.000 N 
ATOM      7  C   UNL     1       1.546   9.977  18.538  0.00  0.00    +0.000 A 
ATOM      8  O   UNL     1       1.818  10.571  17.499  0.00  0.00    +0.000 OA
ATOM      9  C   UNL     1       2.018   8.624  18.776  0.00  0.00    +0.000 A 
ATOM     10  C   UNL     1       2.816   7.773  17.943  0.00  0.00    +0.000 A 
ATOM     11  C   UNL     1       3.047   6.541  18.546  0.00  0.00    +0.000 A 
ATOM     12  S   UNL     1       2.301   6.460  20.087  0.00  0.00    +0.000 S 
ATOM     13  C   UNL     1       1.678   8.025  19.961  0.00  0.00    +0.000 A 
ATOM     14  N   UNL     1       0.939   8.549  20.958  0.00  0.00    +0.000 NA
ATOM     15  C   UNL     1       0.510   9.763  20.752  0.00  0.00    +0.000 A 
ENDROOT
BRANCH  11  16
ATOM     16  C   UNL     1       3.804   5.386  18.051  0.00  0.00    +0.000 C 
ATOM     17  O   UNL     1       3.330   4.515  17.339  0.00  0.00    +0.000 OA
ATOM     18  N   UNL     1       5.129   5.336  18.459  0.00  0.00    +0.000 N 
ATOM     19  H   UNL     1       5.493   6.067  19.060  0.00  0.00    +0.000 HD
BRANCH  18  20
ATOM     20  C   UNL     1       5.986   4.254  18.044  0.00  0.00    +0.000 C 
BRANCH  20  21
ATOM     21  C   UNL     1       7.184   4.728  17.212  0.00  0.00    +0.000 C 
ATOM     22  C   UNL     1       6.928   4.563  15.712  0.00  0.00    +0.000 C 
ATOM     23  C   UNL     1       7.481   6.195  17.529  0.00  0.00    +0.000 C 
ENDBRANCH  20  21
ENDBRANCH  18  20
ENDBRANCH  11  16
TORSDOF 3
ENDMDL
MODEL 8
REMARK VINA RESULT:      -6.8      3.756      8.731
REMARK  Name = 
REMARK  6 active torsions:
REMARK  status: ('A' for Active; 'I' for Inactive)
REMARK    1  A    between atoms: C_1  and  C_2
REMARK    2  A    between atoms: C_11  and  C_12
REMARK    3  A    between atoms: N_14  and  C_15
REMARK    4  A    between atoms: C_15  and  C_16
REMARK    5  A    between atoms: C_16  and  C_17
REMARK    6  A    between atoms: C_16  and  C_18
REMARK                            x       y       z     vdW  Elec       q    Type
REMARK                         _______ _______ _______ _____ _____    ______ ____
ROOT
ATOM      1  C   UNL     1       4.809   4.758  15.854  0.00  0.00    +0.000 C 
ATOM      2  C   UNL     1       4.331   4.210  17.162  0.00  0.00    +0.000 A 
ATOM      3  C   UNL     1       4.558   2.947  17.557  0.00  0.00    +0.000 A 
ATOM      4  C   UNL     1       4.078   2.467  18.822  0.00  0.00    +0.000 A 
ATOM      5  C   UNL     1       3.392   3.279  19.634  0.00  0.00    +0.000 A 
ATOM      6  N   UNL     1       3.117   4.601  19.294  0.00  0.00    +0.000 N 
ATOM      7  C   UNL     1       2.386   5.387  20.208  0.00  0.00    +0.000 A 
ATOM      8  O   UNL     1       1.971   4.993  21.293  0.00  0.00    +0.000 OA
ATOM      9  C   UNL     1       2.148   6.748  19.761  0.00  0.00    +0.000 A 
ATOM     10  C   UNL     1       1.451   7.817  20.414  0.00  0.00    +0.000 A 
ATOM     11  C   UNL     1       1.449   8.973  19.639  0.00  0.00    +0.000 A 
ATOM     12  S   UNL     1       2.286   8.726  18.165  0.00  0.00    +0.000 S 
ATOM     13  C   UNL     1       2.644   7.118  18.539  0.00  0.00    +0.000 A 
ATOM     14  N   UNL     1       3.343   6.355  17.676  0.00  0.00    +0.000 NA
ATOM     15  C   UNL     1       3.560   5.131  18.069  0.00  0.00    +0.000 A 
ENDROOT
BRANCH  11  16
ATOM     16  C   UNL     1       0.855  10.285  19.920  0.00  0.00    +0.000 C 
ATOM     17  O   UNL     1       1.359  11.346  19.588  0.00  0.00    +0.000 OA
ATOM     18  N   UNL     1      -0.345  10.247  20.615  0.00  0.00    +0.000 N 
ATOM     19  H   UNL     1      -0.734   9.352  20.889  0.00  0.00    +0.000 HD
BRANCH  18  20
ATOM     20  C   UNL     1      -1.035  11.466  20.956  0.00  0.00    +0.000 C 
BRANCH  20  21
ATOM     21  C   UNL     1      -1.143  11.685  22.470  0.00  0.00    +0.000 C 
ATOM     22  C   UNL     1      -2.504  12.267  22.858  0.00  0.00    +0.000 C 
ATOM     23  C   UNL     1      -0.919  10.358  23.199  0.00  0.00    +0.000 C 
ENDBRANCH  20  21
ENDBRANCH  18  20
ENDBRANCH  11  16
TORSDOF 3
ENDMDL
MODEL 9
REMARK VINA RESULT:      -6.8      3.988      6.291
REMARK  Name = 
REMARK  6 active torsions:
REMARK  status: ('A' for Active; 'I' for Inactive)
REMARK    1  A    between atoms: C_1  and  C_2
REMARK    2  A    between atoms: C_11  and  C_12
REMARK    3  A    between atoms: N_14  and  C_15
REMARK    4  A    between atoms: C_15  and  C_16
REMARK    5  A    between atoms: C_16  and  C_17
REMARK    6  A    between atoms: C_16  and  C_18
REMARK                            x       y       z     vdW  Elec       q    Type
REMARK                         _______ _______ _______ _____ _____    ______ ____
ROOT
ATOM      1  C   UNL     1      -0.342   9.671  23.056  0.00  0.00    +0.000 C 
ATOM      2  C   UNL     1      -0.049  10.512  21.853  0.00  0.00    +0.000 A 
ATOM      3  C   UNL     1      -0.429  11.795  21.743  0.00  0.00    +0.000 A 
ATOM      4  C   UNL     1      -0.125  12.563  20.568  0.00  0.00    +0.000 A 
ATOM      5  C   UNL     1       0.549  12.004  19.557  0.00  0.00    +0.000 A 
ATOM      6  N   UNL     1       0.977  10.680  19.597  0.00  0.00    +0.000 N 
ATOM      7  C   UNL     1       1.680  10.171  18.486  0.00  0.00    +0.000 A 
ATOM      8  O   UNL     1       1.950  10.814  17.476  0.00  0.00    +0.000 OA
ATOM      9  C   UNL     1       2.079   8.782  18.623  0.00  0.00    +0.000 A 
ATOM     10  C   UNL     1       2.796   7.941  17.709  0.00  0.00    +0.000 A 
ATOM     11  C   UNL     1       2.975   6.662  18.226  0.00  0.00    +0.000 A 
ATOM     12  S   UNL     1       2.278   6.526  19.786  0.00  0.00    +0.000 S 
ATOM     13  C   UNL     1       1.745   8.129  19.780  0.00  0.00    +0.000 A 
ATOM     14  N   UNL     1       1.073   8.629  20.834  0.00  0.00    +0.000 NA
ATOM     15  C   UNL     1       0.709   9.876  20.720  0.00  0.00    +0.000 A 
ENDROOT
BRANCH  11  16
ATOM     16  C   UNL     1       3.645   5.500  17.632  0.00  0.00    +0.000 C 
ATOM     17  O   UNL     1       4.485   5.575  16.750  0.00  0.00    +0.000 OA
ATOM     18  N   UNL     1       3.249   4.273  18.144  0.00  0.00    +0.000 N 
ATOM     19  H   UNL     1       2.541   4.240  18.868  0.00  0.00    +0.000 HD
BRANCH  18  20
ATOM     20  C   UNL     1       3.829   3.049  17.648  0.00  0.00    +0.000 C 
BRANCH  20  21
ATOM     21  C   UNL     1       3.567   1.851  18.570  0.00  0.00    +0.000 C 
ATOM     22  C   UNL     1       4.392   1.939  19.856  0.00  0.00    +0.000 C 
ATOM     23  C   UNL     1       2.078   1.781  18.912  0.00  0.00    +0.000 C 
ENDBRANCH  20  21
ENDBRANCH  18  20
ENDBRANCH  11  16
TORSDOF 3
ENDMDL
