MODEL 1
REMARK VINA RESULT:      -7.5      0.000      0.000
REMARK  Name = 
REMARK  11 active torsions:
REMARK  status: ('A' for Active; 'I' for Inactive)
REMARK    1  A    between atoms: C_1  and  O_2
REMARK    2  A    between atoms: O_2  and  C_3
REMARK    3  A    between atoms: N_8  and  C_9
REMARK    4  A    between atoms: C_9  and  C_10
REMARK    5  A    between atoms: C_10  and  C_11
REMARK    6  A    between atoms: C_11  and  N_12
REMARK    7  A    between atoms: C_17  and  O_18
REMARK    8  A    between atoms: O_18  and  C_19
REMARK    9  A    between atoms: C_23  and  N_24
REMARK   10  A    between atoms: N_24  and  C_25
REMARK   11  A    between atoms: N_24  and  C_26
REMARK                            x       y       z     vdW  Elec       q    Type
REMARK                         _______ _______ _______ _____ _____    ______ ____
ROOT
ATOM      1  C   UNL     1       6.665   5.331  16.661  0.00  0.00    +0.000 A 
ATOM      2  C   UNL     1       5.548   4.548  16.382  0.00  0.00    +0.000 A 
ATOM      3  C   UNL     1       4.734   4.184  17.446  0.00  0.00    +0.000 A 
ATOM      4  C   UNL     1       3.597   5.072  17.813  0.00  0.00    +0.000 A 
ATOM      5  C   UNL     1       2.969   4.921  19.019  0.00  0.00    +0.000 A 
ATOM      6  N   UNL     1       3.310   3.876  19.869  0.00  0.00    +0.000 N 
ATOM      7  C   UNL     1       4.597   3.291  19.729  0.00  0.00    +0.000 A 
ATOM      8  O   UNL     1       5.085   2.446  20.461  0.00  0.00    +0.000 OA
ATOM      9  C   UNL     1       5.412   3.856  18.618  0.00  0.00    +0.000 A 
ATOM     10  C   UNL     1       6.519   4.633  18.946  0.00  0.00    +0.000 A 
ATOM     11  C   UNL     1       6.928   5.575  18.010  0.00  0.00    +0.000 A 
ATOM     12  C   UNL     1       2.296   6.179  19.406  0.00  0.00    +0.000 A 
ATOM     13  C   UNL     1       1.547   6.585  20.493  0.00  0.00    +0.000 A 
ATOM     14  C   UNL     1       1.232   7.953  20.646  0.00  0.00    +0.000 A 
ATOM     15  C   UNL     1       1.680   8.958  19.750  0.00  0.00    +0.000 A 
ATOM     16  C   UNL     1       2.421   8.520  18.651  0.00  0.00    +0.000 A 
ATOM     17  C   UNL     1       2.662   7.157  18.489  0.00  0.00    +0.000 A 
ATOM     18  C   UNL     1       3.402   6.498  17.415  0.00  0.00    +0.000 C 
ATOM     19  O   UNL     1       3.804   7.053  16.410  0.00  0.00    +0.000 OA
ENDROOT
BRANCH  15  20
ATOM     20  N   UNL     1       1.434  10.303  20.028  0.00  0.00    +0.000 N 
ATOM     21  C   UNL     1       0.694  10.634  21.250  0.00  0.00    +0.000 C 
ATOM     22  C   UNL     1       1.231  11.266  18.942  0.00  0.00    +0.000 C 
ENDBRANCH  15  20
BRANCH   1  24
ATOM     23  C   UNL     1       7.211   5.062  14.363  0.00  0.00    +0.000 C 
ATOM     24  O   UNL     1       7.338   5.800  15.572  0.00  0.00    +0.000 OA
ENDBRANCH   1  24
BRANCH  11  25
ATOM     25  O   UNL     1       7.419   6.807  18.379  0.00  0.00    +0.000 OA
ATOM     26  C   UNL     1       7.268   7.862  17.417  0.00  0.00    +0.000 C 
ENDBRANCH  11  25
BRANCH   6  27
ATOM     27  C   UNL     1       2.484   3.431  20.967  0.00  0.00    +0.000 C 
BRANCH  27  28
ATOM     28  C   UNL     1       1.169   2.766  20.548  0.00  0.00    +0.000 C 
BRANCH  28  29
ATOM     29  C   UNL     1       1.357   1.763  19.414  0.00  0.00    +0.000 C 
BRANCH  29  30
ATOM     30  N   UNL     1       0.443   2.084  18.318  0.00  0.00    +0.000 NA
ATOM     31  H   UNL     1       0.825   2.848  17.760  0.00  0.00    +0.000 HD
ATOM     32  H   UNL     1      -0.438   2.426  18.700  0.00  0.00    +0.000 HD
ENDBRANCH  29  30
ENDBRANCH  28  29
ENDBRANCH  27  28
ENDBRANCH   6  27
TORSDOF 7
ENDMDL
MODEL 2
REMARK VINA RESULT:      -7.0      1.223      1.477
REMARK  Name = 
REMARK  11 active torsions:
REMARK  status: ('A' for Active; 'I' for Inactive)
REMARK    1  A    between atoms: C_1  and  O_2
REMARK    2  A    between atoms: O_2  and  C_3
REMARK    3  A    between atoms: N_8  and  C_9
REMARK    4  A    between atoms: C_9  and  C_10
REMARK    5  A    between atoms: C_10  and  C_11
REMARK    6  A    between atoms: C_11  and  N_12
REMARK    7  A    between atoms: C_17  and  O_18
REMARK    8  A    between atoms: O_18  and  C_19
REMARK    9  A    between atoms: C_23  and  N_24
REMARK   10  A    between atoms: N_24  and  C_25
REMARK   11  A    between atoms: N_24  and  C_26
REMARK                            x       y       z     vdW  Elec       q    Type
REMARK                         _______ _______ _______ _____ _____    ______ ____
ROOT
ATOM      1  C   UNL     1       6.815   5.583  16.563  0.00  0.00    +0.000 A 
ATOM      2  C   UNL     1       5.655   4.850  16.327  0.00  0.00    +0.000 A 
ATOM      3  C   UNL     1       4.752   4.718  17.373  0.00  0.00    +0.000 A 
ATOM      4  C   UNL     1       3.673   5.732  17.519  0.00  0.00    +0.000 A 
ATOM      5  C   UNL     1       2.964   5.819  18.685  0.00  0.00    +0.000 A 
ATOM      6  N   UNL     1       3.166   4.899  19.706  0.00  0.00    +0.000 N 
ATOM      7  C   UNL     1       4.406   4.208  19.750  0.00  0.00    +0.000 A 
ATOM      8  O   UNL     1       4.778   3.455  20.634  0.00  0.00    +0.000 OA
ATOM      9  C   UNL     1       5.330   4.530  18.627  0.00  0.00    +0.000 A 
ATOM     10  C   UNL     1       6.476   5.267  18.911  0.00  0.00    +0.000 A 
ATOM     11  C   UNL     1       7.017   6.018  17.874  0.00  0.00    +0.000 A 
ATOM     12  C   UNL     1       2.376   7.168  18.828  0.00  0.00    +0.000 A 
ATOM     13  C   UNL     1       1.600   7.794  19.783  0.00  0.00    +0.000 A 
ATOM     14  C   UNL     1       1.391   9.187  19.704  0.00  0.00    +0.000 A 
ATOM     15  C   UNL     1       1.973  10.004  18.699  0.00  0.00    +0.000 A 
ATOM     16  C   UNL     1       2.738   9.346  17.736  0.00  0.00    +0.000 A 
ATOM     17  C   UNL     1       2.875   7.960  17.801  0.00  0.00    +0.000 A 
ATOM     18  C   UNL     1       3.621   7.089  16.895  0.00  0.00    +0.000 C 
ATOM     19  O   UNL     1       4.126   7.448  15.849  0.00  0.00    +0.000 OA
ENDROOT
BRANCH  15  20
ATOM     20  N   UNL     1       1.823  11.390  18.751  0.00  0.00    +0.000 N 
ATOM     21  C   UNL     1       2.717  12.214  17.931  0.00  0.00    +0.000 C 
ATOM     22  C   UNL     1       1.388  12.050  19.986  0.00  0.00    +0.000 C 
ENDBRANCH  15  20
BRANCH   1  24
ATOM     23  C   UNL     1       7.248   5.138  14.268  0.00  0.00    +0.000 C 
ATOM     24  O   UNL     1       7.587   5.826  15.466  0.00  0.00    +0.000 OA
ENDBRANCH   1  24
BRANCH  11  25
ATOM     25  O   UNL     1       7.585   7.254  18.086  0.00  0.00    +0.000 OA
ATOM     26  C   UNL     1       6.969   8.357  17.406  0.00  0.00    +0.000 C 
ENDBRANCH  11  25
BRANCH   6  27
ATOM     27  C   UNL     1       2.242   4.694  20.798  0.00  0.00    +0.000 C 
BRANCH  27  28
ATOM     28  C   UNL     1       1.128   3.683  20.510  0.00  0.00    +0.000 C 
BRANCH  28  29
ATOM     29  C   UNL     1       1.448   2.291  21.047  0.00  0.00    +0.000 C 
BRANCH  29  30
ATOM     30  N   UNL     1       2.336   2.403  22.204  0.00  0.00    +0.000 NA
ATOM     31  H   UNL     1       1.818   2.208  23.060  0.00  0.00    +0.000 HD
ATOM     32  H   UNL     1       2.667   3.364  22.286  0.00  0.00    +0.000 HD
ENDBRANCH  29  30
ENDBRANCH  28  29
ENDBRANCH  27  28
ENDBRANCH   6  27
TORSDOF 7
ENDMDL
MODEL 3
REMARK VINA RESULT:      -6.8      7.266      9.645
REMARK  Name = 
REMARK  11 active torsions:
REMARK  status: ('A' for Active; 'I' for Inactive)
REMARK    1  A    between atoms: C_1  and  O_2
REMARK    2  A    between atoms: O_2  and  C_3
REMARK    3  A    between atoms: N_8  and  C_9
REMARK    4  A    between atoms: C_9  and  C_10
REMARK    5  A    between atoms: C_10  and  C_11
REMARK    6  A    between atoms: C_11  and  N_12
REMARK    7  A    between atoms: C_17  and  O_18
REMARK    8  A    between atoms: O_18  and  C_19
REMARK    9  A    between atoms: C_23  and  N_24
REMARK   10  A    between atoms: N_24  and  C_25
REMARK   11  A    between atoms: N_24  and  C_26
REMARK                            x       y       z     vdW  Elec       q    Type
REMARK                         _______ _______ _______ _____ _____    ______ ____
ROOT
ATOM      1  C   UNL     1       1.217  12.285  20.692  0.00  0.00    +0.000 A 
ATOM      2  C   UNL     1       0.762  12.953  19.559  0.00  0.00    +0.000 A 
ATOM      3  C   UNL     1      -0.359  12.445  18.916  0.00  0.00    +0.000 A 
ATOM      4  C   UNL     1      -1.703  12.934  19.328  0.00  0.00    +0.000 A 
ATOM      5  C   UNL     1      -2.827  12.253  18.950  0.00  0.00    +0.000 A 
ATOM      6  N   UNL     1      -2.741  11.162  18.095  0.00  0.00    +0.000 N 
ATOM      7  C   UNL     1      -1.504  10.467  18.019  0.00  0.00    +0.000 A 
ATOM      8  O   UNL     1      -1.298   9.434  17.404  0.00  0.00    +0.000 OA
ATOM      9  C   UNL     1      -0.417  11.054  18.849  0.00  0.00    +0.000 A 
ATOM     10  C   UNL     1       0.004  10.350  19.973  0.00  0.00    +0.000 A 
ATOM     11  C   UNL     1       0.569  11.088  21.006  0.00  0.00    +0.000 A 
ATOM     12  C   UNL     1      -3.941  12.553  19.875  0.00  0.00    +0.000 A 
ATOM     13  C   UNL     1      -5.258  12.147  19.974  0.00  0.00    +0.000 A 
ATOM     14  C   UNL     1      -5.998  12.469  21.132  0.00  0.00    +0.000 A 
ATOM     15  C   UNL     1      -5.446  13.167  22.237  0.00  0.00    +0.000 A 
ATOM     16  C   UNL     1      -4.120  13.580  22.107  0.00  0.00    +0.000 A 
ATOM     17  C   UNL     1      -3.432  13.306  20.925  0.00  0.00    +0.000 A 
ATOM     18  C   UNL     1      -2.053  13.655  20.589  0.00  0.00    +0.000 C 
ATOM     19  O   UNL     1      -1.338  14.375  21.259  0.00  0.00    +0.000 OA
ENDROOT
BRANCH  15  20
ATOM     20  N   UNL     1      -6.198  13.344  23.400  0.00  0.00    +0.000 N 
ATOM     21  C   UNL     1      -7.236  12.356  23.710  0.00  0.00    +0.000 C 
ATOM     22  C   UNL     1      -6.505  14.690  23.893  0.00  0.00    +0.000 C 
ENDBRANCH  15  20
BRANCH   1  24
ATOM     23  C   UNL     1       2.314  14.322  21.235  0.00  0.00    +0.000 C 
ATOM     24  O   UNL     1       2.211  12.911  21.382  0.00  0.00    +0.000 OA
ENDBRANCH   1  24
BRANCH  11  25
ATOM     25  O   UNL     1       0.359  10.773  22.330  0.00  0.00    +0.000 OA
ATOM     26  C   UNL     1      -0.954  11.038  22.843  0.00  0.00    +0.000 C 
ENDBRANCH  11  25
BRANCH   6  27
ATOM     27  C   UNL     1      -3.866  10.615  17.373  0.00  0.00    +0.000 C 
BRANCH  27  28
ATOM     28  C   UNL     1      -4.049  11.175  15.958  0.00  0.00    +0.000 C 
BRANCH  28  29
ATOM     29  C   UNL     1      -3.915  10.101  14.883  0.00  0.00    +0.000 C 
BRANCH  29  30
ATOM     30  N   UNL     1      -2.523  10.019  14.442  0.00  0.00    +0.000 NA
ATOM     31  H   UNL     1      -1.901  10.307  15.197  0.00  0.00    +0.000 HD
ATOM     32  H   UNL     1      -2.368  10.681  13.681  0.00  0.00    +0.000 HD
ENDBRANCH  29  30
ENDBRANCH  28  29
ENDBRANCH  27  28
ENDBRANCH   6  27
TORSDOF 7
ENDMDL
MODEL 4
REMARK VINA RESULT:      -6.5      7.266      9.849
REMARK  Name = 
REMARK  11 active torsions:
REMARK  status: ('A' for Active; 'I' for Inactive)
REMARK    1  A    between atoms: C_1  and  O_2
REMARK    2  A    between atoms: O_2  and  C_3
REMARK    3  A    between atoms: N_8  and  C_9
REMARK    4  A    between atoms: C_9  and  C_10
REMARK    5  A    between atoms: C_10  and  C_11
REMARK    6  A    between atoms: C_11  and  N_12
REMARK    7  A    between atoms: C_17  and  O_18
REMARK    8  A    between atoms: O_18  and  C_19
REMARK    9  A    between atoms: C_23  and  N_24
REMARK   10  A    between atoms: N_24  and  C_25
REMARK   11  A    between atoms: N_24  and  C_26
REMARK                            x       y       z     vdW  Elec       q    Type
REMARK                         _______ _______ _______ _____ _____    ______ ____
ROOT
ATOM      1  C   UNL     1       1.379  12.369  20.436  0.00  0.00    +0.000 A 
ATOM      2  C   UNL     1       0.802  13.089  19.393  0.00  0.00    +0.000 A 
ATOM      3  C   UNL     1      -0.372  12.596  18.841  0.00  0.00    +0.000 A 
ATOM      4  C   UNL     1      -1.672  13.039  19.412  0.00  0.00    +0.000 A 
ATOM      5  C   UNL     1      -2.821  12.359  19.114  0.00  0.00    +0.000 A 
ATOM      6  N   UNL     1      -2.809  11.316  18.196  0.00  0.00    +0.000 N 
ATOM      7  C   UNL     1      -1.578  10.648  17.957  0.00  0.00    +0.000 A 
ATOM      8  O   UNL     1      -1.423   9.654  17.269  0.00  0.00    +0.000 OA
ATOM      9  C   UNL     1      -0.419  11.210  18.704  0.00  0.00    +0.000 A 
ATOM     10  C   UNL     1       0.124  10.454  19.739  0.00  0.00    +0.000 A 
ATOM     11  C   UNL     1       0.781  11.147  20.748  0.00  0.00    +0.000 A 
ATOM     12  C   UNL     1      -3.838  12.588  20.162  0.00  0.00    +0.000 A 
ATOM     13  C   UNL     1      -5.133  12.155  20.371  0.00  0.00    +0.000 A 
ATOM     14  C   UNL     1      -5.754  12.401  21.614  0.00  0.00    +0.000 A 
ATOM     15  C   UNL     1      -5.101  13.049  22.695  0.00  0.00    +0.000 A 
ATOM     16  C   UNL     1      -3.800  13.492  22.453  0.00  0.00    +0.000 A 
ATOM     17  C   UNL     1      -3.233  13.294  21.195  0.00  0.00    +0.000 A 
ATOM     18  C   UNL     1      -1.901  13.685  20.740  0.00  0.00    +0.000 C 
ATOM     19  O   UNL     1      -1.130  14.381  21.372  0.00  0.00    +0.000 OA
ENDROOT
BRANCH  15  20
ATOM     20  N   UNL     1      -5.733  13.151  23.935  0.00  0.00    +0.000 N 
ATOM     21  C   UNL     1      -5.150  12.428  25.070  0.00  0.00    +0.000 C 
ATOM     22  C   UNL     1      -7.188  13.303  24.022  0.00  0.00    +0.000 C 
ENDBRANCH  15  20
BRANCH   1  24
ATOM     23  C   UNL     1       2.321  14.372  21.303  0.00  0.00    +0.000 C 
ATOM     24  O   UNL     1       2.431  12.976  21.055  0.00  0.00    +0.000 OA
ENDBRANCH   1  24
BRANCH  11  25
ATOM     25  O   UNL     1       0.712  10.758  22.067  0.00  0.00    +0.000 OA
ATOM     26  C   UNL     1      -0.589  10.795  22.670  0.00  0.00    +0.000 C 
ENDBRANCH  11  25
BRANCH   6  27
ATOM     27  C   UNL     1      -3.995  10.788  17.562  0.00  0.00    +0.000 C 
BRANCH  27  28
ATOM     28  C   UNL     1      -4.701  11.765  16.616  0.00  0.00    +0.000 C 
BRANCH  28  29
ATOM     29  C   UNL     1      -6.099  12.140  17.099  0.00  0.00    +0.000 C 
BRANCH  29  30
ATOM     30  N   UNL     1      -6.243  13.596  17.101  0.00  0.00    +0.000 NA
ATOM     31  H   UNL     1      -7.208  13.850  16.891  0.00  0.00    +0.000 HD
ATOM     32  H   UNL     1      -5.677  13.994  16.352  0.00  0.00    +0.000 HD
ENDBRANCH  29  30
ENDBRANCH  28  29
ENDBRANCH  27  28
ENDBRANCH   6  27
TORSDOF 7
ENDMDL
MODEL 5
REMARK VINA RESULT:      -6.5      8.750     10.816
REMARK  Name = 
REMARK  11 active torsions:
REMARK  status: ('A' for Active; 'I' for Inactive)
REMARK    1  A    between atoms: C_1  and  O_2
REMARK    2  A    between atoms: O_2  and  C_3
REMARK    3  A    between atoms: N_8  and  C_9
REMARK    4  A    between atoms: C_9  and  C_10
REMARK    5  A    between atoms: C_10  and  C_11
REMARK    6  A    between atoms: C_11  and  N_12
REMARK    7  A    between atoms: C_17  and  O_18
REMARK    8  A    between atoms: O_18  and  C_19
REMARK    9  A    between atoms: C_23  and  N_24
REMARK   10  A    between atoms: N_24  and  C_25
REMARK   11  A    between atoms: N_24  and  C_26
REMARK                            x       y       z     vdW  Elec       q    Type
REMARK                         _______ _______ _______ _____ _____    ______ ____
ROOT
ATOM      1  C   UNL     1       8.535  14.104  24.111  0.00  0.00    +0.000 A 
ATOM      2  C   UNL     1       9.443  14.773  23.294  0.00  0.00    +0.000 A 
ATOM      3  C   UNL     1       9.568  14.342  21.981  0.00  0.00    +0.000 A 
ATOM      4  C   UNL     1       8.699  14.957  20.941  0.00  0.00    +0.000 A 
ATOM      5  C   UNL     1       8.569  14.363  19.716  0.00  0.00    +0.000 A 
ATOM      6  N   UNL     1       9.322  13.242  19.389  0.00  0.00    +0.000 N 
ATOM      7  C   UNL     1       9.827  12.442  20.448  0.00  0.00    +0.000 A 
ATOM      8  O   UNL     1      10.409  11.377  20.329  0.00  0.00    +0.000 OA
ATOM      9  C   UNL     1       9.521  12.960  21.810  0.00  0.00    +0.000 A 
ATOM     10  C   UNL     1       8.607  12.258  22.589  0.00  0.00    +0.000 A 
ATOM     11  C   UNL     1       7.921  12.978  23.560  0.00  0.00    +0.000 A 
ATOM     12  C   UNL     1       7.305  14.784  19.074  0.00  0.00    +0.000 A 
ATOM     13  C   UNL     1       6.679  14.496  17.878  0.00  0.00    +0.000 A 
ATOM     14  C   UNL     1       5.347  14.915  17.673  0.00  0.00    +0.000 A 
ATOM     15  C   UNL     1       4.587  15.598  18.658  0.00  0.00    +0.000 A 
ATOM     16  C   UNL     1       5.247  15.892  19.851  0.00  0.00    +0.000 A 
ATOM     17  C   UNL     1       6.583  15.524  20.003  0.00  0.00    +0.000 A 
ATOM     18  C   UNL     1       7.449  15.744  21.160  0.00  0.00    +0.000 C 
ATOM     19  O   UNL     1       7.154  16.421  22.126  0.00  0.00    +0.000 OA
ENDROOT
BRANCH  15  20
ATOM     20  N   UNL     1       3.238  15.875  18.433  0.00  0.00    +0.000 N 
ATOM     21  C   UNL     1       2.259  14.821  18.719  0.00  0.00    +0.000 C 
ATOM     22  C   UNL     1       2.830  16.777  17.353  0.00  0.00    +0.000 C 
ENDBRANCH  15  20
BRANCH   1  24
ATOM     23  C   UNL     1       8.800  13.947  26.468  0.00  0.00    +0.000 C 
ATOM     24  O   UNL     1       8.325  14.665  25.336  0.00  0.00    +0.000 OA
ENDBRANCH   1  24
BRANCH  11  25
ATOM     25  O   UNL     1       6.603  12.723  23.865  0.00  0.00    +0.000 OA
ATOM     26  C   UNL     1       6.347  11.523  24.609  0.00  0.00    +0.000 C 
ENDBRANCH  11  25
BRANCH   6  27
ATOM     27  C   UNL     1       9.516  12.770  18.037  0.00  0.00    +0.000 C 
BRANCH  27  28
ATOM     28  C   UNL     1      10.558  13.553  17.232  0.00  0.00    +0.000 C 
BRANCH  28  29
ATOM     29  C   UNL     1      11.986  13.116  17.542  0.00  0.00    +0.000 C 
BRANCH  29  30
ATOM     30  N   UNL     1      12.039  11.660  17.663  0.00  0.00    +0.000 NA
ATOM     31  H   UNL     1      12.734  11.394  18.361  0.00  0.00    +0.000 HD
ATOM     32  H   UNL     1      12.356  11.257  16.782  0.00  0.00    +0.000 HD
ENDBRANCH  29  30
ENDBRANCH  28  29
ENDBRANCH  27  28
ENDBRANCH   6  27
TORSDOF 7
ENDMDL
MODEL 6
REMARK VINA RESULT:      -6.5      2.356      5.246
REMARK  Name = 
REMARK  11 active torsions:
REMARK  status: ('A' for Active; 'I' for Inactive)
REMARK    1  A    between atoms: C_1  and  O_2
REMARK    2  A    between atoms: O_2  and  C_3
REMARK    3  A    between atoms: N_8  and  C_9
REMARK    4  A    between atoms: C_9  and  C_10
REMARK    5  A    between atoms: C_10  and  C_11
REMARK    6  A    between atoms: C_11  and  N_12
REMARK    7  A    between atoms: C_17  and  O_18
REMARK    8  A    between atoms: O_18  and  C_19
REMARK    9  A    between atoms: C_23  and  N_24
REMARK   10  A    between atoms: N_24  and  C_25
REMARK   11  A    between atoms: N_24  and  C_26
REMARK                            x       y       z     vdW  Elec       q    Type
REMARK                         _______ _______ _______ _____ _____    ______ ____
ROOT
ATOM      1  C   UNL     1       2.601   2.252  19.764  0.00  0.00    +0.000 A 
ATOM      2  C   UNL     1       3.841   2.814  20.054  0.00  0.00    +0.000 A 
ATOM      3  C   UNL     1       4.390   3.683  19.120  0.00  0.00    +0.000 A 
ATOM      4  C   UNL     1       4.087   5.136  19.229  0.00  0.00    +0.000 A 
ATOM      5  C   UNL     1       4.343   5.972  18.178  0.00  0.00    +0.000 A 
ATOM      6  N   UNL     1       4.984   5.502  17.039  0.00  0.00    +0.000 N 
ATOM      7  C   UNL     1       4.921   4.110  16.761  0.00  0.00    +0.000 A 
ATOM      8  O   UNL     1       5.335   3.559  15.755  0.00  0.00    +0.000 OA
ATOM      9  C   UNL     1       4.203   3.309  17.790  0.00  0.00    +0.000 A 
ATOM     10  C   UNL     1       2.965   2.768  17.455  0.00  0.00    +0.000 A 
ATOM     11  C   UNL     1       2.080   2.524  18.498  0.00  0.00    +0.000 A 
ATOM     12  C   UNL     1       3.498   7.182  18.269  0.00  0.00    +0.000 A 
ATOM     13  C   UNL     1       3.339   8.316  17.497  0.00  0.00    +0.000 A 
ATOM     14  C   UNL     1       2.265   9.192  17.765  0.00  0.00    +0.000 A 
ATOM     15  C   UNL     1       1.301   8.952  18.778  0.00  0.00    +0.000 A 
ATOM     16  C   UNL     1       1.493   7.809  19.555  0.00  0.00    +0.000 A 
ATOM     17  C   UNL     1       2.599   6.995  19.312  0.00  0.00    +0.000 A 
ATOM     18  C   UNL     1       2.982   5.770  20.010  0.00  0.00    +0.000 C 
ATOM     19  O   UNL     1       2.448   5.353  21.020  0.00  0.00    +0.000 OA
ENDROOT
BRANCH  15  20
ATOM     20  N   UNL     1       0.197   9.797  18.908  0.00  0.00    +0.000 N 
ATOM     21  C   UNL     1      -0.400   9.955  20.238  0.00  0.00    +0.000 C 
ATOM     22  C   UNL     1      -0.766   9.942  17.813  0.00  0.00    +0.000 C 
ENDBRANCH  15  20
BRANCH   1  24
ATOM     23  C   UNL     1       1.772   2.237  21.992  0.00  0.00    +0.000 C 
ATOM     24  O   UNL     1       2.029   1.542  20.777  0.00  0.00    +0.000 OA
ENDBRANCH   1  24
BRANCH  11  25
ATOM     25  O   UNL     1       0.722   2.712  18.364  0.00  0.00    +0.000 OA
ATOM     26  C   UNL     1       0.098   3.537  19.358  0.00  0.00    +0.000 C 
ENDBRANCH  11  25
BRANCH   6  27
ATOM     27  C   UNL     1       5.604   6.358  16.054  0.00  0.00    +0.000 C 
BRANCH  27  28
ATOM     28  C   UNL     1       7.116   6.536  16.225  0.00  0.00    +0.000 C 
BRANCH  28  29
ATOM     29  C   UNL     1       7.487   7.105  17.591  0.00  0.00    +0.000 C 
BRANCH  29  30
ATOM     30  N   UNL     1       7.811   8.525  17.460  0.00  0.00    +0.000 NA
ATOM     31  H   UNL     1       7.677   8.825  16.495  0.00  0.00    +0.000 HD
ATOM     32  H   UNL     1       8.799   8.669  17.666  0.00  0.00    +0.000 HD
ENDBRANCH  29  30
ENDBRANCH  28  29
ENDBRANCH  27  28
ENDBRANCH   6  27
TORSDOF 7
ENDMDL
MODEL 7
REMARK VINA RESULT:      -6.4      5.315      9.637
REMARK  Name = 
REMARK  11 active torsions:
REMARK  status: ('A' for Active; 'I' for Inactive)
REMARK    1  A    between atoms: C_1  and  O_2
REMARK    2  A    between atoms: O_2  and  C_3
REMARK    3  A    between atoms: N_8  and  C_9
REMARK    4  A    between atoms: C_9  and  C_10
REMARK    5  A    between atoms: C_10  and  C_11
REMARK    6  A    between atoms: C_11  and  N_12
REMARK    7  A    between atoms: C_17  and  O_18
REMARK    8  A    between atoms: O_18  and  C_19
REMARK    9  A    between atoms: C_23  and  N_24
REMARK   10  A    between atoms: N_24  and  C_25
REMARK   11  A    between atoms: N_24  and  C_26
REMARK                            x       y       z     vdW  Elec       q    Type
REMARK                         _______ _______ _______ _____ _____    ______ ____
ROOT
ATOM      1  C   UNL     1      -2.164  13.982  23.023  0.00  0.00    +0.000 A 
ATOM      2  C   UNL     1      -0.807  13.821  22.753  0.00  0.00    +0.000 A 
ATOM      3  C   UNL     1      -0.370  12.558  22.376  0.00  0.00    +0.000 A 
ATOM      4  C   UNL     1      -0.352  12.210  20.929  0.00  0.00    +0.000 A 
ATOM      5  C   UNL     1      -0.228  10.905  20.538  0.00  0.00    +0.000 A 
ATOM      6  N   UNL     1      -0.013   9.903  21.475  0.00  0.00    +0.000 N 
ATOM      7  C   UNL     1      -0.411  10.143  22.817  0.00  0.00    +0.000 A 
ATOM      8  O   UNL     1      -0.390   9.333  23.729  0.00  0.00    +0.000 OA
ATOM      9  C   UNL     1      -0.970  11.502  23.059  0.00  0.00    +0.000 A 
ATOM     10  C   UNL     1      -2.332  11.613  23.324  0.00  0.00    +0.000 A 
ATOM     11  C   UNL     1      -2.940  12.822  23.006  0.00  0.00    +0.000 A 
ATOM     12  C   UNL     1      -0.773  10.726  19.175  0.00  0.00    +0.000 A 
ATOM     13  C   UNL     1      -0.912   9.652  18.318  0.00  0.00    +0.000 A 
ATOM     14  C   UNL     1      -1.690   9.794  17.148  0.00  0.00    +0.000 A 
ATOM     15  C   UNL     1      -2.379  10.988  16.814  0.00  0.00    +0.000 A 
ATOM     16  C   UNL     1      -2.209  12.064  17.687  0.00  0.00    +0.000 A 
ATOM     17  C   UNL     1      -1.383  11.917  18.801  0.00  0.00    +0.000 A 
ATOM     18  C   UNL     1      -1.070  12.913  19.823  0.00  0.00    +0.000 C 
ATOM     19  O   UNL     1      -1.386  14.086  19.767  0.00  0.00    +0.000 OA
ENDROOT
BRANCH  15  20
ATOM     20  N   UNL     1      -3.227  11.020  15.707  0.00  0.00    +0.000 N 
ATOM     21  C   UNL     1      -4.630  11.389  15.920  0.00  0.00    +0.000 C 
ATOM     22  C   UNL     1      -3.028  10.097  14.586  0.00  0.00    +0.000 C 
ENDBRANCH  15  20
BRANCH   1  24
ATOM     23  C   UNL     1      -1.923  16.281  22.466  0.00  0.00    +0.000 C 
ATOM     24  O   UNL     1      -2.572  15.267  23.224  0.00  0.00    +0.000 OA
ENDBRANCH   1  24
BRANCH  11  25
ATOM     25  O   UNL     1      -4.223  12.887  22.510  0.00  0.00    +0.000 OA
ATOM     26  C   UNL     1      -5.266  13.075  23.477  0.00  0.00    +0.000 C 
ENDBRANCH  11  25
BRANCH   6  27
ATOM     27  C   UNL     1       0.475   8.584  21.144  0.00  0.00    +0.000 C 
BRANCH  27  28
ATOM     28  C   UNL     1       1.836   8.565  20.441  0.00  0.00    +0.000 C 
BRANCH  28  29
ATOM     29  C   UNL     1       2.161   7.206  19.829  0.00  0.00    +0.000 C 
BRANCH  29  30
ATOM     30  N   UNL     1       1.978   6.159  20.834  0.00  0.00    +0.000 NA
ATOM     31  H   UNL     1       2.441   6.426  21.702  0.00  0.00    +0.000 HD
ATOM     32  H   UNL     1       2.437   5.304  20.521  0.00  0.00    +0.000 HD
ENDBRANCH  29  30
ENDBRANCH  28  29
ENDBRANCH  27  28
ENDBRANCH   6  27
TORSDOF 7
ENDMDL
MODEL 8
REMARK VINA RESULT:      -6.2      7.086     12.234
REMARK  Name = 
REMARK  11 active torsions:
REMARK  status: ('A' for Active; 'I' for Inactive)
REMARK    1  A    between atoms: C_1  and  O_2
REMARK    2  A    between atoms: O_2  and  C_3
REMARK    3  A    between atoms: N_8  and  C_9
REMARK    4  A    between atoms: C_9  and  C_10
REMARK    5  A    between atoms: C_10  and  C_11
REMARK    6  A    between atoms: C_11  and  N_12
REMARK    7  A    between atoms: C_17  and  O_18
REMARK    8  A    between atoms: O_18  and  C_19
REMARK    9  A    between atoms: C_23  and  N_24
REMARK   10  A    between atoms: N_24  and  C_25
REMARK   11  A    between atoms: N_24  and  C_26
REMARK                            x       y       z     vdW  Elec       q    Type
REMARK                         _______ _______ _______ _____ _____    ______ ____
ROOT
ATOM      1  C   UNL     1      -6.837  12.261  19.226  0.00  0.00    +0.000 A 
ATOM      2  C   UNL     1      -6.292  13.517  19.479  0.00  0.00    +0.000 A 
ATOM      3  C   UNL     1      -5.696  13.725  20.716  0.00  0.00    +0.000 A 
ATOM      4  C   UNL     1      -4.244  13.441  20.866  0.00  0.00    +0.000 A 
ATOM      5  C   UNL     1      -3.690  13.335  22.112  0.00  0.00    +0.000 A 
ATOM      6  N   UNL     1      -4.447  13.594  23.248  0.00  0.00    +0.000 N 
ATOM      7  C   UNL     1      -5.859  13.476  23.153  0.00  0.00    +0.000 A 
ATOM      8  O   UNL     1      -6.651  13.563  24.076  0.00  0.00    +0.000 OA
ATOM      9  C   UNL     1      -6.358  13.136  21.792  0.00  0.00    +0.000 A 
ATOM     10  C   UNL     1      -6.893  11.867  21.586  0.00  0.00    +0.000 A 
ATOM     11  C   UNL     1      -6.838  11.361  20.293  0.00  0.00    +0.000 A 
ATOM     12  C   UNL     1      -2.447  12.537  22.054  0.00  0.00    +0.000 A 
ATOM     13  C   UNL     1      -1.516  12.118  22.984  0.00  0.00    +0.000 A 
ATOM     14  C   UNL     1      -0.543  11.166  22.612  0.00  0.00    +0.000 A 
ATOM     15  C   UNL     1      -0.487  10.575  21.323  0.00  0.00    +0.000 A 
ATOM     16  C   UNL     1      -1.427  11.027  20.396  0.00  0.00    +0.000 A 
ATOM     17  C   UNL     1      -2.336  12.016  20.770  0.00  0.00    +0.000 A 
ATOM     18  C   UNL     1      -3.385  12.625  19.955  0.00  0.00    +0.000 C 
ATOM     19  O   UNL     1      -3.525  12.447  18.761  0.00  0.00    +0.000 OA
ENDROOT
BRANCH  15  20
ATOM     20  N   UNL     1       0.424   9.552  21.061  0.00  0.00    +0.000 N 
ATOM     21  C   UNL     1       1.290   9.099  22.154  0.00  0.00    +0.000 C 
ATOM     22  C   UNL     1       1.036   9.416  19.735  0.00  0.00    +0.000 C 
ENDBRANCH  15  20
BRANCH   1  24
ATOM     23  C   UNL     1      -6.914  13.038  16.980  0.00  0.00    +0.000 C 
ATOM     24  O   UNL     1      -7.259  12.053  17.947  0.00  0.00    +0.000 OA
ENDBRANCH   1  24
BRANCH  11  25
ATOM     25  O   UNL     1      -6.611  10.028  20.039  0.00  0.00    +0.000 OA
ATOM     26  C   UNL     1      -7.611   9.114  20.512  0.00  0.00    +0.000 C 
ENDBRANCH  11  25
BRANCH   6  27
ATOM     27  C   UNL     1      -3.879  13.854  24.551  0.00  0.00    +0.000 C 
BRANCH  27  28
ATOM     28  C   UNL     1      -3.241  15.238  24.705  0.00  0.00    +0.000 C 
BRANCH  28  29
ATOM     29  C   UNL     1      -1.997  15.214  25.587  0.00  0.00    +0.000 C 
BRANCH  29  30
ATOM     30  N   UNL     1      -0.799  15.194  24.747  0.00  0.00    +0.000 NA
ATOM     31  H   UNL     1      -0.791  14.352  24.173  0.00  0.00    +0.000 HD
ATOM     32  H   UNL     1       0.030  15.141  25.339  0.00  0.00    +0.000 HD
ENDBRANCH  29  30
ENDBRANCH  28  29
ENDBRANCH  27  28
ENDBRANCH   6  27
TORSDOF 7
ENDMDL
MODEL 9
REMARK VINA RESULT:      -6.1      2.478      5.267
REMARK  Name = 
REMARK  11 active torsions:
REMARK  status: ('A' for Active; 'I' for Inactive)
REMARK    1  A    between atoms: C_1  and  O_2
REMARK    2  A    between atoms: O_2  and  C_3
REMARK    3  A    between atoms: N_8  and  C_9
REMARK    4  A    between atoms: C_9  and  C_10
REMARK    5  A    between atoms: C_10  and  C_11
REMARK    6  A    between atoms: C_11  and  N_12
REMARK    7  A    between atoms: C_17  and  O_18
REMARK    8  A    between atoms: O_18  and  C_19
REMARK    9  A    between atoms: C_23  and  N_24
REMARK   10  A    between atoms: N_24  and  C_25
REMARK   11  A    between atoms: N_24  and  C_26
REMARK                            x       y       z     vdW  Elec       q    Type
REMARK                         _______ _______ _______ _____ _____    ______ ____
ROOT
ATOM      1  C   UNL     1       2.651   2.170  19.972  0.00  0.00    +0.000 A 
ATOM      2  C   UNL     1       3.935   2.694  20.100  0.00  0.00    +0.000 A 
ATOM      3  C   UNL     1       4.406   3.504  19.076  0.00  0.00    +0.000 A 
ATOM      4  C   UNL     1       4.167   4.970  19.156  0.00  0.00    +0.000 A 
ATOM      5  C   UNL     1       4.335   5.755  18.048  0.00  0.00    +0.000 A 
ATOM      6  N   UNL     1       4.829   5.216  16.867  0.00  0.00    +0.000 N 
ATOM      7  C   UNL     1       4.688   3.818  16.657  0.00  0.00    +0.000 A 
ATOM      8  O   UNL     1       4.969   3.213  15.637  0.00  0.00    +0.000 OA
ATOM      9  C   UNL     1       4.060   3.087  17.792  0.00  0.00    +0.000 A 
ATOM     10  C   UNL     1       2.776   2.581  17.617  0.00  0.00    +0.000 A 
ATOM     11  C   UNL     1       2.003   2.412  18.759  0.00  0.00    +0.000 A 
ATOM     12  C   UNL     1       3.547   6.999  18.178  0.00  0.00    +0.000 A 
ATOM     13  C   UNL     1       3.343   8.108  17.381  0.00  0.00    +0.000 A 
ATOM     14  C   UNL     1       2.336   9.035  17.726  0.00  0.00    +0.000 A 
ATOM     15  C   UNL     1       1.482   8.872  18.848  0.00  0.00    +0.000 A 
ATOM     16  C   UNL     1       1.719   7.754  19.647  0.00  0.00    +0.000 A 
ATOM     17  C   UNL     1       2.763   6.888  19.320  0.00  0.00    +0.000 A 
ATOM     18  C   UNL     1       3.178   5.677  20.024  0.00  0.00    +0.000 C 
ATOM     19  O   UNL     1       2.745   5.321  21.103  0.00  0.00    +0.000 OA
ENDROOT
BRANCH  15  20
ATOM     20  N   UNL     1       0.429   9.764  19.061  0.00  0.00    +0.000 N 
ATOM     21  C   UNL     1      -0.176   9.813  20.396  0.00  0.00    +0.000 C 
ATOM     22  C   UNL     1      -0.508  10.086  17.981  0.00  0.00    +0.000 C 
ENDBRANCH  15  20
BRANCH   1  24
ATOM     23  C   UNL     1       1.637   2.327  22.116  0.00  0.00    +0.000 C 
ATOM     24  O   UNL     1       2.170   1.523  21.071  0.00  0.00    +0.000 OA
ENDBRANCH   1  24
BRANCH  11  25
ATOM     25  O   UNL     1       0.646   2.649  18.766  0.00  0.00    +0.000 OA
ATOM     26  C   UNL     1       0.210   3.804  19.497  0.00  0.00    +0.000 C 
ENDBRANCH  11  25
BRANCH   6  27
ATOM     27  C   UNL     1       5.366   6.008  15.784  0.00  0.00    +0.000 C 
BRANCH  27  28
ATOM     28  C   UNL     1       6.866   5.819  15.538  0.00  0.00    +0.000 C 
BRANCH  28  29
ATOM     29  C   UNL     1       7.156   5.060  14.247  0.00  0.00    +0.000 C 
BRANCH  29  30
ATOM     30  N   UNL     1       8.297   5.668  13.565  0.00  0.00    +0.000 NA
ATOM     31  H   UNL     1       8.017   5.992  12.639  0.00  0.00    +0.000 HD
ATOM     32  H   UNL     1       9.017   4.962  13.411  0.00  0.00    +0.000 HD
ENDBRANCH  29  30
ENDBRANCH  28  29
ENDBRANCH  27  28
ENDBRANCH   6  27
TORSDOF 7
ENDMDL
