MODEL 1
REMARK VINA RESULT:      -6.8      0.000      0.000
REMARK  Name = 
REMARK  8 active torsions:
REMARK  status: ('A' for Active; 'I' for Inactive)
REMARK    1  A    between atoms: C_1  and  C_2
REMARK    2  A    between atoms: C_2  and  C_3
REMARK    3  A    between atoms: C_2  and  O_4
REMARK    4  A    between atoms: C_2  and  C_5
REMARK    5  A    between atoms: C_5  and  N_6
REMARK    6  A    between atoms: C_10  and  C_12
REMARK    7  A    between atoms: C_12  and  O_13
REMARK    8  A    between atoms: O_13  and  C_14
REMARK                            x       y       z     vdW  Elec       q    Type
REMARK                         _______ _______ _______ _____ _____    ______ ____
ROOT
ATOM      1  N   UNL     1       6.490   5.098  14.618  0.00  0.00    +0.000 NA
ATOM      2  C   UNL     1       5.277   5.673  15.244  0.00  0.00    +0.000 C 
ATOM      3  C   UNL     1       4.802   4.898  16.482  0.00  0.00    +0.000 C 
ATOM      4  N   UNL     1       5.875   4.856  17.482  0.00  0.00    +0.000 N 
ATOM      5  C   UNL     1       5.742   5.264  18.798  0.00  0.00    +0.000 C 
ATOM      6  O   UNL     1       6.667   5.217  19.605  0.00  0.00    +0.000 OA
ATOM      7  C   UNL     1       7.167   4.368  16.979  0.00  0.00    +0.000 C 
ATOM      8  C   UNL     1       7.557   5.070  15.654  0.00  0.00    +0.000 C 
ENDROOT
BRANCH   1   9
ATOM      9  C   UNL     1       6.261   3.741  14.058  0.00  0.00    +0.000 C 
BRANCH   9  11
ATOM     10  C   UNL     1       7.168   4.679  11.894  0.00  0.00    +0.000 C 
ATOM     11  C   UNL     1       6.254   3.613  12.500  0.00  0.00    +0.000 C 
ATOM     12  C   UNL     1       4.832   3.746  11.948  0.00  0.00    +0.000 C 
BRANCH  11  13
ATOM     13  O   UNL     1       6.821   2.357  12.099  0.00  0.00    +0.000 OA
ATOM     14  H   UNL     1       7.666   2.542  11.652  0.00  0.00    +0.000 HD
ENDBRANCH  11  13
ENDBRANCH   9  11
ENDBRANCH   1   9
BRANCH   5  15
ATOM     15  C   UNL     1       4.362   5.809  19.223  0.00  0.00    +0.000 C 
BRANCH  15  16
ATOM     16  O   UNL     1       3.574   4.987  20.076  0.00  0.00    +0.000 OA
BRANCH  16  17
ATOM     17  C   UNL     1       2.544   4.285  19.396  0.00  0.00    +0.000 C 
ATOM     18  C   UNL     1       2.923   2.849  19.065  0.00  0.00    +0.000 C 
ATOM     19  C   UNL     1       1.582   2.178  18.823  0.00  0.00    +0.000 C 
ATOM     20  C   UNL     1       0.588   2.904  19.730  0.00  0.00    +0.000 C 
ATOM     21  C   UNL     1       1.337   4.101  20.311  0.00  0.00    +0.000 C 
ENDBRANCH  16  17
ENDBRANCH  15  16
ENDBRANCH   5  15
TORSDOF 6
ENDMDL
MODEL 2
REMARK VINA RESULT:      -6.8      0.871      1.224
REMARK  Name = 
REMARK  8 active torsions:
REMARK  status: ('A' for Active; 'I' for Inactive)
REMARK    1  A    between atoms: C_1  and  C_2
REMARK    2  A    between atoms: C_2  and  C_3
REMARK    3  A    between atoms: C_2  and  O_4
REMARK    4  A    between atoms: C_2  and  C_5
REMARK    5  A    between atoms: C_5  and  N_6
REMARK    6  A    between atoms: C_10  and  C_12
REMARK    7  A    between atoms: C_12  and  O_13
REMARK    8  A    between atoms: O_13  and  C_14
REMARK                            x       y       z     vdW  Elec       q    Type
REMARK                         _______ _______ _______ _____ _____    ______ ____
ROOT
ATOM      1  N   UNL     1       5.907   4.788  14.548  0.00  0.00    +0.000 NA
ATOM      2  C   UNL     1       4.710   4.663  15.412  0.00  0.00    +0.000 C 
ATOM      3  C   UNL     1       4.937   3.777  16.646  0.00  0.00    +0.000 C 
ATOM      4  N   UNL     1       6.043   4.315  17.445  0.00  0.00    +0.000 N 
ATOM      5  C   UNL     1       5.965   4.620  18.793  0.00  0.00    +0.000 C 
ATOM      6  O   UNL     1       6.913   5.074  19.429  0.00  0.00    +0.000 OA
ATOM      7  C   UNL     1       7.284   4.558  16.696  0.00  0.00    +0.000 C 
ATOM      8  C   UNL     1       7.008   5.336  15.385  0.00  0.00    +0.000 C 
ENDROOT
BRANCH   1   9
ATOM      9  C   UNL     1       6.306   3.500  13.927  0.00  0.00    +0.000 C 
BRANCH   9  11
ATOM     10  C   UNL     1       7.132   4.515  11.766  0.00  0.00    +0.000 C 
ATOM     11  C   UNL     1       6.249   3.420  12.367  0.00  0.00    +0.000 C 
ATOM     12  C   UNL     1       4.808   3.555  11.866  0.00  0.00    +0.000 C 
BRANCH  11  13
ATOM     13  O   UNL     1       6.815   2.184  11.908  0.00  0.00    +0.000 OA
ATOM     14  H   UNL     1       6.775   1.547  12.643  0.00  0.00    +0.000 HD
ENDBRANCH  11  13
ENDBRANCH   9  11
ENDBRANCH   1   9
BRANCH   5  15
ATOM     15  C   UNL     1       4.607   4.379  19.485  0.00  0.00    +0.000 C 
BRANCH  15  16
ATOM     16  O   UNL     1       4.359   3.073  19.993  0.00  0.00    +0.000 OA
BRANCH  16  17
ATOM     17  C   UNL     1       2.981   2.795  20.197  0.00  0.00    +0.000 C 
ATOM     18  C   UNL     1       2.168   4.037  20.525  0.00  0.00    +0.000 C 
ATOM     19  C   UNL     1       0.742   3.617  20.212  0.00  0.00    +0.000 C 
ATOM     20  C   UNL     1       0.851   2.607  19.069  0.00  0.00    +0.000 C 
ATOM     21  C   UNL     1       2.341   2.319  18.897  0.00  0.00    +0.000 C 
ENDBRANCH  16  17
ENDBRANCH  15  16
ENDBRANCH   5  15
TORSDOF 6
ENDMDL
MODEL 3
REMARK VINA RESULT:      -6.7      2.020      6.891
REMARK  Name = 
REMARK  8 active torsions:
REMARK  status: ('A' for Active; 'I' for Inactive)
REMARK    1  A    between atoms: C_1  and  C_2
REMARK    2  A    between atoms: C_2  and  C_3
REMARK    3  A    between atoms: C_2  and  O_4
REMARK    4  A    between atoms: C_2  and  C_5
REMARK    5  A    between atoms: C_5  and  N_6
REMARK    6  A    between atoms: C_10  and  C_12
REMARK    7  A    between atoms: C_12  and  O_13
REMARK    8  A    between atoms: O_13  and  C_14
REMARK                            x       y       z     vdW  Elec       q    Type
REMARK                         _______ _______ _______ _____ _____    ______ ____
ROOT
ATOM      1  N   UNL     1       3.419   4.355  19.679  0.00  0.00    +0.000 NA
ATOM      2  C   UNL     1       4.567   3.687  19.026  0.00  0.00    +0.000 C 
ATOM      3  C   UNL     1       4.770   4.111  17.564  0.00  0.00    +0.000 C 
ATOM      4  N   UNL     1       4.965   5.563  17.492  0.00  0.00    +0.000 N 
ATOM      5  C   UNL     1       6.040   6.184  16.881  0.00  0.00    +0.000 C 
ATOM      6  O   UNL     1       6.170   7.405  16.845  0.00  0.00    +0.000 OA
ATOM      7  C   UNL     1       3.928   6.358  18.165  0.00  0.00    +0.000 C 
ATOM      8  C   UNL     1       3.646   5.823  19.592  0.00  0.00    +0.000 C 
ENDROOT
BRANCH   1   9
ATOM      9  C   UNL     1       2.115   3.985  19.073  0.00  0.00    +0.000 C 
BRANCH   9  11
ATOM     10  C   UNL     1       1.608   2.745  21.215  0.00  0.00    +0.000 C 
ATOM     11  C   UNL     1       1.360   2.771  19.706  0.00  0.00    +0.000 C 
ATOM     12  C   UNL     1       1.808   1.455  19.064  0.00  0.00    +0.000 C 
BRANCH  11  13
ATOM     13  O   UNL     1      -0.058   2.932  19.559  0.00  0.00    +0.000 OA
ATOM     14  H   UNL     1      -0.304   2.607  18.675  0.00  0.00    +0.000 HD
ENDBRANCH  11  13
ENDBRANCH   9  11
ENDBRANCH   1   9
BRANCH   5  15
ATOM     15  C   UNL     1       7.105   5.267  16.243  0.00  0.00    +0.000 C 
BRANCH  15  16
ATOM     16  O   UNL     1       7.563   5.611  14.940  0.00  0.00    +0.000 OA
BRANCH  16  17
ATOM     17  C   UNL     1       7.410   4.567  13.990  0.00  0.00    +0.000 C 
ATOM     18  C   UNL     1       5.974   4.078  13.872  0.00  0.00    +0.000 C 
ATOM     19  C   UNL     1       5.952   3.374  12.526  0.00  0.00    +0.000 C 
ATOM     20  C   UNL     1       6.969   4.114  11.657  0.00  0.00    +0.000 C 
ATOM     21  C   UNL     1       7.695   5.085  12.584  0.00  0.00    +0.000 C 
ENDBRANCH  16  17
ENDBRANCH  15  16
ENDBRANCH   5  15
TORSDOF 6
ENDMDL
MODEL 4
REMARK VINA RESULT:      -6.6      1.865      6.806
REMARK  Name = 
REMARK  8 active torsions:
REMARK  status: ('A' for Active; 'I' for Inactive)
REMARK    1  A    between atoms: C_1  and  C_2
REMARK    2  A    between atoms: C_2  and  C_3
REMARK    3  A    between atoms: C_2  and  O_4
REMARK    4  A    between atoms: C_2  and  C_5
REMARK    5  A    between atoms: C_5  and  N_6
REMARK    6  A    between atoms: C_10  and  C_12
REMARK    7  A    between atoms: C_12  and  O_13
REMARK    8  A    between atoms: O_13  and  C_14
REMARK                            x       y       z     vdW  Elec       q    Type
REMARK                         _______ _______ _______ _____ _____    ______ ____
ROOT
ATOM      1  N   UNL     1       3.254   3.235  18.651  0.00  0.00    +0.000 NA
ATOM      2  C   UNL     1       3.540   3.940  17.380  0.00  0.00    +0.000 C 
ATOM      3  C   UNL     1       4.414   5.190  17.558  0.00  0.00    +0.000 C 
ATOM      4  N   UNL     1       5.685   4.820  18.191  0.00  0.00    +0.000 N 
ATOM      5  C   UNL     1       6.936   5.119  17.679  0.00  0.00    +0.000 C 
ATOM      6  O   UNL     1       7.979   4.787  18.236  0.00  0.00    +0.000 OA
ATOM      7  C   UNL     1       5.553   4.049  19.434  0.00  0.00    +0.000 C 
ATOM      8  C   UNL     1       4.559   2.872  19.265  0.00  0.00    +0.000 C 
ENDROOT
BRANCH   1   9
ATOM      9  C   UNL     1       2.435   4.046  19.588  0.00  0.00    +0.000 C 
BRANCH   9  11
ATOM     10  C   UNL     1       1.450   2.738  21.511  0.00  0.00    +0.000 C 
ATOM     11  C   UNL     1       1.142   3.377  20.156  0.00  0.00    +0.000 C 
ATOM     12  C   UNL     1       0.594   2.332  19.180  0.00  0.00    +0.000 C 
BRANCH  11  13
ATOM     13  O   UNL     1       0.142   4.370  20.426  0.00  0.00    +0.000 OA
ATOM     14  H   UNL     1      -0.552   4.284  19.748  0.00  0.00    +0.000 HD
ENDBRANCH  11  13
ENDBRANCH   9  11
ENDBRANCH   1   9
BRANCH   5  15
ATOM     15  C   UNL     1       6.977   5.889  16.342  0.00  0.00    +0.000 C 
BRANCH  15  16
ATOM     16  O   UNL     1       7.719   5.305  15.277  0.00  0.00    +0.000 OA
BRANCH  16  17
ATOM     17  C   UNL     1       6.958   5.112  14.094  0.00  0.00    +0.000 C 
ATOM     18  C   UNL     1       7.823   4.951  12.853  0.00  0.00    +0.000 C 
ATOM     19  C   UNL     1       6.889   4.285  11.857  0.00  0.00    +0.000 C 
ATOM     20  C   UNL     1       5.942   3.424  12.693  0.00  0.00    +0.000 C 
ATOM     21  C   UNL     1       6.220   3.778  14.152  0.00  0.00    +0.000 C 
ENDBRANCH  16  17
ENDBRANCH  15  16
ENDBRANCH   5  15
TORSDOF 6
ENDMDL
MODEL 5
REMARK VINA RESULT:      -6.6      1.926      6.890
REMARK  Name = 
REMARK  8 active torsions:
REMARK  status: ('A' for Active; 'I' for Inactive)
REMARK    1  A    between atoms: C_1  and  C_2
REMARK    2  A    between atoms: C_2  and  C_3
REMARK    3  A    between atoms: C_2  and  O_4
REMARK    4  A    between atoms: C_2  and  C_5
REMARK    5  A    between atoms: C_5  and  N_6
REMARK    6  A    between atoms: C_10  and  C_12
REMARK    7  A    between atoms: C_12  and  O_13
REMARK    8  A    between atoms: O_13  and  C_14
REMARK                            x       y       z     vdW  Elec       q    Type
REMARK                         _______ _______ _______ _____ _____    ______ ____
ROOT
ATOM      1  N   UNL     1       3.567   4.317  19.576  0.00  0.00    +0.000 NA
ATOM      2  C   UNL     1       4.688   3.606  18.919  0.00  0.00    +0.000 C 
ATOM      3  C   UNL     1       4.901   4.021  17.456  0.00  0.00    +0.000 C 
ATOM      4  N   UNL     1       5.148   5.466  17.382  0.00  0.00    +0.000 N 
ATOM      5  C   UNL     1       6.243   6.047  16.766  0.00  0.00    +0.000 C 
ATOM      6  O   UNL     1       6.418   7.262  16.729  0.00  0.00    +0.000 OA
ATOM      7  C   UNL     1       4.144   6.299  18.059  0.00  0.00    +0.000 C 
ATOM      8  C   UNL     1       3.847   5.775  19.487  0.00  0.00    +0.000 C 
ENDROOT
BRANCH   1   9
ATOM      9  C   UNL     1       2.248   3.994  18.975  0.00  0.00    +0.000 C 
BRANCH   9  11
ATOM     10  C   UNL     1       1.997   2.574  21.049  0.00  0.00    +0.000 C 
ATOM     11  C   UNL     1       1.252   3.173  19.855  0.00  0.00    +0.000 C 
ATOM     12  C   UNL     1       0.577   2.071  19.033  0.00  0.00    +0.000 C 
BRANCH  11  13
ATOM     13  O   UNL     1       0.258   4.037  20.426  0.00  0.00    +0.000 OA
ATOM     14  H   UNL     1       0.672   4.905  20.581  0.00  0.00    +0.000 HD
ENDBRANCH  11  13
ENDBRANCH   9  11
ENDBRANCH   1   9
BRANCH   5  15
ATOM     15  C   UNL     1       7.271   5.091  16.125  0.00  0.00    +0.000 C 
BRANCH  15  16
ATOM     16  O   UNL     1       7.813   5.469  14.865  0.00  0.00    +0.000 OA
BRANCH  16  17
ATOM     17  C   UNL     1       6.986   5.121  13.764  0.00  0.00    +0.000 C 
ATOM     18  C   UNL     1       7.774   4.860  12.489  0.00  0.00    +0.000 C 
ATOM     19  C   UNL     1       6.808   4.056  11.636  0.00  0.00    +0.000 C 
ATOM     20  C   UNL     1       5.956   3.255  12.622  0.00  0.00    +0.000 C 
ATOM     21  C   UNL     1       6.313   3.775  14.013  0.00  0.00    +0.000 C 
ENDBRANCH  16  17
ENDBRANCH  15  16
ENDBRANCH   5  15
TORSDOF 6
ENDMDL
MODEL 6
REMARK VINA RESULT:      -6.5      1.800      6.916
REMARK  Name = 
REMARK  8 active torsions:
REMARK  status: ('A' for Active; 'I' for Inactive)
REMARK    1  A    between atoms: C_1  and  C_2
REMARK    2  A    between atoms: C_2  and  C_3
REMARK    3  A    between atoms: C_2  and  O_4
REMARK    4  A    between atoms: C_2  and  C_5
REMARK    5  A    between atoms: C_5  and  N_6
REMARK    6  A    between atoms: C_10  and  C_12
REMARK    7  A    between atoms: C_12  and  O_13
REMARK    8  A    between atoms: O_13  and  C_14
REMARK                            x       y       z     vdW  Elec       q    Type
REMARK                         _______ _______ _______ _____ _____    ______ ____
ROOT
ATOM      1  N   UNL     1       3.796   4.043  19.260  0.00  0.00    +0.000 NA
ATOM      2  C   UNL     1       4.534   3.304  18.210  0.00  0.00    +0.000 C 
ATOM      3  C   UNL     1       4.570   4.035  16.859  0.00  0.00    +0.000 C 
ATOM      4  N   UNL     1       5.183   5.358  17.028  0.00  0.00    +0.000 N 
ATOM      5  C   UNL     1       6.257   5.827  16.292  0.00  0.00    +0.000 C 
ATOM      6  O   UNL     1       6.745   6.941  16.465  0.00  0.00    +0.000 OA
ATOM      7  C   UNL     1       4.591   6.180  18.093  0.00  0.00    +0.000 C 
ATOM      8  C   UNL     1       4.440   5.375  19.408  0.00  0.00    +0.000 C 
ENDROOT
BRANCH   1   9
ATOM      9  C   UNL     1       2.349   4.186  18.955  0.00  0.00    +0.000 C 
BRANCH   9  11
ATOM     10  C   UNL     1       2.112   2.636  20.937  0.00  0.00    +0.000 C 
ATOM     11  C   UNL     1       1.362   3.297  19.778  0.00  0.00    +0.000 C 
ATOM     12  C   UNL     1       0.710   2.236  18.886  0.00  0.00    +0.000 C 
BRANCH  11  13
ATOM     13  O   UNL     1       0.352   4.108  20.395  0.00  0.00    +0.000 OA
ATOM     14  H   UNL     1      -0.098   3.563  21.065  0.00  0.00    +0.000 HD
ENDBRANCH  11  13
ENDBRANCH   9  11
ENDBRANCH   1   9
BRANCH   5  15
ATOM     15  C   UNL     1       6.844   4.875  15.229  0.00  0.00    +0.000 C 
BRANCH  15  16
ATOM     16  O   UNL     1       6.287   4.938  13.921  0.00  0.00    +0.000 OA
BRANCH  16  17
ATOM     17  C   UNL     1       6.202   3.675  13.278  0.00  0.00    +0.000 C 
ATOM     18  C   UNL     1       4.926   3.508  12.467  0.00  0.00    +0.000 C 
ATOM     19  C   UNL     1       5.260   2.373  11.514  0.00  0.00    +0.000 C 
ATOM     20  C   UNL     1       6.761   2.488  11.248  0.00  0.00    +0.000 C 
ATOM     21  C   UNL     1       7.285   3.551  12.211  0.00  0.00    +0.000 C 
ENDBRANCH  16  17
ENDBRANCH  15  16
ENDBRANCH   5  15
TORSDOF 6
ENDMDL
MODEL 7
REMARK VINA RESULT:      -6.5      0.836      1.217
REMARK  Name = 
REMARK  8 active torsions:
REMARK  status: ('A' for Active; 'I' for Inactive)
REMARK    1  A    between atoms: C_1  and  C_2
REMARK    2  A    between atoms: C_2  and  C_3
REMARK    3  A    between atoms: C_2  and  O_4
REMARK    4  A    between atoms: C_2  and  C_5
REMARK    5  A    between atoms: C_5  and  N_6
REMARK    6  A    between atoms: C_10  and  C_12
REMARK    7  A    between atoms: C_12  and  O_13
REMARK    8  A    between atoms: O_13  and  C_14
REMARK                            x       y       z     vdW  Elec       q    Type
REMARK                         _______ _______ _______ _____ _____    ______ ____
ROOT
ATOM      1  N   UNL     1       6.501   5.107  14.635  0.00  0.00    +0.000 NA
ATOM      2  C   UNL     1       5.261   5.682  15.206  0.00  0.00    +0.000 C 
ATOM      3  C   UNL     1       4.731   4.905  16.420  0.00  0.00    +0.000 C 
ATOM      4  N   UNL     1       5.758   4.862  17.467  0.00  0.00    +0.000 N 
ATOM      5  C   UNL     1       5.566   5.269  18.776  0.00  0.00    +0.000 C 
ATOM      6  O   UNL     1       6.453   5.221  19.625  0.00  0.00    +0.000 OA
ATOM      7  C   UNL     1       7.071   4.374  17.023  0.00  0.00    +0.000 C 
ATOM      8  C   UNL     1       7.521   5.078  15.718  0.00  0.00    +0.000 C 
ENDROOT
BRANCH   1   9
ATOM      9  C   UNL     1       6.298   3.752  14.063  0.00  0.00    +0.000 C 
BRANCH   9  11
ATOM     10  C   UNL     1       7.172   4.740  11.908  0.00  0.00    +0.000 C 
ATOM     11  C   UNL     1       6.297   3.636  12.505  0.00  0.00    +0.000 C 
ATOM     12  C   UNL     1       4.871   3.721  11.952  0.00  0.00    +0.000 C 
BRANCH  11  13
ATOM     13  O   UNL     1       6.910   2.405  12.093  0.00  0.00    +0.000 OA
ATOM     14  H   UNL     1       6.223   1.857  11.673  0.00  0.00    +0.000 HD
ENDBRANCH  11  13
ENDBRANCH   9  11
ENDBRANCH   1   9
BRANCH   5  15
ATOM     15  C   UNL     1       4.168   5.813  19.139  0.00  0.00    +0.000 C 
BRANCH  15  16
ATOM     16  O   UNL     1       3.077   4.902  19.069  0.00  0.00    +0.000 OA
BRANCH  16  17
ATOM     17  C   UNL     1       2.737   4.325  20.321  0.00  0.00    +0.000 C 
ATOM     18  C   UNL     1       1.262   3.967  20.428  0.00  0.00    +0.000 C 
ATOM     19  C   UNL     1       1.226   2.961  21.566  0.00  0.00    +0.000 C 
ATOM     20  C   UNL     1       2.566   2.227  21.510  0.00  0.00    +0.000 C 
ATOM     21  C   UNL     1       3.414   2.967  20.479  0.00  0.00    +0.000 C 
ENDBRANCH  16  17
ENDBRANCH  15  16
ENDBRANCH   5  15
TORSDOF 6
ENDMDL
MODEL 8
REMARK VINA RESULT:      -6.4      1.818      7.116
REMARK  Name = 
REMARK  8 active torsions:
REMARK  status: ('A' for Active; 'I' for Inactive)
REMARK    1  A    between atoms: C_1  and  C_2
REMARK    2  A    between atoms: C_2  and  C_3
REMARK    3  A    between atoms: C_2  and  O_4
REMARK    4  A    between atoms: C_2  and  C_5
REMARK    5  A    between atoms: C_5  and  N_6
REMARK    6  A    between atoms: C_10  and  C_12
REMARK    7  A    between atoms: C_12  and  O_13
REMARK    8  A    between atoms: O_13  and  C_14
REMARK                            x       y       z     vdW  Elec       q    Type
REMARK                         _______ _______ _______ _____ _____    ______ ____
ROOT
ATOM      1  N   UNL     1       4.365   4.705  19.533  0.00  0.00    +0.000 NA
ATOM      2  C   UNL     1       5.559   4.171  18.839  0.00  0.00    +0.000 C 
ATOM      3  C   UNL     1       5.336   3.927  17.339  0.00  0.00    +0.000 C 
ATOM      4  N   UNL     1       4.931   5.178  16.689  0.00  0.00    +0.000 N 
ATOM      5  C   UNL     1       5.561   5.733  15.588  0.00  0.00    +0.000 C 
ATOM      6  O   UNL     1       5.194   6.787  15.073  0.00  0.00    +0.000 OA
ATOM      7  C   UNL     1       3.792   5.860  17.319  0.00  0.00    +0.000 C 
ATOM      8  C   UNL     1       3.981   5.971  18.853  0.00  0.00    +0.000 C 
ENDROOT
BRANCH   1   9
ATOM      9  C   UNL     1       3.230   3.747  19.547  0.00  0.00    +0.000 C 
BRANCH   9  11
ATOM     10  C   UNL     1       2.354   2.721  21.683  0.00  0.00    +0.000 C 
ATOM     11  C   UNL     1       2.197   3.892  20.711  0.00  0.00    +0.000 C 
ATOM     12  C   UNL     1       0.767   3.952  20.168  0.00  0.00    +0.000 C 
BRANCH  11  13
ATOM     13  O   UNL     1       2.478   5.066  21.487  0.00  0.00    +0.000 OA
ATOM     14  H   UNL     1       1.637   5.535  21.630  0.00  0.00    +0.000 HD
ENDBRANCH  11  13
ENDBRANCH   9  11
ENDBRANCH   1   9
BRANCH   5  15
ATOM     15  C   UNL     1       6.779   4.972  15.024  0.00  0.00    +0.000 C 
BRANCH  15  16
ATOM     16  O   UNL     1       6.857   4.826  13.610  0.00  0.00    +0.000 OA
BRANCH  16  17
ATOM     17  C   UNL     1       6.223   3.652  13.125  0.00  0.00    +0.000 C 
ATOM     18  C   UNL     1       4.902   3.937  12.426  0.00  0.00    +0.000 C 
ATOM     19  C   UNL     1       4.670   2.690  11.590  0.00  0.00    +0.000 C 
ATOM     20  C   UNL     1       6.061   2.182  11.212  0.00  0.00    +0.000 C 
ATOM     21  C   UNL     1       7.053   3.026  12.009  0.00  0.00    +0.000 C 
ENDBRANCH  16  17
ENDBRANCH  15  16
ENDBRANCH   5  15
TORSDOF 6
ENDMDL
MODEL 9
REMARK VINA RESULT:      -6.3      1.910      6.999
REMARK  Name = 
REMARK  8 active torsions:
REMARK  status: ('A' for Active; 'I' for Inactive)
REMARK    1  A    between atoms: C_1  and  C_2
REMARK    2  A    between atoms: C_2  and  C_3
REMARK    3  A    between atoms: C_2  and  O_4
REMARK    4  A    between atoms: C_2  and  C_5
REMARK    5  A    between atoms: C_5  and  N_6
REMARK    6  A    between atoms: C_10  and  C_12
REMARK    7  A    between atoms: C_12  and  O_13
REMARK    8  A    between atoms: O_13  and  C_14
REMARK                            x       y       z     vdW  Elec       q    Type
REMARK                         _______ _______ _______ _____ _____    ______ ____
ROOT
ATOM      1  N   UNL     1       3.874   3.936  19.531  0.00  0.00    +0.000 NA
ATOM      2  C   UNL     1       4.892   3.329  18.643  0.00  0.00    +0.000 C 
ATOM      3  C   UNL     1       4.847   3.865  17.204  0.00  0.00    +0.000 C 
ATOM      4  N   UNL     1       5.033   5.320  17.212  0.00  0.00    +0.000 N 
ATOM      5  C   UNL     1       5.992   5.995  16.476  0.00  0.00    +0.000 C 
ATOM      6  O   UNL     1       6.120   7.216  16.513  0.00  0.00    +0.000 OA
ATOM      7  C   UNL     1       4.129   6.052  18.110  0.00  0.00    +0.000 C 
ATOM      8  C   UNL     1       4.090   5.408  19.518  0.00  0.00    +0.000 C 
ENDROOT
BRANCH   1   9
ATOM      9  C   UNL     1       2.485   3.602  19.127  0.00  0.00    +0.000 C 
BRANCH   9  11
ATOM     10  C   UNL     1       0.975   5.003  20.590  0.00  0.00    +0.000 C 
ATOM     11  C   UNL     1       1.408   3.574  20.259  0.00  0.00    +0.000 C 
ATOM     12  C   UNL     1       1.947   2.872  21.509  0.00  0.00    +0.000 C 
BRANCH  11  13
ATOM     13  O   UNL     1       0.218   2.915  19.802  0.00  0.00    +0.000 OA
ATOM     14  H   UNL     1       0.332   2.719  18.855  0.00  0.00    +0.000 HD
ENDBRANCH  11  13
ENDBRANCH   9  11
ENDBRANCH   1   9
BRANCH   5  15
ATOM     15  C   UNL     1       6.929   5.138  15.599  0.00  0.00    +0.000 C 
BRANCH  15  16
ATOM     16  O   UNL     1       6.779   5.248  14.188  0.00  0.00    +0.000 OA
BRANCH  16  17
ATOM     17  C   UNL     1       6.535   4.007  13.544  0.00  0.00    +0.000 C 
ATOM     18  C   UNL     1       5.121   3.893  12.993  0.00  0.00    +0.000 C 
ATOM     19  C   UNL     1       5.232   2.779  11.966  0.00  0.00    +0.000 C 
ATOM     20  C   UNL     1       6.655   2.867  11.415  0.00  0.00    +0.000 C 
ATOM     21  C   UNL     1       7.386   3.889  12.283  0.00  0.00    +0.000 C 
ENDBRANCH  16  17
ENDBRANCH  15  16
ENDBRANCH   5  15
TORSDOF 6
ENDMDL
