MODEL 1
REMARK VINA RESULT:      -7.5      0.000      0.000
REMARK  Name = 
REMARK  10 active torsions:
REMARK  status: ('A' for Active; 'I' for Inactive)
REMARK    1  A    between atoms: C_1  and  N_2
REMARK    2  A    between atoms: N_2  and  C_3
REMARK    3  A    between atoms: N_2  and  C_4
REMARK    4  A    between atoms: C_4  and  C_5
REMARK    5  A    between atoms: C_5  and  N_6
REMARK    6  A    between atoms: C_11  and  N_12
REMARK    7  A    between atoms: N_12  and  C_13
REMARK    8  A    between atoms: C_13  and  C_14
REMARK    9  A    between atoms: C_14  and  C_15
REMARK   10  A    between atoms: C_15  and  N_16
REMARK                            x       y       z     vdW  Elec       q    Type
REMARK                         _______ _______ _______ _____ _____    ______ ____
ROOT
ATOM      1  N   UNL     1       2.442   8.474  18.263  0.00  0.00    +0.000 N 
ATOM      2  N   UNL     1       3.303   8.192  17.252  0.00  0.00    +0.000 NA
ATOM      3  C   UNL     1       3.704   6.949  17.527  0.00  0.00    +0.000 A 
ATOM      4  C   UNL     1       3.115   6.459  18.697  0.00  0.00    +0.000 A 
ATOM      5  C   UNL     1       3.291   5.229  19.334  0.00  0.00    +0.000 A 
ATOM      6  C   UNL     1       2.541   4.985  20.503  0.00  0.00    +0.000 A 
ATOM      7  C   UNL     1       1.683   6.015  20.961  0.00  0.00    +0.000 A 
ATOM      8  C   UNL     1       1.532   7.256  20.317  0.00  0.00    +0.000 A 
ATOM      9  C   UNL     1       2.281   7.449  19.160  0.00  0.00    +0.000 A 
ATOM     10  C   UNL     1       4.284   4.339  18.633  0.00  0.00    +0.000 C 
ATOM     11  O   UNL     1       4.620   3.254  19.090  0.00  0.00    +0.000 OA
ATOM     12  C   UNL     1       4.916   4.832  17.335  0.00  0.00    +0.000 A 
ATOM     13  C   UNL     1       5.815   4.011  16.653  0.00  0.00    +0.000 A 
ATOM     14  C   UNL     1       6.380   4.493  15.483  0.00  0.00    +0.000 A 
ATOM     15  N   UNL     1       6.116   5.712  14.956  0.00  0.00    +0.000 NA
ATOM     16  C   UNL     1       5.246   6.499  15.632  0.00  0.00    +0.000 A 
ATOM     17  C   UNL     1       4.628   6.111  16.807  0.00  0.00    +0.000 A 
ENDROOT
BRANCH   6  18
ATOM     18  N   UNL     1       2.635   3.769  21.190  0.00  0.00    +0.000 N 
ATOM     19  H   UNL     1       2.996   3.912  22.135  0.00  0.00    +0.000 HD
BRANCH  18  20
ATOM     20  C   UNL     1       1.580   2.772  21.061  0.00  0.00    +0.000 C 
BRANCH  20  21
ATOM     21  C   UNL     1       0.640   3.083  19.900  0.00  0.00    +0.000 C 
BRANCH  21  22
ATOM     22  C   UNL     1       0.980   2.282  18.646  0.00  0.00    +0.000 C 
BRANCH  22  23
ATOM     23  N   UNL     1       2.200   1.509  18.851  0.00  0.00    +0.000 NA
ATOM     24  H   UNL     1       2.137   0.975  19.716  0.00  0.00    +0.000 HD
ATOM     25  H   UNL     1       2.990   2.143  18.958  0.00  0.00    +0.000 HD
ENDBRANCH  22  23
ENDBRANCH  21  22
ENDBRANCH  20  21
ENDBRANCH  18  20
ENDBRANCH   6  18
BRANCH   1  26
ATOM     26  C   UNL     1       1.841   9.796  18.360  0.00  0.00    +0.000 C 
BRANCH  26  27
ATOM     27  C   UNL     1       0.347   9.786  18.026  0.00  0.00    +0.000 C 
BRANCH  27  29
ATOM     28  C   UNL     1      -1.842  10.729  18.358  0.00  0.00    +0.000 C 
ATOM     29  N   UNL     1      -0.456  10.726  18.840  0.00  0.00    +0.000 NA
ATOM     30  C   UNL     1      -0.433  10.401  20.267  0.00  0.00    +0.000 C 
ENDBRANCH  27  29
ENDBRANCH  26  27
ENDBRANCH   1  26
TORSDOF 8
ENDMDL
MODEL 2
REMARK VINA RESULT:      -7.0      1.107      1.409
REMARK  Name = 
REMARK  10 active torsions:
REMARK  status: ('A' for Active; 'I' for Inactive)
REMARK    1  A    between atoms: C_1  and  N_2
REMARK    2  A    between atoms: N_2  and  C_3
REMARK    3  A    between atoms: N_2  and  C_4
REMARK    4  A    between atoms: C_4  and  C_5
REMARK    5  A    between atoms: C_5  and  N_6
REMARK    6  A    between atoms: C_11  and  N_12
REMARK    7  A    between atoms: N_12  and  C_13
REMARK    8  A    between atoms: C_13  and  C_14
REMARK    9  A    between atoms: C_14  and  C_15
REMARK   10  A    between atoms: C_15  and  N_16
REMARK                            x       y       z     vdW  Elec       q    Type
REMARK                         _______ _______ _______ _____ _____    ______ ____
ROOT
ATOM      1  N   UNL     1       2.171   8.595  18.421  0.00  0.00    +0.000 N 
ATOM      2  N   UNL     1       3.042   8.350  17.408  0.00  0.00    +0.000 NA
ATOM      3  C   UNL     1       3.495   7.124  17.679  0.00  0.00    +0.000 A 
ATOM      4  C   UNL     1       2.927   6.607  18.848  0.00  0.00    +0.000 A 
ATOM      5  C   UNL     1       3.154   5.383  19.482  0.00  0.00    +0.000 A 
ATOM      6  C   UNL     1       2.416   5.105  20.651  0.00  0.00    +0.000 A 
ATOM      7  C   UNL     1       1.517   6.098  21.112  0.00  0.00    +0.000 A 
ATOM      8  C   UNL     1       1.314   7.334  20.472  0.00  0.00    +0.000 A 
ATOM      9  C   UNL     1       2.053   7.561  19.315  0.00  0.00    +0.000 A 
ATOM     10  C   UNL     1       4.182   4.538  18.777  0.00  0.00    +0.000 C 
ATOM     11  O   UNL     1       4.563   3.466  19.231  0.00  0.00    +0.000 OA
ATOM     12  C   UNL     1       4.792   5.059  17.480  0.00  0.00    +0.000 A 
ATOM     13  C   UNL     1       5.722   4.278  16.795  0.00  0.00    +0.000 A 
ATOM     14  C   UNL     1       6.266   4.786  15.625  0.00  0.00    +0.000 A 
ATOM     15  N   UNL     1       5.952   5.994  15.102  0.00  0.00    +0.000 NA
ATOM     16  C   UNL     1       5.051   6.743  15.781  0.00  0.00    +0.000 A 
ATOM     17  C   UNL     1       4.451   6.327  16.956  0.00  0.00    +0.000 A 
ENDROOT
BRANCH   6  18
ATOM     18  N   UNL     1       2.560   3.892  21.335  0.00  0.00    +0.000 N 
ATOM     19  H   UNL     1       2.781   4.054  22.319  0.00  0.00    +0.000 HD
BRANCH  18  20
ATOM     20  C   UNL     1       1.650   2.788  21.063  0.00  0.00    +0.000 C 
BRANCH  20  21
ATOM     21  C   UNL     1       0.710   3.093  19.900  0.00  0.00    +0.000 C 
BRANCH  21  22
ATOM     22  C   UNL     1       1.016   2.246  18.669  0.00  0.00    +0.000 C 
BRANCH  22  23
ATOM     23  N   UNL     1       2.286   1.547  18.833  0.00  0.00    +0.000 NA
ATOM     24  H   UNL     1       3.033   2.061  18.367  0.00  0.00    +0.000 HD
ATOM     25  H   UNL     1       2.233   0.636  18.381  0.00  0.00    +0.000 HD
ENDBRANCH  22  23
ENDBRANCH  21  22
ENDBRANCH  20  21
ENDBRANCH  18  20
ENDBRANCH   6  18
BRANCH   1  26
ATOM     26  C   UNL     1       1.517   9.890  18.522  0.00  0.00    +0.000 C 
BRANCH  26  27
ATOM     27  C   UNL     1       2.372  11.025  17.951  0.00  0.00    +0.000 C 
BRANCH  27  29
ATOM     28  C   UNL     1       1.236  12.312  19.637  0.00  0.00    +0.000 C 
ATOM     29  N   UNL     1       1.908  12.378  18.334  0.00  0.00    +0.000 NA
ATOM     30  C   UNL     1       2.996  13.354  18.391  0.00  0.00    +0.000 C 
ENDBRANCH  27  29
ENDBRANCH  26  27
ENDBRANCH   1  26
TORSDOF 8
ENDMDL
MODEL 3
REMARK VINA RESULT:      -6.9      1.979      4.771
REMARK  Name = 
REMARK  10 active torsions:
REMARK  status: ('A' for Active; 'I' for Inactive)
REMARK    1  A    between atoms: C_1  and  N_2
REMARK    2  A    between atoms: N_2  and  C_3
REMARK    3  A    between atoms: N_2  and  C_4
REMARK    4  A    between atoms: C_4  and  C_5
REMARK    5  A    between atoms: C_5  and  N_6
REMARK    6  A    between atoms: C_11  and  N_12
REMARK    7  A    between atoms: N_12  and  C_13
REMARK    8  A    between atoms: C_13  and  C_14
REMARK    9  A    between atoms: C_14  and  C_15
REMARK   10  A    between atoms: C_15  and  N_16
REMARK                            x       y       z     vdW  Elec       q    Type
REMARK                         _______ _______ _______ _____ _____    ______ ____
ROOT
ATOM      1  N   UNL     1       1.680   7.771  19.982  0.00  0.00    +0.000 N 
ATOM      2  N   UNL     1       1.554   6.687  20.791  0.00  0.00    +0.000 NA
ATOM      3  C   UNL     1       2.350   5.781  20.218  0.00  0.00    +0.000 A 
ATOM      4  C   UNL     1       2.959   6.280  19.062  0.00  0.00    +0.000 A 
ATOM      5  C   UNL     1       3.829   5.648  18.171  0.00  0.00    +0.000 A 
ATOM      6  C   UNL     1       4.320   6.406  17.088  0.00  0.00    +0.000 A 
ATOM      7  C   UNL     1       3.874   7.745  16.967  0.00  0.00    +0.000 A 
ATOM      8  C   UNL     1       2.983   8.361  17.864  0.00  0.00    +0.000 A 
ATOM      9  C   UNL     1       2.534   7.581  18.925  0.00  0.00    +0.000 A 
ATOM     10  C   UNL     1       4.108   4.214  18.538  0.00  0.00    +0.000 C 
ATOM     11  O   UNL     1       4.788   3.483  17.829  0.00  0.00    +0.000 OA
ATOM     12  C   UNL     1       3.486   3.653  19.813  0.00  0.00    +0.000 A 
ATOM     13  C   UNL     1       3.757   2.337  20.187  0.00  0.00    +0.000 A 
ATOM     14  C   UNL     1       3.168   1.853  21.345  0.00  0.00    +0.000 A 
ATOM     15  N   UNL     1       2.343   2.577  22.139  0.00  0.00    +0.000 NA
ATOM     16  C   UNL     1       2.086   3.851  21.759  0.00  0.00    +0.000 A 
ATOM     17  C   UNL     1       2.625   4.427  20.623  0.00  0.00    +0.000 A 
ENDROOT
BRANCH   6  18
ATOM     18  N   UNL     1       5.216   5.861  16.162  0.00  0.00    +0.000 N 
ATOM     19  H   UNL     1       4.845   5.928  15.212  0.00  0.00    +0.000 HD
BRANCH  18  20
ATOM     20  C   UNL     1       6.646   6.102  16.300  0.00  0.00    +0.000 C 
BRANCH  20  21
ATOM     21  C   UNL     1       7.005   6.635  17.684  0.00  0.00    +0.000 C 
BRANCH  21  22
ATOM     22  C   UNL     1       7.630   5.565  18.574  0.00  0.00    +0.000 C 
BRANCH  22  23
ATOM     23  N   UNL     1       7.673   4.284  17.878  0.00  0.00    +0.000 NA
ATOM     24  H   UNL     1       8.157   3.591  18.447  0.00  0.00    +0.000 HD
ATOM     25  H   UNL     1       8.211   4.382  17.019  0.00  0.00    +0.000 HD
ENDBRANCH  22  23
ENDBRANCH  21  22
ENDBRANCH  20  21
ENDBRANCH  18  20
ENDBRANCH   6  18
BRANCH   1  26
ATOM     26  C   UNL     1       0.889   8.966  20.237  0.00  0.00    +0.000 C 
BRANCH  26  27
ATOM     27  C   UNL     1       0.802   9.304  21.727  0.00  0.00    +0.000 C 
BRANCH  27  29
ATOM     28  C   UNL     1       0.565  11.487  20.743  0.00  0.00    +0.000 C 
ATOM     29  N   UNL     1       0.550  10.737  22.003  0.00  0.00    +0.000 NA
ATOM     30  C   UNL     1      -0.720  10.964  22.695  0.00  0.00    +0.000 C 
ENDBRANCH  27  29
ENDBRANCH  26  27
ENDBRANCH   1  26
TORSDOF 8
ENDMDL
MODEL 4
REMARK VINA RESULT:      -6.7      1.734      4.963
REMARK  Name = 
REMARK  10 active torsions:
REMARK  status: ('A' for Active; 'I' for Inactive)
REMARK    1  A    between atoms: C_1  and  N_2
REMARK    2  A    between atoms: N_2  and  C_3
REMARK    3  A    between atoms: N_2  and  C_4
REMARK    4  A    between atoms: C_4  and  C_5
REMARK    5  A    between atoms: C_5  and  N_6
REMARK    6  A    between atoms: C_11  and  N_12
REMARK    7  A    between atoms: N_12  and  C_13
REMARK    8  A    between atoms: C_13  and  C_14
REMARK    9  A    between atoms: C_14  and  C_15
REMARK   10  A    between atoms: C_15  and  N_16
REMARK                            x       y       z     vdW  Elec       q    Type
REMARK                         _______ _______ _______ _____ _____    ______ ____
ROOT
ATOM      1  N   UNL     1       2.687   7.834  18.193  0.00  0.00    +0.000 N 
ATOM      2  N   UNL     1       2.054   7.078  19.127  0.00  0.00    +0.000 NA
ATOM      3  C   UNL     1       2.573   5.862  18.943  0.00  0.00    +0.000 A 
ATOM      4  C   UNL     1       3.511   5.848  17.905  0.00  0.00    +0.000 A 
ATOM      5  C   UNL     1       4.250   4.782  17.388  0.00  0.00    +0.000 A 
ATOM      6  C   UNL     1       5.155   5.061  16.343  0.00  0.00    +0.000 A 
ATOM      7  C   UNL     1       5.229   6.396  15.876  0.00  0.00    +0.000 A 
ATOM      8  C   UNL     1       4.464   7.454  16.396  0.00  0.00    +0.000 A 
ATOM      9  C   UNL     1       3.594   7.138  17.435  0.00  0.00    +0.000 A 
ATOM     10  C   UNL     1       3.946   3.472  18.065  0.00  0.00    +0.000 C 
ATOM     11  O   UNL     1       4.444   2.417  17.692  0.00  0.00    +0.000 OA
ATOM     12  C   UNL     1       2.955   3.461  19.224  0.00  0.00    +0.000 A 
ATOM     13  C   UNL     1       2.683   2.264  19.885  0.00  0.00    +0.000 A 
ATOM     14  C   UNL     1       1.769   2.287  20.928  0.00  0.00    +0.000 A 
ATOM     15  N   UNL     1       1.121   3.399  21.347  0.00  0.00    +0.000 NA
ATOM     16  C   UNL     1       1.391   4.553  20.692  0.00  0.00    +0.000 A 
ATOM     17  C   UNL     1       2.287   4.635  19.641  0.00  0.00    +0.000 A 
ENDROOT
BRANCH   6  18
ATOM     18  N   UNL     1       5.955   4.058  15.783  0.00  0.00    +0.000 N 
ATOM     19  H   UNL     1       5.557   3.133  15.960  0.00  0.00    +0.000 HD
BRANCH  18  20
ATOM     20  C   UNL     1       6.554   4.248  14.469  0.00  0.00    +0.000 C 
BRANCH  20  21
ATOM     21  C   UNL     1       5.647   3.743  13.349  0.00  0.00    +0.000 C 
BRANCH  21  22
ATOM     22  C   UNL     1       6.433   3.314  12.114  0.00  0.00    +0.000 C 
BRANCH  22  23
ATOM     23  N   UNL     1       5.995   1.998  11.662  0.00  0.00    +0.000 NA
ATOM     24  H   UNL     1       5.555   1.491  12.429  0.00  0.00    +0.000 HD
ATOM     25  H   UNL     1       6.804   1.450  11.377  0.00  0.00    +0.000 HD
ENDBRANCH  22  23
ENDBRANCH  21  22
ENDBRANCH  20  21
ENDBRANCH  18  20
ENDBRANCH   6  18
BRANCH   1  26
ATOM     26  C   UNL     1       2.327   9.233  18.023  0.00  0.00    +0.000 C 
BRANCH  26  27
ATOM     27  C   UNL     1       1.243   9.683  19.006  0.00  0.00    +0.000 C 
BRANCH  27  29
ATOM     28  C   UNL     1      -0.719  11.038  19.329  0.00  0.00    +0.000 C 
ATOM     29  N   UNL     1       0.557  10.934  18.612  0.00  0.00    +0.000 NA
ATOM     30  C   UNL     1       1.364  12.128  18.870  0.00  0.00    +0.000 C 
ENDBRANCH  27  29
ENDBRANCH  26  27
ENDBRANCH   1  26
TORSDOF 8
ENDMDL
MODEL 5
REMARK VINA RESULT:      -6.6      1.688      5.634
REMARK  Name = 
REMARK  10 active torsions:
REMARK  status: ('A' for Active; 'I' for Inactive)
REMARK    1  A    between atoms: C_1  and  N_2
REMARK    2  A    between atoms: N_2  and  C_3
REMARK    3  A    between atoms: N_2  and  C_4
REMARK    4  A    between atoms: C_4  and  C_5
REMARK    5  A    between atoms: C_5  and  N_6
REMARK    6  A    between atoms: C_11  and  N_12
REMARK    7  A    between atoms: N_12  and  C_13
REMARK    8  A    between atoms: C_13  and  C_14
REMARK    9  A    between atoms: C_14  and  C_15
REMARK   10  A    between atoms: C_15  and  N_16
REMARK                            x       y       z     vdW  Elec       q    Type
REMARK                         _______ _______ _______ _____ _____    ______ ____
ROOT
ATOM      1  N   UNL     1       5.175   5.903  16.756  0.00  0.00    +0.000 N 
ATOM      2  N   UNL     1       4.559   7.112  16.697  0.00  0.00    +0.000 NA
ATOM      3  C   UNL     1       3.733   7.089  17.745  0.00  0.00    +0.000 A 
ATOM      4  C   UNL     1       3.819   5.882  18.448  0.00  0.00    +0.000 A 
ATOM      5  C   UNL     1       3.110   5.455  19.573  0.00  0.00    +0.000 A 
ATOM      6  C   UNL     1       3.420   4.184  20.097  0.00  0.00    +0.000 A 
ATOM      7  C   UNL     1       4.408   3.420  19.429  0.00  0.00    +0.000 A 
ATOM      8  C   UNL     1       5.099   3.857  18.286  0.00  0.00    +0.000 A 
ATOM      9  C   UNL     1       4.772   5.123  17.810  0.00  0.00    +0.000 A 
ATOM     10  C   UNL     1       2.104   6.468  20.054  0.00  0.00    +0.000 C 
ATOM     11  O   UNL     1       1.341   6.235  20.983  0.00  0.00    +0.000 OA
ATOM     12  C   UNL     1       2.013   7.808  19.330  0.00  0.00    +0.000 A 
ATOM     13  C   UNL     1       1.111   8.772  19.779  0.00  0.00    +0.000 A 
ATOM     14  C   UNL     1       1.045   9.974  19.092  0.00  0.00    +0.000 A 
ATOM     15  N   UNL     1       1.802  10.275  18.011  0.00  0.00    +0.000 NA
ATOM     16  C   UNL     1       2.670   9.328  17.584  0.00  0.00    +0.000 A 
ATOM     17  C   UNL     1       2.812   8.098  18.200  0.00  0.00    +0.000 A 
ENDROOT
BRANCH   6  18
ATOM     18  N   UNL     1       2.777   3.688  21.238  0.00  0.00    +0.000 N 
ATOM     19  H   UNL     1       2.543   4.445  21.882  0.00  0.00    +0.000 HD
BRANCH  18  20
ATOM     20  C   UNL     1       1.782   2.631  21.116  0.00  0.00    +0.000 C 
BRANCH  20  21
ATOM     21  C   UNL     1       0.686   2.992  20.117  0.00  0.00    +0.000 C 
BRANCH  21  22
ATOM     22  C   UNL     1       0.850   2.264  18.786  0.00  0.00    +0.000 C 
BRANCH  22  23
ATOM     23  N   UNL     1       1.158   3.213  17.722  0.00  0.00    +0.000 NA
ATOM     24  H   UNL     1       1.728   2.765  17.006  0.00  0.00    +0.000 HD
ATOM     25  H   UNL     1       1.713   3.979  18.099  0.00  0.00    +0.000 HD
ENDBRANCH  22  23
ENDBRANCH  21  22
ENDBRANCH  20  21
ENDBRANCH  18  20
ENDBRANCH   6  18
BRANCH   1  26
ATOM     26  C   UNL     1       6.112   5.512  15.713  0.00  0.00    +0.000 C 
BRANCH  26  27
ATOM     27  C   UNL     1       5.478   4.585  14.673  0.00  0.00    +0.000 C 
BRANCH  27  29
ATOM     28  C   UNL     1       5.737   3.417  12.585  0.00  0.00    +0.000 C 
ATOM     29  N   UNL     1       6.452   3.977  13.738  0.00  0.00    +0.000 NA
ATOM     30  C   UNL     1       7.462   4.930  13.275  0.00  0.00    +0.000 C 
ENDBRANCH  27  29
ENDBRANCH  26  27
ENDBRANCH   1  26
TORSDOF 8
ENDMDL
MODEL 6
REMARK VINA RESULT:      -6.5      0.883      1.124
REMARK  Name = 
REMARK  10 active torsions:
REMARK  status: ('A' for Active; 'I' for Inactive)
REMARK    1  A    between atoms: C_1  and  N_2
REMARK    2  A    between atoms: N_2  and  C_3
REMARK    3  A    between atoms: N_2  and  C_4
REMARK    4  A    between atoms: C_4  and  C_5
REMARK    5  A    between atoms: C_5  and  N_6
REMARK    6  A    between atoms: C_11  and  N_12
REMARK    7  A    between atoms: N_12  and  C_13
REMARK    8  A    between atoms: C_13  and  C_14
REMARK    9  A    between atoms: C_14  and  C_15
REMARK   10  A    between atoms: C_15  and  N_16
REMARK                            x       y       z     vdW  Elec       q    Type
REMARK                         _______ _______ _______ _____ _____    ______ ____
ROOT
ATOM      1  N   UNL     1       2.103   8.505  18.066  0.00  0.00    +0.000 N 
ATOM      2  N   UNL     1       3.047   8.215  17.134  0.00  0.00    +0.000 NA
ATOM      3  C   UNL     1       3.582   7.076  17.580  0.00  0.00    +0.000 A 
ATOM      4  C   UNL     1       2.992   6.659  18.778  0.00  0.00    +0.000 A 
ATOM      5  C   UNL     1       3.281   5.547  19.572  0.00  0.00    +0.000 A 
ATOM      6  C   UNL     1       2.502   5.352  20.731  0.00  0.00    +0.000 A 
ATOM      7  C   UNL     1       1.501   6.311  21.020  0.00  0.00    +0.000 A 
ATOM      8  C   UNL     1       1.236   7.435  20.219  0.00  0.00    +0.000 A 
ATOM      9  C   UNL     1       2.019   7.582  19.079  0.00  0.00    +0.000 A 
ATOM     10  C   UNL     1       4.413   4.715  19.030  0.00  0.00    +0.000 C 
ATOM     11  O   UNL     1       4.853   3.744  19.634  0.00  0.00    +0.000 OA
ATOM     12  C   UNL     1       5.052   5.124  17.706  0.00  0.00    +0.000 A 
ATOM     13  C   UNL     1       6.080   4.349  17.171  0.00  0.00    +0.000 A 
ATOM     14  C   UNL     1       6.647   4.754  15.972  0.00  0.00    +0.000 A 
ATOM     15  N   UNL     1       6.266   5.857  15.286  0.00  0.00    +0.000 NA
ATOM     16  C   UNL     1       5.270   6.602  15.821  0.00  0.00    +0.000 A 
ATOM     17  C   UNL     1       4.640   6.283  17.010  0.00  0.00    +0.000 A 
ENDROOT
BRANCH   6  18
ATOM     18  N   UNL     1       2.705   4.249  21.571  0.00  0.00    +0.000 N 
ATOM     19  H   UNL     1       2.888   4.551  22.530  0.00  0.00    +0.000 HD
BRANCH  18  20
ATOM     20  C   UNL     1       1.877   3.060  21.428  0.00  0.00    +0.000 C 
BRANCH  20  21
ATOM     21  C   UNL     1       0.944   3.154  20.223  0.00  0.00    +0.000 C 
BRANCH  21  22
ATOM     22  C   UNL     1       1.387   2.254  19.074  0.00  0.00    +0.000 C 
BRANCH  22  23
ATOM     23  N   UNL     1       1.462   3.015  17.831  0.00  0.00    +0.000 NA
ATOM     24  H   UNL     1       0.527   3.268  17.517  0.00  0.00    +0.000 HD
ATOM     25  H   UNL     1       1.868   2.433  17.100  0.00  0.00    +0.000 HD
ENDBRANCH  22  23
ENDBRANCH  21  22
ENDBRANCH  20  21
ENDBRANCH  18  20
ENDBRANCH   6  18
BRANCH   1  26
ATOM     26  C   UNL     1       1.341   9.741  17.971  0.00  0.00    +0.000 C 
BRANCH  26  27
ATOM     27  C   UNL     1       1.856  10.821  18.925  0.00  0.00    +0.000 C 
BRANCH  27  29
ATOM     28  C   UNL     1       1.182  12.408  20.603  0.00  0.00    +0.000 C 
ATOM     29  N   UNL     1       0.989  11.042  20.105  0.00  0.00    +0.000 NA
ATOM     30  C   UNL     1      -0.428  10.819  19.815  0.00  0.00    +0.000 C 
ENDBRANCH  27  29
ENDBRANCH  26  27
ENDBRANCH   1  26
TORSDOF 8
ENDMDL
MODEL 7
REMARK VINA RESULT:      -6.5      1.514      5.161
REMARK  Name = 
REMARK  10 active torsions:
REMARK  status: ('A' for Active; 'I' for Inactive)
REMARK    1  A    between atoms: C_1  and  N_2
REMARK    2  A    between atoms: N_2  and  C_3
REMARK    3  A    between atoms: N_2  and  C_4
REMARK    4  A    between atoms: C_4  and  C_5
REMARK    5  A    between atoms: C_5  and  N_6
REMARK    6  A    between atoms: C_11  and  N_12
REMARK    7  A    between atoms: N_12  and  C_13
REMARK    8  A    between atoms: C_13  and  C_14
REMARK    9  A    between atoms: C_14  and  C_15
REMARK   10  A    between atoms: C_15  and  N_16
REMARK                            x       y       z     vdW  Elec       q    Type
REMARK                         _______ _______ _______ _____ _____    ______ ____
ROOT
ATOM      1  N   UNL     1       2.792   7.888  18.192  0.00  0.00    +0.000 N 
ATOM      2  N   UNL     1       2.165   7.141  19.136  0.00  0.00    +0.000 NA
ATOM      3  C   UNL     1       2.623   5.908  18.910  0.00  0.00    +0.000 A 
ATOM      4  C   UNL     1       3.517   5.875  17.834  0.00  0.00    +0.000 A 
ATOM      5  C   UNL     1       4.187   4.789  17.267  0.00  0.00    +0.000 A 
ATOM      6  C   UNL     1       5.061   5.050  16.191  0.00  0.00    +0.000 A 
ATOM      7  C   UNL     1       5.174   6.389  15.746  0.00  0.00    +0.000 A 
ATOM      8  C   UNL     1       4.477   7.469  16.316  0.00  0.00    +0.000 A 
ATOM      9  C   UNL     1       3.637   7.169  17.384  0.00  0.00    +0.000 A 
ATOM     10  C   UNL     1       3.855   3.480  17.933  0.00  0.00    +0.000 C 
ATOM     11  O   UNL     1       4.291   2.413  17.520  0.00  0.00    +0.000 OA
ATOM     12  C   UNL     1       2.911   3.489  19.132  0.00  0.00    +0.000 A 
ATOM     13  C   UNL     1       2.615   2.291  19.781  0.00  0.00    +0.000 A 
ATOM     14  C   UNL     1       1.746   2.332  20.861  0.00  0.00    +0.000 A 
ATOM     15  N   UNL     1       1.163   3.462  21.326  0.00  0.00    +0.000 NA
ATOM     16  C   UNL     1       1.457   4.616  20.682  0.00  0.00    +0.000 A 
ATOM     17  C   UNL     1       2.312   4.681  19.597  0.00  0.00    +0.000 A 
ENDROOT
BRANCH   6  18
ATOM     18  N   UNL     1       5.794   4.025  15.581  0.00  0.00    +0.000 N 
ATOM     19  H   UNL     1       5.171   3.325  15.173  0.00  0.00    +0.000 HD
BRANCH  18  20
ATOM     20  C   UNL     1       6.985   4.341  14.805  0.00  0.00    +0.000 C 
BRANCH  20  21
ATOM     21  C   UNL     1       6.789   4.060  13.317  0.00  0.00    +0.000 C 
BRANCH  21  22
ATOM     22  C   UNL     1       7.511   5.074  12.435  0.00  0.00    +0.000 C 
BRANCH  22  23
ATOM     23  N   UNL     1       8.532   5.781  13.201  0.00  0.00    +0.000 NA
ATOM     24  H   UNL     1       8.963   5.152  13.877  0.00  0.00    +0.000 HD
ATOM     25  H   UNL     1       8.097   6.531  13.735  0.00  0.00    +0.000 HD
ENDBRANCH  22  23
ENDBRANCH  21  22
ENDBRANCH  20  21
ENDBRANCH  18  20
ENDBRANCH   6  18
BRANCH   1  26
ATOM     26  C   UNL     1       2.486   9.305  18.062  0.00  0.00    +0.000 C 
BRANCH  26  27
ATOM     27  C   UNL     1       0.980   9.583  18.076  0.00  0.00    +0.000 C 
BRANCH  27  29
ATOM     28  C   UNL     1       1.075  11.798  19.011  0.00  0.00    +0.000 C 
ATOM     29  N   UNL     1       0.540  10.445  19.197  0.00  0.00    +0.000 NA
ATOM     30  C   UNL     1      -0.916  10.504  19.326  0.00  0.00    +0.000 C 
ENDBRANCH  27  29
ENDBRANCH  26  27
ENDBRANCH   1  26
TORSDOF 8
ENDMDL
MODEL 8
REMARK VINA RESULT:      -6.5      2.289      6.146
REMARK  Name = 
REMARK  10 active torsions:
REMARK  status: ('A' for Active; 'I' for Inactive)
REMARK    1  A    between atoms: C_1  and  N_2
REMARK    2  A    between atoms: N_2  and  C_3
REMARK    3  A    between atoms: N_2  and  C_4
REMARK    4  A    between atoms: C_4  and  C_5
REMARK    5  A    between atoms: C_5  and  N_6
REMARK    6  A    between atoms: C_11  and  N_12
REMARK    7  A    between atoms: N_12  and  C_13
REMARK    8  A    between atoms: C_13  and  C_14
REMARK    9  A    between atoms: C_14  and  C_15
REMARK   10  A    between atoms: C_15  and  N_16
REMARK                            x       y       z     vdW  Elec       q    Type
REMARK                         _______ _______ _______ _____ _____    ______ ____
ROOT
ATOM      1  N   UNL     1       4.826   5.869  17.084  0.00  0.00    +0.000 N 
ATOM      2  N   UNL     1       4.788   4.715  17.800  0.00  0.00    +0.000 NA
ATOM      3  C   UNL     1       3.839   4.947  18.709  0.00  0.00    +0.000 A 
ATOM      4  C   UNL     1       3.294   6.228  18.577  0.00  0.00    +0.000 A 
ATOM      5  C   UNL     1       2.310   6.859  19.341  0.00  0.00    +0.000 A 
ATOM      6  C   UNL     1       1.927   8.163  18.965  0.00  0.00    +0.000 A 
ATOM      7  C   UNL     1       2.587   8.748  17.856  0.00  0.00    +0.000 A 
ATOM      8  C   UNL     1       3.589   8.105  17.109  0.00  0.00    +0.000 A 
ATOM      9  C   UNL     1       3.927   6.815  17.507  0.00  0.00    +0.000 A 
ATOM     10  C   UNL     1       1.804   6.004  20.473  0.00  0.00    +0.000 C 
ATOM     11  O   UNL     1       0.995   6.422  21.291  0.00  0.00    +0.000 OA
ATOM     12  C   UNL     1       2.354   4.588  20.620  0.00  0.00    +0.000 A 
ATOM     13  C   UNL     1       1.877   3.769  21.643  0.00  0.00    +0.000 A 
ATOM     14  C   UNL     1       2.404   2.492  21.756  0.00  0.00    +0.000 A 
ATOM     15  N   UNL     1       3.357   1.987  20.937  0.00  0.00    +0.000 NA
ATOM     16  C   UNL     1       3.814   2.797  19.953  0.00  0.00    +0.000 A 
ATOM     17  C   UNL     1       3.352   4.085  19.755  0.00  0.00    +0.000 A 
ENDROOT
BRANCH   6  18
ATOM     18  N   UNL     1       0.930   8.860  19.657  0.00  0.00    +0.000 N 
ATOM     19  H   UNL     1       0.747   8.427  20.565  0.00  0.00    +0.000 HD
BRANCH  18  20
ATOM     20  C   UNL     1       0.905  10.316  19.634  0.00  0.00    +0.000 C 
BRANCH  20  21
ATOM     21  C   UNL     1       0.855  10.909  21.040  0.00  0.00    +0.000 C 
BRANCH  21  22
ATOM     22  C   UNL     1       0.520   9.864  22.100  0.00  0.00    +0.000 C 
BRANCH  22  23
ATOM     23  N   UNL     1       1.736   9.217  22.579  0.00  0.00    +0.000 NA
ATOM     24  H   UNL     1       2.557   9.733  22.267  0.00  0.00    +0.000 HD
ATOM     25  H   UNL     1       1.807   8.285  22.175  0.00  0.00    +0.000 HD
ENDBRANCH  22  23
ENDBRANCH  21  22
ENDBRANCH  20  21
ENDBRANCH  18  20
ENDBRANCH   6  18
BRANCH   1  26
ATOM     26  C   UNL     1       5.812   6.038  16.027  0.00  0.00    +0.000 C 
BRANCH  26  27
ATOM     27  C   UNL     1       7.229   6.233  16.573  0.00  0.00    +0.000 C 
BRANCH  27  29
ATOM     28  C   UNL     1       7.925   6.191  18.876  0.00  0.00    +0.000 C 
ATOM     29  N   UNL     1       7.284   7.004  17.837  0.00  0.00    +0.000 NA
ATOM     30  C   UNL     1       8.000   8.273  17.694  0.00  0.00    +0.000 C 
ENDBRANCH  27  29
ENDBRANCH  26  27
ENDBRANCH   1  26
TORSDOF 8
ENDMDL
MODEL 9
REMARK VINA RESULT:      -6.4      1.625      5.585
REMARK  Name = 
REMARK  10 active torsions:
REMARK  status: ('A' for Active; 'I' for Inactive)
REMARK    1  A    between atoms: C_1  and  N_2
REMARK    2  A    between atoms: N_2  and  C_3
REMARK    3  A    between atoms: N_2  and  C_4
REMARK    4  A    between atoms: C_4  and  C_5
REMARK    5  A    between atoms: C_5  and  N_6
REMARK    6  A    between atoms: C_11  and  N_12
REMARK    7  A    between atoms: N_12  and  C_13
REMARK    8  A    between atoms: C_13  and  C_14
REMARK    9  A    between atoms: C_14  and  C_15
REMARK   10  A    between atoms: C_15  and  N_16
REMARK                            x       y       z     vdW  Elec       q    Type
REMARK                         _______ _______ _______ _____ _____    ______ ____
ROOT
ATOM      1  N   UNL     1       4.442   6.646  16.827  0.00  0.00    +0.000 N 
ATOM      2  N   UNL     1       3.805   7.845  16.833  0.00  0.00    +0.000 NA
ATOM      3  C   UNL     1       3.073   7.801  17.948  0.00  0.00    +0.000 A 
ATOM      4  C   UNL     1       3.237   6.590  18.630  0.00  0.00    +0.000 A 
ATOM      5  C   UNL     1       2.634   6.143  19.808  0.00  0.00    +0.000 A 
ATOM      6  C   UNL     1       3.007   4.872  20.292  0.00  0.00    +0.000 A 
ATOM      7  C   UNL     1       3.946   4.130  19.534  0.00  0.00    +0.000 A 
ATOM      8  C   UNL     1       4.529   4.587  18.339  0.00  0.00    +0.000 A 
ATOM      9  C   UNL     1       4.143   5.851  17.905  0.00  0.00    +0.000 A 
ATOM     10  C   UNL     1       1.659   7.137  20.383  0.00  0.00    +0.000 C 
ATOM     11  O   UNL     1       0.982   6.884  21.372  0.00  0.00    +0.000 OA
ATOM     12  C   UNL     1       1.486   8.480  19.682  0.00  0.00    +0.000 A 
ATOM     13  C   UNL     1       0.611   9.426  20.215  0.00  0.00    +0.000 A 
ATOM     14  C   UNL     1       0.469  10.633  19.548  0.00  0.00    +0.000 A 
ATOM     15  N   UNL     1       1.125  10.954  18.408  0.00  0.00    +0.000 NA
ATOM     16  C   UNL     1       1.967  10.024  17.900  0.00  0.00    +0.000 A 
ATOM     17  C   UNL     1       2.179   8.791  18.490  0.00  0.00    +0.000 A 
ENDROOT
BRANCH   6  18
ATOM     18  N   UNL     1       2.474   4.358  21.479  0.00  0.00    +0.000 N 
ATOM     19  H   UNL     1       2.123   5.109  22.076  0.00  0.00    +0.000 HD
BRANCH  18  20
ATOM     20  C   UNL     1       1.670   3.143  21.453  0.00  0.00    +0.000 C 
BRANCH  20  21
ATOM     21  C   UNL     1       0.590   3.195  20.377  0.00  0.00    +0.000 C 
BRANCH  21  22
ATOM     22  C   UNL     1       0.888   2.261  19.208  0.00  0.00    +0.000 C 
BRANCH  22  23
ATOM     23  N   UNL     1       1.060   3.024  17.976  0.00  0.00    +0.000 NA
ATOM     24  H   UNL     1       2.039   3.021  17.694  0.00  0.00    +0.000 HD
ATOM     25  H   UNL     1       0.806   3.997  18.141  0.00  0.00    +0.000 HD
ENDBRANCH  22  23
ENDBRANCH  21  22
ENDBRANCH  20  21
ENDBRANCH  18  20
ENDBRANCH   6  18
BRANCH   1  26
ATOM     26  C   UNL     1       5.291   6.277  15.704  0.00  0.00    +0.000 C 
BRANCH  26  27
ATOM     27  C   UNL     1       6.777   6.267  16.073  0.00  0.00    +0.000 C 
BRANCH  27  29
ATOM     28  C   UNL     1       7.705   4.475  17.384  0.00  0.00    +0.000 C 
ATOM     29  N   UNL     1       7.399   4.924  16.021  0.00  0.00    +0.000 NA
ATOM     30  C   UNL     1       6.551   3.934  15.356  0.00  0.00    +0.000 C 
ENDBRANCH  27  29
ENDBRANCH  26  27
ENDBRANCH   1  26
TORSDOF 8
ENDMDL
