MODEL 1
REMARK VINA RESULT:      -7.8      0.000      0.000
REMARK  Name = 
REMARK  6 active torsions:
REMARK  status: ('A' for Active; 'I' for Inactive)
REMARK    1  A    between atoms: C_2  and  C_3
REMARK    2  A    between atoms: C_2  and  C_10
REMARK    3  A    between atoms: C_10  and  O_11
REMARK    4  A    between atoms: C_10  and  C_12
REMARK    5  A    between atoms: C_10  and  C_18
REMARK    6  A    between atoms: C_12  and  N_13
REMARK                            x       y       z     vdW  Elec       q    Type
REMARK                         _______ _______ _______ _____ _____    ______ ____
ROOT
ATOM      1  C   UNL     1       4.648   4.113  18.049  0.00  0.00    +0.000 C 
ENDROOT
BRANCH   1   2
ATOM      2  C   UNL     1       5.378   4.435  16.731  0.00  0.00    +0.000 A 
ATOM      3  C   UNL     1       4.733   4.270  15.487  0.00  0.00    +0.000 A 
ATOM      4  C   UNL     1       5.416   4.440  14.275  0.00  0.00    +0.000 A 
ATOM      5  C   UNL     1       6.767   4.759  14.277  0.00  0.00    +0.000 A 
ATOM      6 CL   UNL     1       7.623   4.888  12.791  0.00  0.00    +0.000 Cl
ATOM      7  C   UNL     1       7.428   4.970  15.477  0.00  0.00    +0.000 A 
ATOM      8  C   UNL     1       6.738   4.839  16.692  0.00  0.00    +0.000 A 
ATOM      9 CL   UNL     1       7.667   5.219  18.105  0.00  0.00    +0.000 Cl
ENDBRANCH   1   2
BRANCH   1  11
ATOM     10  O   UNL     1       5.104   5.429  20.055  0.00  0.00    +0.000 OA
ATOM     11  C   UNL     1       4.431   5.310  19.025  0.00  0.00    +0.000 C 
BRANCH  11  12
ATOM     12  C   UNL     1       3.512   6.456  18.728  0.00  0.00    +0.000 A 
ATOM     13  C   UNL     1       2.568   6.786  19.726  0.00  0.00    +0.000 A 
ATOM     14  C   UNL     1       1.755   7.911  19.599  0.00  0.00    +0.000 A 
ATOM     15  C   UNL     1       1.868   8.699  18.466  0.00  0.00    +0.000 A 
ATOM     16  F   UNL     1       1.122   9.806  18.358  0.00  0.00    +0.000 F 
ATOM     17  C   UNL     1       2.749   8.362  17.444  0.00  0.00    +0.000 A 
ATOM     18  C   UNL     1       3.567   7.233  17.567  0.00  0.00    +0.000 A 
ENDBRANCH  11  12
ENDBRANCH   1  11
BRANCH   1  19
ATOM     19  O   UNL     1       5.464   3.159  18.762  0.00  0.00    +0.000 OA
ATOM     20  H   UNL     1       5.210   2.261  18.484  0.00  0.00    +0.000 HD
ENDBRANCH   1  19
BRANCH   1  21
ATOM     21  C   UNL     1       3.245   3.465  17.808  0.00  0.00    +0.000 C 
BRANCH  21  22
ATOM     22  N   UNL     1       2.444   3.192  18.982  0.00  0.00    +0.000 N 
ATOM     23  C   UNL     1       1.142   3.534  19.191  0.00  0.00    +0.000 A 
ATOM     24  N   UNL     1       0.757   3.100  20.367  0.00  0.00    +0.000 NA
ATOM     25  C   UNL     1       1.879   2.491  20.849  0.00  0.00    +0.000 A 
ATOM     26  N   UNL     1       2.951   2.556  20.054  0.00  0.00    +0.000 NA
ENDBRANCH  21  22
ENDBRANCH   1  21
TORSDOF 6
ENDMDL
MODEL 2
REMARK VINA RESULT:      -7.1      3.795      6.199
REMARK  Name = 
REMARK  6 active torsions:
REMARK  status: ('A' for Active; 'I' for Inactive)
REMARK    1  A    between atoms: C_2  and  C_3
REMARK    2  A    between atoms: C_2  and  C_10
REMARK    3  A    between atoms: C_10  and  O_11
REMARK    4  A    between atoms: C_10  and  C_12
REMARK    5  A    between atoms: C_10  and  C_18
REMARK    6  A    between atoms: C_12  and  N_13
REMARK                            x       y       z     vdW  Elec       q    Type
REMARK                         _______ _______ _______ _____ _____    ______ ____
ROOT
ATOM      1  C   UNL     1       3.661   6.297  18.415  0.00  0.00    +0.000 C 
ENDROOT
BRANCH   1   2
ATOM      2  C   UNL     1       2.661   7.453  18.604  0.00  0.00    +0.000 A 
ATOM      3  C   UNL     1       2.465   8.414  17.590  0.00  0.00    +0.000 A 
ATOM      4  C   UNL     1       1.653   9.539  17.787  0.00  0.00    +0.000 A 
ATOM      5  C   UNL     1       1.032   9.742  19.013  0.00  0.00    +0.000 A 
ATOM      6 CL   UNL     1       0.102  11.163  19.282  0.00  0.00    +0.000 Cl
ATOM      7  C   UNL     1       1.166   8.801  20.022  0.00  0.00    +0.000 A 
ATOM      8  C   UNL     1       1.947   7.654  19.815  0.00  0.00    +0.000 A 
ATOM      9 CL   UNL     1       1.950   6.525  21.129  0.00  0.00    +0.000 Cl
ENDBRANCH   1   2
BRANCH   1  11
ATOM     10  O   UNL     1       3.099   4.395  16.990  0.00  0.00    +0.000 OA
ATOM     11  C   UNL     1       3.044   4.895  18.120  0.00  0.00    +0.000 C 
BRANCH  11  12
ATOM     12  C   UNL     1       2.474   4.008  19.184  0.00  0.00    +0.000 A 
ATOM     13  C   UNL     1       3.399   3.376  20.044  0.00  0.00    +0.000 A 
ATOM     14  C   UNL     1       2.966   2.633  21.141  0.00  0.00    +0.000 A 
ATOM     15  C   UNL     1       1.607   2.502  21.371  0.00  0.00    +0.000 A 
ATOM     16  F   UNL     1       1.184   1.828  22.449  0.00  0.00    +0.000 F 
ATOM     17  C   UNL     1       0.676   3.068  20.506  0.00  0.00    +0.000 A 
ATOM     18  C   UNL     1       1.107   3.814  19.402  0.00  0.00    +0.000 A 
ENDBRANCH  11  12
ENDBRANCH   1  11
BRANCH   1  19
ATOM     19  O   UNL     1       4.388   6.160  19.655  0.00  0.00    +0.000 OA
ATOM     20  H   UNL     1       4.698   7.040  19.934  0.00  0.00    +0.000 HD
ENDBRANCH   1  19
BRANCH   1  21
ATOM     21  C   UNL     1       4.695   6.586  17.278  0.00  0.00    +0.000 C 
BRANCH  21  22
ATOM     22  N   UNL     1       5.906   5.793  17.283  0.00  0.00    +0.000 N 
ATOM     23  C   UNL     1       6.453   5.115  16.235  0.00  0.00    +0.000 A 
ATOM     24  N   UNL     1       7.560   4.527  16.622  0.00  0.00    +0.000 NA
ATOM     25  C   UNL     1       7.648   4.881  17.938  0.00  0.00    +0.000 A 
ATOM     26  N   UNL     1       6.637   5.622  18.399  0.00  0.00    +0.000 NA
ENDBRANCH  21  22
ENDBRANCH   1  21
TORSDOF 6
ENDMDL
MODEL 3
REMARK VINA RESULT:      -7.0      3.272      5.804
REMARK  Name = 
REMARK  6 active torsions:
REMARK  status: ('A' for Active; 'I' for Inactive)
REMARK    1  A    between atoms: C_2  and  C_3
REMARK    2  A    between atoms: C_2  and  C_10
REMARK    3  A    between atoms: C_10  and  O_11
REMARK    4  A    between atoms: C_10  and  C_12
REMARK    5  A    between atoms: C_10  and  C_18
REMARK    6  A    between atoms: C_12  and  N_13
REMARK                            x       y       z     vdW  Elec       q    Type
REMARK                         _______ _______ _______ _____ _____    ______ ____
ROOT
ATOM      1  C   UNL     1       2.807   5.668  19.084  0.00  0.00    +0.000 C 
ENDROOT
BRANCH   1   2
ATOM      2  C   UNL     1       2.192   6.965  19.643  0.00  0.00    +0.000 A 
ATOM      3  C   UNL     1       1.682   7.016  20.958  0.00  0.00    +0.000 A 
ATOM      4  C   UNL     1       1.010   8.146  21.444  0.00  0.00    +0.000 A 
ATOM      5  C   UNL     1       0.813   9.246  20.620  0.00  0.00    +0.000 A 
ATOM      6 CL   UNL     1      -0.081  10.599  21.190  0.00  0.00    +0.000 Cl
ATOM      7  C   UNL     1       1.333   9.252  19.335  0.00  0.00    +0.000 A 
ATOM      8  C   UNL     1       2.041   8.138  18.858  0.00  0.00    +0.000 A 
ATOM      9 CL   UNL     1       2.709   8.321  17.270  0.00  0.00    +0.000 Cl
ENDBRANCH   1   2
BRANCH   1  11
ATOM     10  O   UNL     1       5.170   5.838  19.675  0.00  0.00    +0.000 OA
ATOM     11  C   UNL     1       4.335   5.710  18.773  0.00  0.00    +0.000 C 
BRANCH  11  12
ATOM     12  C   UNL     1       4.902   5.465  17.408  0.00  0.00    +0.000 A 
ATOM     13  C   UNL     1       5.300   4.141  17.115  0.00  0.00    +0.000 A 
ATOM     14  C   UNL     1       5.721   3.785  15.836  0.00  0.00    +0.000 A 
ATOM     15  C   UNL     1       5.765   4.755  14.848  0.00  0.00    +0.000 A 
ATOM     16  F   UNL     1       6.126   4.411  13.604  0.00  0.00    +0.000 F 
ATOM     17  C   UNL     1       5.433   6.077  15.127  0.00  0.00    +0.000 A 
ATOM     18  C   UNL     1       5.010   6.439  16.411  0.00  0.00    +0.000 A 
ENDBRANCH  11  12
ENDBRANCH   1  11
BRANCH   1  19
ATOM     19  O   UNL     1       2.150   5.397  17.827  0.00  0.00    +0.000 OA
ATOM     20  H   UNL     1       1.225   5.695  17.886  0.00  0.00    +0.000 HD
ENDBRANCH   1  19
BRANCH   1  21
ATOM     21  C   UNL     1       2.569   4.443  20.028  0.00  0.00    +0.000 C 
BRANCH  21  22
ATOM     22  N   UNL     1       3.056   3.161  19.563  0.00  0.00    +0.000 N 
ATOM     23  C   UNL     1       4.084   2.432  20.080  0.00  0.00    +0.000 A 
ATOM     24  N   UNL     1       4.217   1.317  19.402  0.00  0.00    +0.000 NA
ATOM     25  C   UNL     1       3.229   1.413  18.464  0.00  0.00    +0.000 A 
ATOM     26  N   UNL     1       2.518   2.543  18.496  0.00  0.00    +0.000 NA
ENDBRANCH  21  22
ENDBRANCH   1  21
TORSDOF 6
ENDMDL
MODEL 4
REMARK VINA RESULT:      -6.9      4.162      6.139
REMARK  Name = 
REMARK  6 active torsions:
REMARK  status: ('A' for Active; 'I' for Inactive)
REMARK    1  A    between atoms: C_2  and  C_3
REMARK    2  A    between atoms: C_2  and  C_10
REMARK    3  A    between atoms: C_10  and  O_11
REMARK    4  A    between atoms: C_10  and  C_12
REMARK    5  A    between atoms: C_10  and  C_18
REMARK    6  A    between atoms: C_12  and  N_13
REMARK                            x       y       z     vdW  Elec       q    Type
REMARK                         _______ _______ _______ _____ _____    ______ ____
ROOT
ATOM      1  C   UNL     1       5.691   4.778  16.255  0.00  0.00    +0.000 C 
ENDROOT
BRANCH   1   2
ATOM      2  C   UNL     1       4.494   4.410  17.152  0.00  0.00    +0.000 A 
ATOM      3  C   UNL     1       4.177   3.062  17.420  0.00  0.00    +0.000 A 
ATOM      4  C   UNL     1       3.024   2.703  18.131  0.00  0.00    +0.000 A 
ATOM      5  C   UNL     1       2.147   3.684  18.574  0.00  0.00    +0.000 A 
ATOM      6 CL   UNL     1       0.692   3.239  19.376  0.00  0.00    +0.000 Cl
ATOM      7  C   UNL     1       2.442   5.023  18.367  0.00  0.00    +0.000 A 
ATOM      8  C   UNL     1       3.616   5.387  17.690  0.00  0.00    +0.000 A 
ATOM      9 CL   UNL     1       3.898   7.093  17.584  0.00  0.00    +0.000 Cl
ENDBRANCH   1   2
BRANCH   1  11
ATOM     10  O   UNL     1       7.915   4.135  17.032  0.00  0.00    +0.000 OA
ATOM     11  C   UNL     1       7.049   5.016  16.985  0.00  0.00    +0.000 C 
BRANCH  11  12
ATOM     12  C   UNL     1       7.456   6.342  17.550  0.00  0.00    +0.000 A 
ATOM     13  C   UNL     1       8.045   6.331  18.834  0.00  0.00    +0.000 A 
ATOM     14  C   UNL     1       8.571   7.494  19.392  0.00  0.00    +0.000 A 
ATOM     15  C   UNL     1       8.494   8.678  18.678  0.00  0.00    +0.000 A 
ATOM     16  F   UNL     1       9.038   9.791  19.188  0.00  0.00    +0.000 F 
ATOM     17  C   UNL     1       7.868   8.726  17.437  0.00  0.00    +0.000 A 
ATOM     18  C   UNL     1       7.337   7.560  16.873  0.00  0.00    +0.000 A 
ENDBRANCH  11  12
ENDBRANCH   1  11
BRANCH   1  19
ATOM     19  O   UNL     1       5.364   6.024  15.603  0.00  0.00    +0.000 OA
ATOM     20  H   UNL     1       5.200   5.849  14.659  0.00  0.00    +0.000 HD
ENDBRANCH   1  19
BRANCH   1  21
ATOM     21  C   UNL     1       5.954   3.706  15.146  0.00  0.00    +0.000 C 
BRANCH  21  22
ATOM     22  N   UNL     1       6.599   4.168  13.935  0.00  0.00    +0.000 N 
ATOM     23  C   UNL     1       6.458   3.660  12.679  0.00  0.00    +0.000 A 
ATOM     24  N   UNL     1       7.189   4.353  11.840  0.00  0.00    +0.000 NA
ATOM     25  C   UNL     1       7.769   5.291  12.645  0.00  0.00    +0.000 A 
ATOM     26  N   UNL     1       7.470   5.193  13.943  0.00  0.00    +0.000 NA
ENDBRANCH  21  22
ENDBRANCH   1  21
TORSDOF 6
ENDMDL
MODEL 5
REMARK VINA RESULT:      -6.9      3.625      5.295
REMARK  Name = 
REMARK  6 active torsions:
REMARK  status: ('A' for Active; 'I' for Inactive)
REMARK    1  A    between atoms: C_2  and  C_3
REMARK    2  A    between atoms: C_2  and  C_10
REMARK    3  A    between atoms: C_10  and  O_11
REMARK    4  A    between atoms: C_10  and  C_12
REMARK    5  A    between atoms: C_10  and  C_18
REMARK    6  A    between atoms: C_12  and  N_13
REMARK                            x       y       z     vdW  Elec       q    Type
REMARK                         _______ _______ _______ _____ _____    ______ ____
ROOT
ATOM      1  C   UNL     1       6.265   4.865  17.479  0.00  0.00    +0.000 C 
ENDROOT
BRANCH   1   2
ATOM      2  C   UNL     1       6.844   6.264  17.766  0.00  0.00    +0.000 A 
ATOM      3  C   UNL     1       6.364   7.401  17.082  0.00  0.00    +0.000 A 
ATOM      4  C   UNL     1       6.958   8.660  17.239  0.00  0.00    +0.000 A 
ATOM      5  C   UNL     1       8.061   8.810  18.069  0.00  0.00    +0.000 A 
ATOM      6 CL   UNL     1       8.839  10.339  18.199  0.00  0.00    +0.000 Cl
ATOM      7  C   UNL     1       8.539   7.727  18.791  0.00  0.00    +0.000 A 
ATOM      8  C   UNL     1       7.922   6.473  18.666  0.00  0.00    +0.000 A 
ATOM      9 CL   UNL     1       8.567   5.236  19.693  0.00  0.00    +0.000 Cl
ENDBRANCH   1   2
BRANCH   1  11
ATOM     10  O   UNL     1       5.852   4.145  19.775  0.00  0.00    +0.000 OA
ATOM     11  C   UNL     1       5.418   4.224  18.620  0.00  0.00    +0.000 C 
BRANCH  11  12
ATOM     12  C   UNL     1       3.994   3.793  18.443  0.00  0.00    +0.000 A 
ATOM     13  C   UNL     1       3.739   2.405  18.510  0.00  0.00    +0.000 A 
ATOM     14  C   UNL     1       2.436   1.913  18.483  0.00  0.00    +0.000 A 
ATOM     15  C   UNL     1       1.382   2.805  18.370  0.00  0.00    +0.000 A 
ATOM     16  F   UNL     1       0.125   2.343  18.389  0.00  0.00    +0.000 F 
ATOM     17  C   UNL     1       1.611   4.172  18.246  0.00  0.00    +0.000 A 
ATOM     18  C   UNL     1       2.919   4.670  18.271  0.00  0.00    +0.000 A 
ENDBRANCH  11  12
ENDBRANCH   1  11
BRANCH   1  19
ATOM     19  O   UNL     1       7.386   3.980  17.267  0.00  0.00    +0.000 OA
ATOM     20  H   UNL     1       7.816   3.810  18.123  0.00  0.00    +0.000 HD
ENDBRANCH   1  19
BRANCH   1  21
ATOM     21  C   UNL     1       5.380   4.843  16.189  0.00  0.00    +0.000 C 
BRANCH  21  22
ATOM     22  N   UNL     1       6.069   4.648  14.931  0.00  0.00    +0.000 N 
ATOM     23  C   UNL     1       5.667   3.880  13.880  0.00  0.00    +0.000 A 
ATOM     24  N   UNL     1       6.545   3.967  12.910  0.00  0.00    +0.000 NA
ATOM     25  C   UNL     1       7.484   4.814  13.426  0.00  0.00    +0.000 A 
ATOM     26  N   UNL     1       7.257   5.226  14.676  0.00  0.00    +0.000 NA
ENDBRANCH  21  22
ENDBRANCH   1  21
TORSDOF 6
ENDMDL
MODEL 6
REMARK VINA RESULT:      -6.9      4.028      6.263
REMARK  Name = 
REMARK  6 active torsions:
REMARK  status: ('A' for Active; 'I' for Inactive)
REMARK    1  A    between atoms: C_2  and  C_3
REMARK    2  A    between atoms: C_2  and  C_10
REMARK    3  A    between atoms: C_10  and  O_11
REMARK    4  A    between atoms: C_10  and  C_12
REMARK    5  A    between atoms: C_10  and  C_18
REMARK    6  A    between atoms: C_12  and  N_13
REMARK                            x       y       z     vdW  Elec       q    Type
REMARK                         _______ _______ _______ _____ _____    ______ ____
ROOT
ATOM      1  C   UNL     1       3.806   6.074  18.390  0.00  0.00    +0.000 C 
ENDROOT
BRANCH   1   2
ATOM      2  C   UNL     1       2.824   7.254  18.523  0.00  0.00    +0.000 A 
ATOM      3  C   UNL     1       2.666   8.187  17.477  0.00  0.00    +0.000 A 
ATOM      4  C   UNL     1       1.872   9.332  17.623  0.00  0.00    +0.000 A 
ATOM      5  C   UNL     1       1.232   9.584  18.830  0.00  0.00    +0.000 A 
ATOM      6 CL   UNL     1       0.323  11.029  19.036  0.00  0.00    +0.000 Cl
ATOM      7  C   UNL     1       1.328   8.672  19.870  0.00  0.00    +0.000 A 
ATOM      8  C   UNL     1       2.091   7.505  19.713  0.00  0.00    +0.000 A 
ATOM      9 CL   UNL     1       2.048   6.417  21.060  0.00  0.00    +0.000 Cl
ENDBRANCH   1   2
BRANCH   1  11
ATOM     10  O   UNL     1       3.290   4.095  17.056  0.00  0.00    +0.000 OA
ATOM     11  C   UNL     1       3.167   4.673  18.142  0.00  0.00    +0.000 C 
BRANCH  11  12
ATOM     12  C   UNL     1       2.493   3.876  19.216  0.00  0.00    +0.000 A 
ATOM     13  C   UNL     1       3.331   3.276  20.181  0.00  0.00    +0.000 A 
ATOM     14  C   UNL     1       2.796   2.621  21.289  0.00  0.00    +0.000 A 
ATOM     15  C   UNL     1       1.419   2.548  21.426  0.00  0.00    +0.000 A 
ATOM     16  F   UNL     1       0.898   1.960  22.512  0.00  0.00    +0.000 F 
ATOM     17  C   UNL     1       0.574   3.081  20.460  0.00  0.00    +0.000 A 
ATOM     18  C   UNL     1       1.107   3.739  19.346  0.00  0.00    +0.000 A 
ENDBRANCH  11  12
ENDBRANCH   1  11
BRANCH   1  19
ATOM     19  O   UNL     1       4.518   5.973  19.642  0.00  0.00    +0.000 OA
ATOM     20  H   UNL     1       4.802   5.050  19.766  0.00  0.00    +0.000 HD
ENDBRANCH   1  19
BRANCH   1  21
ATOM     21  C   UNL     1       4.857   6.302  17.253  0.00  0.00    +0.000 C 
BRANCH  21  22
ATOM     22  N   UNL     1       6.191   6.679  17.667  0.00  0.00    +0.000 N 
ATOM     23  C   UNL     1       6.826   7.862  17.430  0.00  0.00    +0.000 A 
ATOM     24  N   UNL     1       8.018   7.839  17.977  0.00  0.00    +0.000 NA
ATOM     25  C   UNL     1       8.067   6.598  18.545  0.00  0.00    +0.000 A 
ATOM     26  N   UNL     1       6.988   5.836  18.348  0.00  0.00    +0.000 NA
ENDBRANCH  21  22
ENDBRANCH   1  21
TORSDOF 6
ENDMDL
MODEL 7
REMARK VINA RESULT:      -6.8      3.261      4.764
REMARK  Name = 
REMARK  6 active torsions:
REMARK  status: ('A' for Active; 'I' for Inactive)
REMARK    1  A    between atoms: C_2  and  C_3
REMARK    2  A    between atoms: C_2  and  C_10
REMARK    3  A    between atoms: C_10  and  O_11
REMARK    4  A    between atoms: C_10  and  C_12
REMARK    5  A    between atoms: C_10  and  C_18
REMARK    6  A    between atoms: C_12  and  N_13
REMARK                            x       y       z     vdW  Elec       q    Type
REMARK                         _______ _______ _______ _____ _____    ______ ____
ROOT
ATOM      1  C   UNL     1       6.142   5.031  17.493  0.00  0.00    +0.000 C 
ENDROOT
BRANCH   1   2
ATOM      2  C   UNL     1       6.815   6.380  17.814  0.00  0.00    +0.000 A 
ATOM      3  C   UNL     1       6.469   7.549  17.103  0.00  0.00    +0.000 A 
ATOM      4  C   UNL     1       7.154   8.756  17.295  0.00  0.00    +0.000 A 
ATOM      5  C   UNL     1       8.216   8.820  18.187  0.00  0.00    +0.000 A 
ATOM      6 CL   UNL     1       9.107  10.281  18.362  0.00  0.00    +0.000 Cl
ATOM      7  C   UNL     1       8.562   7.705  18.934  0.00  0.00    +0.000 A 
ATOM      8  C   UNL     1       7.853   6.504  18.774  0.00  0.00    +0.000 A 
ATOM      9 CL   UNL     1       8.336   5.224  19.836  0.00  0.00    +0.000 Cl
ENDBRANCH   1   2
BRANCH   1  11
ATOM     10  O   UNL     1       5.497   3.406  19.198  0.00  0.00    +0.000 OA
ATOM     11  C   UNL     1       5.209   4.449  18.599  0.00  0.00    +0.000 C 
BRANCH  11  12
ATOM     12  C   UNL     1       3.994   5.162  19.108  0.00  0.00    +0.000 A 
ATOM     13  C   UNL     1       3.254   4.511  20.120  0.00  0.00    +0.000 A 
ATOM     14  C   UNL     1       2.183   5.145  20.746  0.00  0.00    +0.000 A 
ATOM     15  C   UNL     1       1.834   6.426  20.350  0.00  0.00    +0.000 A 
ATOM     16  F   UNL     1       0.834   7.059  20.978  0.00  0.00    +0.000 F 
ATOM     17  C   UNL     1       2.511   7.065  19.316  0.00  0.00    +0.000 A 
ATOM     18  C   UNL     1       3.587   6.431  18.684  0.00  0.00    +0.000 A 
ENDBRANCH  11  12
ENDBRANCH   1  11
BRANCH   1  19
ATOM     19  O   UNL     1       7.198   4.064  17.311  0.00  0.00    +0.000 OA
ATOM     20  H   UNL     1       6.818   3.170  17.373  0.00  0.00    +0.000 HD
ENDBRANCH   1  19
BRANCH   1  21
ATOM     21  C   UNL     1       5.302   5.086  16.174  0.00  0.00    +0.000 C 
BRANCH  21  22
ATOM     22  N   UNL     1       5.999   4.767  14.947  0.00  0.00    +0.000 N 
ATOM     23  C   UNL     1       5.579   3.937  13.951  0.00  0.00    +0.000 A 
ATOM     24  N   UNL     1       6.474   3.913  12.992  0.00  0.00    +0.000 NA
ATOM     25  C   UNL     1       7.440   4.757  13.457  0.00  0.00    +0.000 A 
ATOM     26  N   UNL     1       7.214   5.273  14.668  0.00  0.00    +0.000 NA
ENDBRANCH  21  22
ENDBRANCH   1  21
TORSDOF 6
ENDMDL
MODEL 8
REMARK VINA RESULT:      -6.8      3.247      5.723
REMARK  Name = 
REMARK  6 active torsions:
REMARK  status: ('A' for Active; 'I' for Inactive)
REMARK    1  A    between atoms: C_2  and  C_3
REMARK    2  A    between atoms: C_2  and  C_10
REMARK    3  A    between atoms: C_10  and  O_11
REMARK    4  A    between atoms: C_10  and  C_12
REMARK    5  A    between atoms: C_10  and  C_18
REMARK    6  A    between atoms: C_12  and  N_13
REMARK                            x       y       z     vdW  Elec       q    Type
REMARK                         _______ _______ _______ _____ _____    ______ ____
ROOT
ATOM      1  C   UNL     1       2.793   5.764  19.131  0.00  0.00    +0.000 C 
ENDROOT
BRANCH   1   2
ATOM      2  C   UNL     1       2.205   7.087  19.659  0.00  0.00    +0.000 A 
ATOM      3  C   UNL     1       1.719   7.187  20.980  0.00  0.00    +0.000 A 
ATOM      4  C   UNL     1       1.071   8.340  21.441  0.00  0.00    +0.000 A 
ATOM      5  C   UNL     1       0.872   9.416  20.585  0.00  0.00    +0.000 A 
ATOM      6 CL   UNL     1       0.005  10.798  21.127  0.00  0.00    +0.000 Cl
ATOM      7  C   UNL     1       1.369   9.374  19.292  0.00  0.00    +0.000 A 
ATOM      8  C   UNL     1       2.054   8.236  18.839  0.00  0.00    +0.000 A 
ATOM      9 CL   UNL     1       2.696   8.359  17.234  0.00  0.00    +0.000 Cl
ENDBRANCH   1   2
BRANCH   1  11
ATOM     10  O   UNL     1       5.164   5.915  19.698  0.00  0.00    +0.000 OA
ATOM     11  C   UNL     1       4.319   5.773  18.806  0.00  0.00    +0.000 C 
BRANCH  11  12
ATOM     12  C   UNL     1       4.870   5.476  17.445  0.00  0.00    +0.000 A 
ATOM     13  C   UNL     1       5.168   4.124  17.163  0.00  0.00    +0.000 A 
ATOM     14  C   UNL     1       5.565   3.729  15.887  0.00  0.00    +0.000 A 
ATOM     15  C   UNL     1       5.686   4.686  14.893  0.00  0.00    +0.000 A 
ATOM     16  F   UNL     1       6.023   4.307  13.653  0.00  0.00    +0.000 F 
ATOM     17  C   UNL     1       5.454   6.031  15.162  0.00  0.00    +0.000 A 
ATOM     18  C   UNL     1       5.055   6.432  16.442  0.00  0.00    +0.000 A 
ENDBRANCH  11  12
ENDBRANCH   1  11
BRANCH   1  19
ATOM     19  O   UNL     1       2.121   5.469  17.888  0.00  0.00    +0.000 OA
ATOM     20  H   UNL     1       1.239   5.110  18.087  0.00  0.00    +0.000 HD
ENDBRANCH   1  19
BRANCH   1  21
ATOM     21  C   UNL     1       2.544   4.570  20.111  0.00  0.00    +0.000 C 
BRANCH  21  22
ATOM     22  N   UNL     1       1.913   3.393  19.554  0.00  0.00    +0.000 N 
ATOM     23  C   UNL     1       0.589   3.071  19.591  0.00  0.00    +0.000 A 
ATOM     24  N   UNL     1       0.396   1.935  18.964  0.00  0.00    +0.000 NA
ATOM     25  C   UNL     1       1.653   1.596  18.555  0.00  0.00    +0.000 A 
ATOM     26  N   UNL     1       2.622   2.437  18.928  0.00  0.00    +0.000 NA
ENDBRANCH  21  22
ENDBRANCH   1  21
TORSDOF 6
ENDMDL
MODEL 9
REMARK VINA RESULT:      -6.8      1.482      1.883
REMARK  Name = 
REMARK  6 active torsions:
REMARK  status: ('A' for Active; 'I' for Inactive)
REMARK    1  A    between atoms: C_2  and  C_3
REMARK    2  A    between atoms: C_2  and  C_10
REMARK    3  A    between atoms: C_10  and  O_11
REMARK    4  A    between atoms: C_10  and  C_12
REMARK    5  A    between atoms: C_10  and  C_18
REMARK    6  A    between atoms: C_12  and  N_13
REMARK                            x       y       z     vdW  Elec       q    Type
REMARK                         _______ _______ _______ _____ _____    ______ ____
ROOT
ATOM      1  C   UNL     1       4.011   4.652  18.039  0.00  0.00    +0.000 C 
ENDROOT
BRANCH   1   2
ATOM      2  C   UNL     1       4.867   4.801  16.767  0.00  0.00    +0.000 A 
ATOM      3  C   UNL     1       4.958   3.752  15.828  0.00  0.00    +0.000 A 
ATOM      4  C   UNL     1       5.824   3.819  14.729  0.00  0.00    +0.000 A 
ATOM      5  C   UNL     1       6.638   4.930  14.552  0.00  0.00    +0.000 A 
ATOM      6 CL   UNL     1       7.759   4.978  13.249  0.00  0.00    +0.000 Cl
ATOM      7  C   UNL     1       6.551   6.000  15.429  0.00  0.00    +0.000 A 
ATOM      8  C   UNL     1       5.655   5.953  16.509  0.00  0.00    +0.000 A 
ATOM      9 CL   UNL     1       5.589   7.395  17.467  0.00  0.00    +0.000 Cl
ENDBRANCH   1   2
BRANCH   1  11
ATOM     10  O   UNL     1       1.647   4.779  17.438  0.00  0.00    +0.000 OA
ATOM     11  C   UNL     1       2.603   5.323  18.002  0.00  0.00    +0.000 C 
BRANCH  11  12
ATOM     12  C   UNL     1       2.273   6.579  18.748  0.00  0.00    +0.000 A 
ATOM     13  C   UNL     1       2.174   7.763  17.984  0.00  0.00    +0.000 A 
ATOM     14  C   UNL     1       1.749   8.957  18.563  0.00  0.00    +0.000 A 
ATOM     15  C   UNL     1       1.440   8.978  19.913  0.00  0.00    +0.000 A 
ATOM     16  F   UNL     1       0.987  10.111  20.466  0.00  0.00    +0.000 F 
ATOM     17  C   UNL     1       1.584   7.839  20.698  0.00  0.00    +0.000 A 
ATOM     18  C   UNL     1       2.011   6.638  20.121  0.00  0.00    +0.000 A 
ENDBRANCH  11  12
ENDBRANCH   1  11
BRANCH   1  19
ATOM     19  O   UNL     1       4.732   5.295  19.112  0.00  0.00    +0.000 OA
ATOM     20  H   UNL     1       4.099   5.791  19.660  0.00  0.00    +0.000 HD
ENDBRANCH   1  19
BRANCH   1  21
ATOM     21  C   UNL     1       3.789   3.154  18.434  0.00  0.00    +0.000 C 
BRANCH  21  22
ATOM     22  N   UNL     1       2.998   2.905  19.619  0.00  0.00    +0.000 N 
ATOM     23  C   UNL     1       1.740   2.384  19.678  0.00  0.00    +0.000 A 
ATOM     24  N   UNL     1       1.360   2.292  20.929  0.00  0.00    +0.000 NA
ATOM     25  C   UNL     1       2.438   2.780  21.611  0.00  0.00    +0.000 A 
ATOM     26  N   UNL     1       3.450   3.205  20.850  0.00  0.00    +0.000 NA
ENDBRANCH  21  22
ENDBRANCH   1  21
TORSDOF 6
ENDMDL
