MODEL 1
REMARK VINA RESULT:      -7.6      0.000      0.000
REMARK  Name = 
REMARK  6 active torsions:
REMARK  status: ('A' for Active; 'I' for Inactive)
REMARK    1  A    between atoms: C_1  and  C_2
REMARK    2  A    between atoms: C_5  and  C_6
REMARK    3  A    between atoms: C_14  and  C_15
REMARK    4  A    between atoms: C_15  and  O_16
REMARK    5  A    between atoms: O_16  and  C_17
REMARK    6  A    between atoms: C_17  and  C_18
REMARK                            x       y       z     vdW  Elec       q    Type
REMARK                         _______ _______ _______ _____ _____    ______ ____
ROOT
ATOM      1  C   UNL     1       5.449   4.647  17.412  0.00  0.00    +0.000 C 
ATOM      2  O   UNL     1       5.571   4.096  16.320  0.00  0.00    +0.000 OA
ATOM      3  N   UNL     1       4.616   4.156  18.408  0.00  0.00    +0.000 N 
ATOM      4  C   UNL     1       3.962   2.904  18.262  0.00  0.00    +0.000 C 
ATOM      5  C   UNL     1       2.959   3.000  19.389  0.00  0.00    +0.000 C 
ATOM      6  C   UNL     1       1.966   1.894  19.264  0.00  0.00    +0.000 C 
ATOM      7  O   UNL     1       0.971   2.339  20.138  0.00  0.00    +0.000 OA
ATOM      8  C   UNL     1       1.100   3.760  20.188  0.00  0.00    +0.000 C 
ATOM      9  C   UNL     1       2.270   4.449  19.268  0.00  0.00    +0.000 C 
ATOM     10  C   UNL     1       3.821   4.974  19.313  0.00  0.00    +0.000 C 
ENDROOT
BRANCH   1  15
ATOM     11  C   UNL     1       8.799   9.248  18.066  0.00  0.00    +0.000 C 
ATOM     12  C   UNL     1       7.890   8.060  17.991  0.00  0.00    +0.000 A 
ATOM     13  C   UNL     1       8.180   6.911  18.721  0.00  0.00    +0.000 A 
ATOM     14  C   UNL     1       7.372   5.792  18.563  0.00  0.00    +0.000 A 
ATOM     15  C   UNL     1       6.276   5.843  17.702  0.00  0.00    +0.000 A 
ATOM     16  C   UNL     1       6.050   7.031  17.024  0.00  0.00    +0.000 A 
ATOM     17  N   UNL     1       6.828   8.140  17.149  0.00  0.00    +0.000 NA
ENDBRANCH   1  15
BRANCH   9  18
ATOM     18  C   UNL     1       1.818   5.843  19.971  0.00  0.00    +0.000 C 
BRANCH  18  19
ATOM     19  O   UNL     1       2.653   6.942  19.569  0.00  0.00    +0.000 OA
BRANCH  19  20
ATOM     20  C   UNL     1       2.141   7.706  18.477  0.00  0.00    +0.000 C 
BRANCH  20  21
ATOM     21  C   UNL     1       1.609   9.009  19.005  0.00  0.00    +0.000 A 
ATOM     22  C   UNL     1       1.125   9.117  20.311  0.00  0.00    +0.000 A 
ATOM     23  C   UNL     1       0.650  10.337  20.779  0.00  0.00    +0.000 A 
ATOM     24  C   UNL     1       0.690  11.424  19.926  0.00  0.00    +0.000 A 
ATOM     25  N   UNL     1       1.150  11.373  18.659  0.00  0.00    +0.000 NA
ATOM     26  C   UNL     1       1.598  10.170  18.226  0.00  0.00    +0.000 A 
ENDBRANCH  20  21
ENDBRANCH  19  20
ENDBRANCH  18  19
ENDBRANCH   9  18
TORSDOF 5
ENDMDL
MODEL 2
REMARK VINA RESULT:      -7.5      0.851      1.362
REMARK  Name = 
REMARK  6 active torsions:
REMARK  status: ('A' for Active; 'I' for Inactive)
REMARK    1  A    between atoms: C_1  and  C_2
REMARK    2  A    between atoms: C_5  and  C_6
REMARK    3  A    between atoms: C_14  and  C_15
REMARK    4  A    between atoms: C_15  and  O_16
REMARK    5  A    between atoms: O_16  and  C_17
REMARK    6  A    between atoms: C_17  and  C_18
REMARK                            x       y       z     vdW  Elec       q    Type
REMARK                         _______ _______ _______ _____ _____    ______ ____
ROOT
ATOM      1  C   UNL     1       5.490   4.476  17.506  0.00  0.00    +0.000 C 
ATOM      2  O   UNL     1       5.546   3.830  16.462  0.00  0.00    +0.000 OA
ATOM      3  N   UNL     1       4.665   4.118  18.564  0.00  0.00    +0.000 N 
ATOM      4  C   UNL     1       3.939   2.898  18.543  0.00  0.00    +0.000 C 
ATOM      5  C   UNL     1       2.980   3.144  19.686  0.00  0.00    +0.000 C 
ATOM      6  C   UNL     1       1.926   2.090  19.684  0.00  0.00    +0.000 C 
ATOM      7  O   UNL     1       0.986   2.663  20.545  0.00  0.00    +0.000 OA
ATOM      8  C   UNL     1       1.193   4.073  20.470  0.00  0.00    +0.000 C 
ATOM      9  C   UNL     1       2.368   4.615  19.462  0.00  0.00    +0.000 C 
ATOM     10  C   UNL     1       3.946   5.053  19.418  0.00  0.00    +0.000 C 
ENDROOT
BRANCH   1  15
ATOM     11  C   UNL     1       8.807   9.017  18.602  0.00  0.00    +0.000 C 
ATOM     12  C   UNL     1       7.983   7.824  18.222  0.00  0.00    +0.000 A 
ATOM     13  C   UNL     1       6.971   7.948  17.275  0.00  0.00    +0.000 A 
ATOM     14  C   UNL     1       6.162   6.850  17.008  0.00  0.00    +0.000 A 
ATOM     15  C   UNL     1       6.390   5.643  17.669  0.00  0.00    +0.000 A 
ATOM     16  C   UNL     1       7.429   5.602  18.587  0.00  0.00    +0.000 A 
ATOM     17  N   UNL     1       8.231   6.662  18.877  0.00  0.00    +0.000 NA
ENDBRANCH   1  15
BRANCH   9  18
ATOM     18  C   UNL     1       2.016   6.087  20.057  0.00  0.00    +0.000 C 
BRANCH  18  19
ATOM     19  O   UNL     1       2.793   7.119  19.426  0.00  0.00    +0.000 OA
BRANCH  19  20
ATOM     20  C   UNL     1       2.099   7.845  18.411  0.00  0.00    +0.000 C 
BRANCH  20  21
ATOM     21  C   UNL     1       1.510   9.087  19.020  0.00  0.00    +0.000 A 
ATOM     22  C   UNL     1       1.259  10.222  18.246  0.00  0.00    +0.000 A 
ATOM     23  C   UNL     1       0.702  11.354  18.831  0.00  0.00    +0.000 A 
ATOM     24  C   UNL     1       0.395  11.310  20.177  0.00  0.00    +0.000 A 
ATOM     25  N   UNL     1       0.615  10.238  20.967  0.00  0.00    +0.000 NA
ATOM     26  C   UNL     1       1.167   9.153  20.374  0.00  0.00    +0.000 A 
ENDBRANCH  20  21
ENDBRANCH  19  20
ENDBRANCH  18  19
ENDBRANCH   9  18
TORSDOF 5
ENDMDL
MODEL 3
REMARK VINA RESULT:      -7.5      1.234      1.526
REMARK  Name = 
REMARK  6 active torsions:
REMARK  status: ('A' for Active; 'I' for Inactive)
REMARK    1  A    between atoms: C_1  and  C_2
REMARK    2  A    between atoms: C_5  and  C_6
REMARK    3  A    between atoms: C_14  and  C_15
REMARK    4  A    between atoms: C_15  and  O_16
REMARK    5  A    between atoms: O_16  and  C_17
REMARK    6  A    between atoms: C_17  and  C_18
REMARK                            x       y       z     vdW  Elec       q    Type
REMARK                         _______ _______ _______ _____ _____    ______ ____
ROOT
ATOM      1  C   UNL     1       6.313   4.860  17.344  0.00  0.00    +0.000 C 
ATOM      2  O   UNL     1       6.815   4.212  16.429  0.00  0.00    +0.000 OA
ATOM      3  N   UNL     1       5.224   4.402  18.074  0.00  0.00    +0.000 N 
ATOM      4  C   UNL     1       4.719   3.088  17.886  0.00  0.00    +0.000 C 
ATOM      5  C   UNL     1       3.397   3.210  18.610  0.00  0.00    +0.000 C 
ATOM      6  C   UNL     1       2.559   2.012  18.315  0.00  0.00    +0.000 C 
ATOM      7  O   UNL     1       1.310   2.454  18.759  0.00  0.00    +0.000 OA
ATOM      8  C   UNL     1       1.343   3.879  18.667  0.00  0.00    +0.000 C 
ATOM      9  C   UNL     1       2.714   4.571  18.092  0.00  0.00    +0.000 C 
ATOM     10  C   UNL     1       4.134   5.235  18.565  0.00  0.00    +0.000 C 
ENDROOT
BRANCH   1  15
ATOM     11  C   UNL     1       8.961   9.828  18.406  0.00  0.00    +0.000 C 
ATOM     12  C   UNL     1       8.216   8.542  18.216  0.00  0.00    +0.000 A 
ATOM     13  C   UNL     1       8.487   7.450  19.035  0.00  0.00    +0.000 A 
ATOM     14  C   UNL     1       7.850   6.242  18.780  0.00  0.00    +0.000 A 
ATOM     15  C   UNL     1       6.936   6.148  17.730  0.00  0.00    +0.000 A 
ATOM     16  C   UNL     1       6.713   7.288  16.972  0.00  0.00    +0.000 A 
ATOM     17  N   UNL     1       7.329   8.481  17.190  0.00  0.00    +0.000 NA
ENDBRANCH   1  15
BRANCH   9  18
ATOM     18  C   UNL     1       1.985   5.984  18.429  0.00  0.00    +0.000 C 
BRANCH  18  19
ATOM     19  O   UNL     1       2.535   6.603  19.604  0.00  0.00    +0.000 OA
BRANCH  19  20
ATOM     20  C   UNL     1       1.594   6.811  20.658  0.00  0.00    +0.000 C 
BRANCH  20  21
ATOM     21  C   UNL     1       1.318   8.284  20.778  0.00  0.00    +0.000 A 
ATOM     22  C   UNL     1       1.057   9.064  19.649  0.00  0.00    +0.000 A 
ATOM     23  C   UNL     1       0.792  10.422  19.787  0.00  0.00    +0.000 A 
ATOM     24  C   UNL     1       0.780  10.958  21.061  0.00  0.00    +0.000 A 
ATOM     25  N   UNL     1       1.023  10.248  22.182  0.00  0.00    +0.000 NA
ATOM     26  C   UNL     1       1.287   8.930  22.017  0.00  0.00    +0.000 A 
ENDBRANCH  20  21
ENDBRANCH  19  20
ENDBRANCH  18  19
ENDBRANCH   9  18
TORSDOF 5
ENDMDL
MODEL 4
REMARK VINA RESULT:      -7.5      1.422      1.869
REMARK  Name = 
REMARK  6 active torsions:
REMARK  status: ('A' for Active; 'I' for Inactive)
REMARK    1  A    between atoms: C_1  and  C_2
REMARK    2  A    between atoms: C_5  and  C_6
REMARK    3  A    between atoms: C_14  and  C_15
REMARK    4  A    between atoms: C_15  and  O_16
REMARK    5  A    between atoms: O_16  and  C_17
REMARK    6  A    between atoms: C_17  and  C_18
REMARK                            x       y       z     vdW  Elec       q    Type
REMARK                         _______ _______ _______ _____ _____    ______ ____
ROOT
ATOM      1  C   UNL     1       5.198   4.604  17.379  0.00  0.00    +0.000 C 
ATOM      2  O   UNL     1       5.068   4.119  16.258  0.00  0.00    +0.000 OA
ATOM      3  N   UNL     1       4.512   4.122  18.486  0.00  0.00    +0.000 N 
ATOM      4  C   UNL     1       3.722   2.945  18.400  0.00  0.00    +0.000 C 
ATOM      5  C   UNL     1       2.950   3.052  19.696  0.00  0.00    +0.000 C 
ATOM      6  C   UNL     1       1.848   2.048  19.700  0.00  0.00    +0.000 C 
ATOM      7  O   UNL     1       1.073   2.519  20.763  0.00  0.00    +0.000 OA
ATOM      8  C   UNL     1       1.348   3.917  20.860  0.00  0.00    +0.000 C 
ATOM      9  C   UNL     1       2.398   4.560  19.777  0.00  0.00    +0.000 C 
ATOM     10  C   UNL     1       3.975   4.944  19.562  0.00  0.00    +0.000 C 
ENDROOT
BRANCH   1  15
ATOM     11  C   UNL     1       8.826   8.870  18.590  0.00  0.00    +0.000 C 
ATOM     12  C   UNL     1       7.920   7.749  18.180  0.00  0.00    +0.000 A 
ATOM     13  C   UNL     1       6.912   7.972  17.246  0.00  0.00    +0.000 A 
ATOM     14  C   UNL     1       6.028   6.941  16.951  0.00  0.00    +0.000 A 
ATOM     15  C   UNL     1       6.177   5.701  17.572  0.00  0.00    +0.000 A 
ATOM     16  C   UNL     1       7.216   5.560  18.479  0.00  0.00    +0.000 A 
ATOM     17  N   UNL     1       8.091   6.552  18.796  0.00  0.00    +0.000 NA
ENDBRANCH   1  15
BRANCH   9  18
ATOM     18  C   UNL     1       2.217   5.938  20.620  0.00  0.00    +0.000 C 
BRANCH  18  19
ATOM     19  O   UNL     1       1.385   6.885  19.928  0.00  0.00    +0.000 OA
BRANCH  19  20
ATOM     20  C   UNL     1       1.870   8.228  19.953  0.00  0.00    +0.000 C 
BRANCH  20  21
ATOM     21  C   UNL     1       1.040   9.026  20.919  0.00  0.00    +0.000 A 
ATOM     22  C   UNL     1      -0.062   9.766  20.485  0.00  0.00    +0.000 A 
ATOM     23  C   UNL     1      -0.822  10.486  21.400  0.00  0.00    +0.000 A 
ATOM     24  C   UNL     1      -0.463  10.430  22.733  0.00  0.00    +0.000 A 
ATOM     25  N   UNL     1       0.590   9.729  23.204  0.00  0.00    +0.000 NA
ATOM     26  C   UNL     1       1.317   9.044  22.289  0.00  0.00    +0.000 A 
ENDBRANCH  20  21
ENDBRANCH  19  20
ENDBRANCH  18  19
ENDBRANCH   9  18
TORSDOF 5
ENDMDL
MODEL 5
REMARK VINA RESULT:      -7.4      1.020      1.239
REMARK  Name = 
REMARK  6 active torsions:
REMARK  status: ('A' for Active; 'I' for Inactive)
REMARK    1  A    between atoms: C_1  and  C_2
REMARK    2  A    between atoms: C_5  and  C_6
REMARK    3  A    between atoms: C_14  and  C_15
REMARK    4  A    between atoms: C_15  and  O_16
REMARK    5  A    between atoms: O_16  and  C_17
REMARK    6  A    between atoms: C_17  and  C_18
REMARK                            x       y       z     vdW  Elec       q    Type
REMARK                         _______ _______ _______ _____ _____    ______ ____
ROOT
ATOM      1  C   UNL     1       6.104   4.763  17.433  0.00  0.00    +0.000 C 
ATOM      2  O   UNL     1       6.499   4.116  16.466  0.00  0.00    +0.000 OA
ATOM      3  N   UNL     1       5.120   4.296  18.294  0.00  0.00    +0.000 N 
ATOM      4  C   UNL     1       4.613   2.974  18.175  0.00  0.00    +0.000 C 
ATOM      5  C   UNL     1       3.389   3.084  19.057  0.00  0.00    +0.000 C 
ATOM      6  C   UNL     1       2.537   1.875  18.872  0.00  0.00    +0.000 C 
ATOM      7  O   UNL     1       1.347   2.304  19.465  0.00  0.00    +0.000 OA
ATOM      8  C   UNL     1       1.349   3.728  19.363  0.00  0.00    +0.000 C 
ATOM      9  C   UNL     1       2.630   4.433  18.620  0.00  0.00    +0.000 C 
ATOM     10  C   UNL     1       4.089   5.118  18.912  0.00  0.00    +0.000 C 
ENDROOT
BRANCH   1  15
ATOM     11  C   UNL     1       8.793   9.773  18.136  0.00  0.00    +0.000 C 
ATOM     12  C   UNL     1       8.050   8.475  18.046  0.00  0.00    +0.000 A 
ATOM     13  C   UNL     1       8.446   7.388  18.820  0.00  0.00    +0.000 A 
ATOM     14  C   UNL     1       7.799   6.171  18.651  0.00  0.00    +0.000 A 
ATOM     15  C   UNL     1       6.753   6.062  17.734  0.00  0.00    +0.000 A 
ATOM     16  C   UNL     1       6.413   7.197  17.014  0.00  0.00    +0.000 A 
ATOM     17  N   UNL     1       7.033   8.400  17.150  0.00  0.00    +0.000 NA
ENDBRANCH   1  15
BRANCH   9  18
ATOM     18  C   UNL     1       1.929   5.839  19.039  0.00  0.00    +0.000 C 
BRANCH  18  19
ATOM     19  O   UNL     1       2.020   6.817  17.989  0.00  0.00    +0.000 OA
BRANCH  19  20
ATOM     20  C   UNL     1       2.543   8.080  18.401  0.00  0.00    +0.000 C 
BRANCH  20  21
ATOM     21  C   UNL     1       1.411   8.933  18.903  0.00  0.00    +0.000 A 
ATOM     22  C   UNL     1       0.648   9.710  18.029  0.00  0.00    +0.000 A 
ATOM     23  C   UNL     1      -0.401  10.481  18.517  0.00  0.00    +0.000 A 
ATOM     24  C   UNL     1      -0.668  10.437  19.872  0.00  0.00    +0.000 A 
ATOM     25  N   UNL     1       0.037   9.701  20.757  0.00  0.00    +0.000 NA
ATOM     26  C   UNL     1       1.058   8.968  20.256  0.00  0.00    +0.000 A 
ENDBRANCH  20  21
ENDBRANCH  19  20
ENDBRANCH  18  19
ENDBRANCH   9  18
TORSDOF 5
ENDMDL
MODEL 6
REMARK VINA RESULT:      -7.3      1.026      1.382
REMARK  Name = 
REMARK  6 active torsions:
REMARK  status: ('A' for Active; 'I' for Inactive)
REMARK    1  A    between atoms: C_1  and  C_2
REMARK    2  A    between atoms: C_5  and  C_6
REMARK    3  A    between atoms: C_14  and  C_15
REMARK    4  A    between atoms: C_15  and  O_16
REMARK    5  A    between atoms: O_16  and  C_17
REMARK    6  A    between atoms: C_17  and  C_18
REMARK                            x       y       z     vdW  Elec       q    Type
REMARK                         _______ _______ _______ _____ _____    ______ ____
ROOT
ATOM      1  C   UNL     1       5.470   4.484  17.362  0.00  0.00    +0.000 C 
ATOM      2  O   UNL     1       5.520   3.886  16.290  0.00  0.00    +0.000 OA
ATOM      3  N   UNL     1       4.648   4.080  18.406  0.00  0.00    +0.000 N 
ATOM      4  C   UNL     1       3.919   2.863  18.333  0.00  0.00    +0.000 C 
ATOM      5  C   UNL     1       2.966   3.060  19.490  0.00  0.00    +0.000 C 
ATOM      6  C   UNL     1       1.909   2.009  19.444  0.00  0.00    +0.000 C 
ATOM      7  O   UNL     1       0.974   2.544  20.334  0.00  0.00    +0.000 OA
ATOM      8  C   UNL     1       1.184   3.956  20.322  0.00  0.00    +0.000 C 
ATOM      9  C   UNL     1       2.356   4.540  19.336  0.00  0.00    +0.000 C 
ATOM     10  C   UNL     1       3.935   4.977  19.306  0.00  0.00    +0.000 C 
ENDROOT
BRANCH   1  15
ATOM     11  C   UNL     1       8.765   8.994  18.635  0.00  0.00    +0.000 C 
ATOM     12  C   UNL     1       7.954   7.808  18.213  0.00  0.00    +0.000 A 
ATOM     13  C   UNL     1       7.019   7.929  17.189  0.00  0.00    +0.000 A 
ATOM     14  C   UNL     1       6.216   6.839  16.879  0.00  0.00    +0.000 A 
ATOM     15  C   UNL     1       6.373   5.640  17.575  0.00  0.00    +0.000 A 
ATOM     16  C   UNL     1       7.337   5.601  18.571  0.00  0.00    +0.000 A 
ATOM     17  N   UNL     1       8.132   6.653  18.905  0.00  0.00    +0.000 NA
ENDBRANCH   1  15
BRANCH   9  18
ATOM     18  C   UNL     1       2.010   5.984  19.998  0.00  0.00    +0.000 C 
BRANCH  18  19
ATOM     19  O   UNL     1       2.799   7.040  19.425  0.00  0.00    +0.000 OA
BRANCH  19  20
ATOM     20  C   UNL     1       2.039   8.121  18.886  0.00  0.00    +0.000 C 
BRANCH  20  21
ATOM     21  C   UNL     1       1.303   8.803  20.006  0.00  0.00    +0.000 A 
ATOM     22  C   UNL     1       1.629   8.556  21.341  0.00  0.00    +0.000 A 
ATOM     23  C   UNL     1       0.942   9.207  22.358  0.00  0.00    +0.000 A 
ATOM     24  C   UNL     1      -0.047  10.106  22.006  0.00  0.00    +0.000 A 
ATOM     25  N   UNL     1      -0.398  10.382  20.732  0.00  0.00    +0.000 NA
ATOM     26  C   UNL     1       0.282   9.726  19.762  0.00  0.00    +0.000 A 
ENDBRANCH  20  21
ENDBRANCH  19  20
ENDBRANCH  18  19
ENDBRANCH   9  18
TORSDOF 5
ENDMDL
MODEL 7
REMARK VINA RESULT:      -7.3      1.454      1.885
REMARK  Name = 
REMARK  6 active torsions:
REMARK  status: ('A' for Active; 'I' for Inactive)
REMARK    1  A    between atoms: C_1  and  C_2
REMARK    2  A    between atoms: C_5  and  C_6
REMARK    3  A    between atoms: C_14  and  C_15
REMARK    4  A    between atoms: C_15  and  O_16
REMARK    5  A    between atoms: O_16  and  C_17
REMARK    6  A    between atoms: C_17  and  C_18
REMARK                            x       y       z     vdW  Elec       q    Type
REMARK                         _______ _______ _______ _____ _____    ______ ____
ROOT
ATOM      1  C   UNL     1       6.392   4.798  16.979  0.00  0.00    +0.000 C 
ATOM      2  O   UNL     1       6.836   4.159  16.028  0.00  0.00    +0.000 OA
ATOM      3  N   UNL     1       5.266   4.398  17.686  0.00  0.00    +0.000 N 
ATOM      4  C   UNL     1       4.647   3.146  17.428  0.00  0.00    +0.000 C 
ATOM      5  C   UNL     1       3.340   3.344  18.163  0.00  0.00    +0.000 C 
ATOM      6  C   UNL     1       2.400   2.243  17.805  0.00  0.00    +0.000 C 
ATOM      7  O   UNL     1       1.195   2.768  18.277  0.00  0.00    +0.000 OA
ATOM      8  C   UNL     1       1.353   4.187  18.262  0.00  0.00    +0.000 C 
ATOM      9  C   UNL     1       2.781   4.786  17.721  0.00  0.00    +0.000 C 
ATOM     10  C   UNL     1       4.253   5.296  18.225  0.00  0.00    +0.000 C 
ENDROOT
BRANCH   1  15
ATOM     11  C   UNL     1       8.940   9.456  19.130  0.00  0.00    +0.000 C 
ATOM     12  C   UNL     1       8.342   8.241  18.491  0.00  0.00    +0.000 A 
ATOM     13  C   UNL     1       7.632   8.356  17.299  0.00  0.00    +0.000 A 
ATOM     14  C   UNL     1       7.010   7.229  16.775  0.00  0.00    +0.000 A 
ATOM     15  C   UNL     1       7.125   6.004  17.432  0.00  0.00    +0.000 A 
ATOM     16  C   UNL     1       7.862   5.974  18.606  0.00  0.00    +0.000 A 
ATOM     17  N   UNL     1       8.474   7.061  19.149  0.00  0.00    +0.000 NA
ENDBRANCH   1  15
BRANCH   9  18
ATOM     18  C   UNL     1       2.178   6.237  18.138  0.00  0.00    +0.000 C 
BRANCH  18  19
ATOM     19  O   UNL     1       2.735   6.714  19.374  0.00  0.00    +0.000 OA
BRANCH  19  20
ATOM     20  C   UNL     1       1.796   6.820  20.445  0.00  0.00    +0.000 C 
BRANCH  20  21
ATOM     21  C   UNL     1       1.443   8.268  20.638  0.00  0.00    +0.000 A 
ATOM     22  C   UNL     1       1.202   9.106  19.547  0.00  0.00    +0.000 A 
ATOM     23  C   UNL     1       0.866  10.439  19.753  0.00  0.00    +0.000 A 
ATOM     24  C   UNL     1       0.763  10.892  21.055  0.00  0.00    +0.000 A 
ATOM     25  N   UNL     1       0.982  10.124  22.142  0.00  0.00    +0.000 NA
ATOM     26  C   UNL     1       1.318   8.832  21.912  0.00  0.00    +0.000 A 
ENDBRANCH  20  21
ENDBRANCH  19  20
ENDBRANCH  18  19
ENDBRANCH   9  18
TORSDOF 5
ENDMDL
MODEL 8
REMARK VINA RESULT:      -7.3      1.402      1.711
REMARK  Name = 
REMARK  6 active torsions:
REMARK  status: ('A' for Active; 'I' for Inactive)
REMARK    1  A    between atoms: C_1  and  C_2
REMARK    2  A    between atoms: C_5  and  C_6
REMARK    3  A    between atoms: C_14  and  C_15
REMARK    4  A    between atoms: C_15  and  O_16
REMARK    5  A    between atoms: O_16  and  C_17
REMARK    6  A    between atoms: C_17  and  C_18
REMARK                            x       y       z     vdW  Elec       q    Type
REMARK                         _______ _______ _______ _____ _____    ______ ____
ROOT
ATOM      1  C   UNL     1       5.386   4.643  17.674  0.00  0.00    +0.000 C 
ATOM      2  O   UNL     1       5.427   4.052  16.597  0.00  0.00    +0.000 OA
ATOM      3  N   UNL     1       4.630   4.189  18.747  0.00  0.00    +0.000 N 
ATOM      4  C   UNL     1       3.966   2.935  18.694  0.00  0.00    +0.000 C 
ATOM      5  C   UNL     1       3.050   3.074  19.889  0.00  0.00    +0.000 C 
ATOM      6  C   UNL     1       2.051   1.967  19.878  0.00  0.00    +0.000 C 
ATOM      7  O   UNL     1       1.123   2.445  20.807  0.00  0.00    +0.000 OA
ATOM      8  C   UNL     1       1.256   3.867  20.796  0.00  0.00    +0.000 C 
ATOM      9  C   UNL     1       2.354   4.519  19.768  0.00  0.00    +0.000 C 
ATOM     10  C   UNL     1       3.904   5.042  19.679  0.00  0.00    +0.000 C 
ENDROOT
BRANCH   1  15
ATOM     11  C   UNL     1       8.780   9.252  17.914  0.00  0.00    +0.000 C 
ATOM     12  C   UNL     1       7.865   8.066  17.949  0.00  0.00    +0.000 A 
ATOM     13  C   UNL     1       8.200   6.947  18.707  0.00  0.00    +0.000 A 
ATOM     14  C   UNL     1       7.382   5.826  18.650  0.00  0.00    +0.000 A 
ATOM     15  C   UNL     1       6.232   5.846  17.859  0.00  0.00    +0.000 A 
ATOM     16  C   UNL     1       5.965   7.006  17.148  0.00  0.00    +0.000 A 
ATOM     17  N   UNL     1       6.751   8.115  17.175  0.00  0.00    +0.000 NA
ENDBRANCH   1  15
BRANCH   9  18
ATOM     18  C   UNL     1       1.955   5.939  20.452  0.00  0.00    +0.000 C 
BRANCH  18  19
ATOM     19  O   UNL     1       1.528   6.903  19.476  0.00  0.00    +0.000 OA
BRANCH  19  20
ATOM     20  C   UNL     1       1.896   8.250  19.773  0.00  0.00    +0.000 C 
BRANCH  20  21
ATOM     21  C   UNL     1       1.163   8.692  21.009  0.00  0.00    +0.000 A 
ATOM     22  C   UNL     1      -0.230   8.615  21.090  0.00  0.00    +0.000 A 
ATOM     23  C   UNL     1      -0.883   9.019  22.248  0.00  0.00    +0.000 A 
ATOM     24  C   UNL     1      -0.118   9.474  23.304  0.00  0.00    +0.000 A 
ATOM     25  N   UNL     1       1.228   9.565  23.278  0.00  0.00    +0.000 NA
ATOM     26  C   UNL     1       1.838   9.174  22.134  0.00  0.00    +0.000 A 
ENDBRANCH  20  21
ENDBRANCH  19  20
ENDBRANCH  18  19
ENDBRANCH   9  18
TORSDOF 5
ENDMDL
MODEL 9
REMARK VINA RESULT:      -7.2      0.881      1.507
REMARK  Name = 
REMARK  6 active torsions:
REMARK  status: ('A' for Active; 'I' for Inactive)
REMARK    1  A    between atoms: C_1  and  C_2
REMARK    2  A    between atoms: C_5  and  C_6
REMARK    3  A    between atoms: C_14  and  C_15
REMARK    4  A    between atoms: C_15  and  O_16
REMARK    5  A    between atoms: O_16  and  C_17
REMARK    6  A    between atoms: C_17  and  C_18
REMARK                            x       y       z     vdW  Elec       q    Type
REMARK                         _______ _______ _______ _____ _____    ______ ____
ROOT
ATOM      1  C   UNL     1       5.080   4.658  17.235  0.00  0.00    +0.000 C 
ATOM      2  O   UNL     1       4.874   4.278  16.085  0.00  0.00    +0.000 OA
ATOM      3  N   UNL     1       4.464   4.076  18.335  0.00  0.00    +0.000 N 
ATOM      4  C   UNL     1       3.662   2.913  18.194  0.00  0.00    +0.000 C 
ATOM      5  C   UNL     1       2.979   2.901  19.543  0.00  0.00    +0.000 C 
ATOM      6  C   UNL     1       1.871   1.903  19.528  0.00  0.00    +0.000 C 
ATOM      7  O   UNL     1       1.172   2.274  20.678  0.00  0.00    +0.000 OA
ATOM      8  C   UNL     1       1.462   3.657  20.884  0.00  0.00    +0.000 C 
ATOM      9  C   UNL     1       2.443   4.397  19.798  0.00  0.00    +0.000 C 
ATOM     10  C   UNL     1       4.006   4.797  19.516  0.00  0.00    +0.000 C 
ENDROOT
BRANCH   1  15
ATOM     11  C   UNL     1       8.780   8.819  18.581  0.00  0.00    +0.000 C 
ATOM     12  C   UNL     1       7.855   7.728  18.135  0.00  0.00    +0.000 A 
ATOM     13  C   UNL     1       6.847   8.000  17.214  0.00  0.00    +0.000 A 
ATOM     14  C   UNL     1       5.946   6.995  16.887  0.00  0.00    +0.000 A 
ATOM     15  C   UNL     1       6.077   5.731  17.462  0.00  0.00    +0.000 A 
ATOM     16  C   UNL     1       7.117   5.541  18.359  0.00  0.00    +0.000 A 
ATOM     17  N   UNL     1       8.009   6.507  18.707  0.00  0.00    +0.000 NA
ENDBRANCH   1  15
BRANCH   9  18
ATOM     18  C   UNL     1       2.328   5.692  20.774  0.00  0.00    +0.000 C 
BRANCH  18  19
ATOM     19  O   UNL     1       1.463   6.701  20.226  0.00  0.00    +0.000 OA
BRANCH  19  20
ATOM     20  C   UNL     1       1.272   7.838  21.068  0.00  0.00    +0.000 C 
BRANCH  20  21
ATOM     21  C   UNL     1       1.185   9.068  20.209  0.00  0.00    +0.000 A 
ATOM     22  C   UNL     1       1.622   9.057  18.882  0.00  0.00    +0.000 A 
ATOM     23  C   UNL     1       1.520  10.205  18.105  0.00  0.00    +0.000 A 
ATOM     24  C   UNL     1       0.965  11.333  18.678  0.00  0.00    +0.000 A 
ATOM     25  N   UNL     1       0.526  11.395  19.952  0.00  0.00    +0.000 NA
ATOM     26  C   UNL     1       0.646  10.266  20.689  0.00  0.00    +0.000 A 
ENDBRANCH  20  21
ENDBRANCH  19  20
ENDBRANCH  18  19
ENDBRANCH   9  18
TORSDOF 5
ENDMDL
