MODEL 1
REMARK VINA RESULT:      -7.9      0.000      0.000
REMARK  Name = 
REMARK  5 active torsions:
REMARK  status: ('A' for Active; 'I' for Inactive)
REMARK    1  A    between atoms: C_1  and  C_2
REMARK    2  A    between atoms: C_2  and  O_3
REMARK    3  A    between atoms: O_3  and  C_4
REMARK    4  A    between atoms: C_7  and  C_8
REMARK    5  A    between atoms: C_16  and  C_17
REMARK                            x       y       z     vdW  Elec       q    Type
REMARK                         _______ _______ _______ _____ _____    ______ ____
ROOT
ATOM      1  C   UNL     1       3.832   5.262  18.998  0.00  0.00    +0.000 C 
ATOM      2  O   UNL     1       3.983   4.404  19.866  0.00  0.00    +0.000 OA
ATOM      3  N   UNL     1       2.781   6.170  19.029  0.00  0.00    +0.000 N 
ATOM      4  C   UNL     1       1.980   6.274  20.247  0.00  0.00    +0.000 C 
ATOM      5  C   UNL     1       1.875   7.741  20.696  0.00  0.00    +0.000 C 
ATOM      6  N   UNL     1       1.387   8.589  19.597  0.00  0.00    +0.000 N 
ATOM      7  C   UNL     1       0.454   9.600  19.772  0.00  0.00    +0.000 A 
ATOM      8  C   UNL     1       0.380  10.310  21.102  0.00  0.00    +0.000 A 
ATOM      9  C   UNL     1      -0.543  11.275  21.254  0.00  0.00    +0.000 A 
ATOM     10  C   UNL     1      -0.671  12.057  22.521  0.00  0.00    +0.000 C 
ATOM     11  N   UNL     1      -1.377  11.541  20.173  0.00  0.00    +0.000 N 
ATOM     12  C   UNL     1      -2.414  12.417  20.016  0.00  0.00    +0.000 A 
ATOM     13  N   UNL     1      -2.916  12.311  18.808  0.00  0.00    +0.000 NA
ATOM     14  N   UNL     1      -2.190  11.347  18.144  0.00  0.00    +0.000 NA
ATOM     15  C   UNL     1      -1.263  10.882  18.959  0.00  0.00    +0.000 A 
ATOM     16  N   UNL     1      -0.316   9.920  18.760  0.00  0.00    +0.000 NA
ATOM     17  C   UNL     1       2.126   8.454  18.327  0.00  0.00    +0.000 C 
ATOM     18  C   UNL     1       2.251   6.976  17.916  0.00  0.00    +0.000 C 
ENDROOT
BRANCH   1  22
ATOM     19  C   UNL     1       6.846   5.375  15.951  0.00  0.00    +0.000 A 
ATOM     20  C   UNL     1       5.739   4.532  15.827  0.00  0.00    +0.000 A 
ATOM     21  C   UNL     1       4.746   4.522  16.810  0.00  0.00    +0.000 A 
ATOM     22  C   UNL     1       4.866   5.345  17.935  0.00  0.00    +0.000 A 
ATOM     23  C   UNL     1       6.022   6.118  18.095  0.00  0.00    +0.000 A 
ATOM     24  C   UNL     1       6.995   6.154  17.096  0.00  0.00    +0.000 A 
BRANCH  19  25
ATOM     25  O   UNL     1       7.734   5.332  14.912  0.00  0.00    +0.000 OA
BRANCH  25  27
ATOM     26  C   UNL     1       7.959   5.485  12.552  0.00  0.00    +0.000 C 
ATOM     27  C   UNL     1       7.233   4.792  13.689  0.00  0.00    +0.000 C 
ENDBRANCH  25  27
ENDBRANCH  19  25
ENDBRANCH   1  22
TORSDOF 3
ENDMDL
MODEL 2
REMARK VINA RESULT:      -7.7      3.630      9.413
REMARK  Name = 
REMARK  5 active torsions:
REMARK  status: ('A' for Active; 'I' for Inactive)
REMARK    1  A    between atoms: C_1  and  C_2
REMARK    2  A    between atoms: C_2  and  O_3
REMARK    3  A    between atoms: O_3  and  C_4
REMARK    4  A    between atoms: C_7  and  C_8
REMARK    5  A    between atoms: C_16  and  C_17
REMARK                            x       y       z     vdW  Elec       q    Type
REMARK                         _______ _______ _______ _____ _____    ______ ____
ROOT
ATOM      1  C   UNL     1      -0.488  10.296  20.120  0.00  0.00    +0.000 C 
ATOM      2  O   UNL     1      -0.702  10.464  21.320  0.00  0.00    +0.000 OA
ATOM      3  N   UNL     1       0.673   9.691  19.654  0.00  0.00    +0.000 N 
ATOM      4  C   UNL     1       1.543   9.012  20.612  0.00  0.00    +0.000 C 
ATOM      5  C   UNL     1       1.860   7.586  20.131  0.00  0.00    +0.000 C 
ATOM      6  N   UNL     1       2.397   7.606  18.761  0.00  0.00    +0.000 N 
ATOM      7  C   UNL     1       3.461   6.818  18.348  0.00  0.00    +0.000 A 
ATOM      8  C   UNL     1       3.696   5.487  19.022  0.00  0.00    +0.000 A 
ATOM      9  C   UNL     1       4.742   4.749  18.617  0.00  0.00    +0.000 A 
ATOM     10  C   UNL     1       5.037   3.404  19.200  0.00  0.00    +0.000 C 
ATOM     11  N   UNL     1       5.546   5.273  17.610  0.00  0.00    +0.000 N 
ATOM     12  C   UNL     1       6.679   4.801  17.009  0.00  0.00    +0.000 A 
ATOM     13  N   UNL     1       7.099   5.652  16.104  0.00  0.00    +0.000 NA
ATOM     14  N   UNL     1       6.221   6.713  16.098  0.00  0.00    +0.000 NA
ATOM     15  C   UNL     1       5.285   6.490  17.000  0.00  0.00    +0.000 A 
ATOM     16  N   UNL     1       4.212   7.251  17.364  0.00  0.00    +0.000 NA
ATOM     17  C   UNL     1       1.582   8.349  17.780  0.00  0.00    +0.000 C 
ATOM     18  C   UNL     1       1.245   9.757  18.299  0.00  0.00    +0.000 C 
ENDROOT
BRANCH   1  22
ATOM     19  C   UNL     1      -3.660  11.456  17.480  0.00  0.00    +0.000 A 
ATOM     20  C   UNL     1      -3.384  12.197  18.631  0.00  0.00    +0.000 A 
ATOM     21  C   UNL     1      -2.330  11.831  19.472  0.00  0.00    +0.000 A 
ATOM     22  C   UNL     1      -1.556  10.704  19.173  0.00  0.00    +0.000 A 
ATOM     23  C   UNL     1      -1.896   9.916  18.069  0.00  0.00    +0.000 A 
ATOM     24  C   UNL     1      -2.926  10.302  17.211  0.00  0.00    +0.000 A 
BRANCH  19  25
ATOM     25  O   UNL     1      -4.687  11.927  16.711  0.00  0.00    +0.000 OA
BRANCH  25  27
ATOM     26  C   UNL     1      -6.520  13.421  16.944  0.00  0.00    +0.000 C 
ATOM     27  C   UNL     1      -5.938  12.090  17.379  0.00  0.00    +0.000 C 
ENDBRANCH  25  27
ENDBRANCH  19  25
ENDBRANCH   1  22
TORSDOF 3
ENDMDL
MODEL 3
REMARK VINA RESULT:      -7.4      3.601     10.042
REMARK  Name = 
REMARK  5 active torsions:
REMARK  status: ('A' for Active; 'I' for Inactive)
REMARK    1  A    between atoms: C_1  and  C_2
REMARK    2  A    between atoms: C_2  and  O_3
REMARK    3  A    between atoms: O_3  and  C_4
REMARK    4  A    between atoms: C_7  and  C_8
REMARK    5  A    between atoms: C_16  and  C_17
REMARK                            x       y       z     vdW  Elec       q    Type
REMARK                         _______ _______ _______ _____ _____    ______ ____
ROOT
ATOM      1  C   UNL     1      -1.259  11.747  19.584  0.00  0.00    +0.000 C 
ATOM      2  O   UNL     1      -1.844  12.255  18.628  0.00  0.00    +0.000 OA
ATOM      3  N   UNL     1      -0.593  10.531  19.482  0.00  0.00    +0.000 N 
ATOM      4  C   UNL     1      -0.368   9.964  18.154  0.00  0.00    +0.000 C 
ATOM      5  C   UNL     1       1.114   9.592  17.975  0.00  0.00    +0.000 C 
ATOM      6  N   UNL     1       1.569   8.722  19.071  0.00  0.00    +0.000 N 
ATOM      7  C   UNL     1       2.390   7.621  18.879  0.00  0.00    +0.000 A 
ATOM      8  C   UNL     1       3.361   7.620  17.724  0.00  0.00    +0.000 A 
ATOM      9  C   UNL     1       4.134   6.536  17.547  0.00  0.00    +0.000 A 
ATOM     10  C   UNL     1       5.149   6.455  16.453  0.00  0.00    +0.000 C 
ATOM     11  N   UNL     1       3.972   5.480  18.438  0.00  0.00    +0.000 N 
ATOM     12  C   UNL     1       4.566   4.251  18.514  0.00  0.00    +0.000 A 
ATOM     13  N   UNL     1       4.085   3.579  19.533  0.00  0.00    +0.000 NA
ATOM     14  N   UNL     1       3.154   4.383  20.154  0.00  0.00    +0.000 NA
ATOM     15  C   UNL     1       3.083   5.527  19.502  0.00  0.00    +0.000 A 
ATOM     16  N   UNL     1       2.307   6.625  19.729  0.00  0.00    +0.000 NA
ATOM     17  C   UNL     1       1.289   9.228  20.429  0.00  0.00    +0.000 C 
ATOM     18  C   UNL     1      -0.189   9.629  20.574  0.00  0.00    +0.000 C 
ENDROOT
BRANCH   1  22
ATOM     19  C   UNL     1      -1.047  13.920  23.273  0.00  0.00    +0.000 A 
ATOM     20  C   UNL     1      -0.072  14.091  22.288  0.00  0.00    +0.000 A 
ATOM     21  C   UNL     1      -0.163  13.402  21.076  0.00  0.00    +0.000 A 
ATOM     22  C   UNL     1      -1.225  12.519  20.851  0.00  0.00    +0.000 A 
ATOM     23  C   UNL     1      -2.146  12.285  21.878  0.00  0.00    +0.000 A 
ATOM     24  C   UNL     1      -2.074  13.000  23.074  0.00  0.00    +0.000 A 
BRANCH  19  25
ATOM     25  O   UNL     1      -0.880  14.673  24.401  0.00  0.00    +0.000 OA
BRANCH  25  27
ATOM     26  C   UNL     1      -2.738  15.841  25.313  0.00  0.00    +0.000 C 
ATOM     27  C   UNL     1      -1.531  15.944  24.401  0.00  0.00    +0.000 C 
ENDBRANCH  25  27
ENDBRANCH  19  25
ENDBRANCH   1  22
TORSDOF 3
ENDMDL
MODEL 4
REMARK VINA RESULT:      -7.3      3.668     10.068
REMARK  Name = 
REMARK  5 active torsions:
REMARK  status: ('A' for Active; 'I' for Inactive)
REMARK    1  A    between atoms: C_1  and  C_2
REMARK    2  A    between atoms: C_2  and  O_3
REMARK    3  A    between atoms: O_3  and  C_4
REMARK    4  A    between atoms: C_7  and  C_8
REMARK    5  A    between atoms: C_16  and  C_17
REMARK                            x       y       z     vdW  Elec       q    Type
REMARK                         _______ _______ _______ _____ _____    ______ ____
ROOT
ATOM      1  C   UNL     1      -1.377  11.727  19.723  0.00  0.00    +0.000 C 
ATOM      2  O   UNL     1      -1.965  12.257  18.782  0.00  0.00    +0.000 OA
ATOM      3  N   UNL     1      -0.696  10.523  19.587  0.00  0.00    +0.000 N 
ATOM      4  C   UNL     1      -0.460  10.000  18.243  0.00  0.00    +0.000 C 
ATOM      5  C   UNL     1       1.026   9.651  18.058  0.00  0.00    +0.000 C 
ATOM      6  N   UNL     1       1.489   8.754  19.127  0.00  0.00    +0.000 N 
ATOM      7  C   UNL     1       2.324   7.668  18.905  0.00  0.00    +0.000 A 
ATOM      8  C   UNL     1       3.298   7.715  17.752  0.00  0.00    +0.000 A 
ATOM      9  C   UNL     1       4.084   6.646  17.546  0.00  0.00    +0.000 A 
ATOM     10  C   UNL     1       5.104   6.611  16.452  0.00  0.00    +0.000 C 
ATOM     11  N   UNL     1       3.933   5.562  18.403  0.00  0.00    +0.000 N 
ATOM     12  C   UNL     1       4.541   4.338  18.443  0.00  0.00    +0.000 A 
ATOM     13  N   UNL     1       4.065   3.630  19.439  0.00  0.00    +0.000 NA
ATOM     14  N   UNL     1       3.123   4.403  20.081  0.00  0.00    +0.000 NA
ATOM     15  C   UNL     1       3.040   5.565  19.464  0.00  0.00    +0.000 A 
ATOM     16  N   UNL     1       2.250   6.646  19.723  0.00  0.00    +0.000 NA
ATOM     17  C   UNL     1       1.199   9.214  20.499  0.00  0.00    +0.000 C 
ATOM     18  C   UNL     1      -0.284   9.593  20.651  0.00  0.00    +0.000 C 
ENDROOT
BRANCH   1  22
ATOM     19  C   UNL     1      -1.423  13.910  23.412  0.00  0.00    +0.000 A 
ATOM     20  C   UNL     1      -2.487  13.075  23.066  0.00  0.00    +0.000 A 
ATOM     21  C   UNL     1      -2.452  12.343  21.876  0.00  0.00    +0.000 A 
ATOM     22  C   UNL     1      -1.356  12.460  21.014  0.00  0.00    +0.000 A 
ATOM     23  C   UNL     1      -0.337  13.368  21.325  0.00  0.00    +0.000 A 
ATOM     24  C   UNL     1      -0.356  14.071  22.531  0.00  0.00    +0.000 A 
BRANCH  19  25
ATOM     25  O   UNL     1      -1.545  14.546  24.616  0.00  0.00    +0.000 OA
BRANCH  25  27
ATOM     26  C   UNL     1      -0.865  16.236  26.143  0.00  0.00    +0.000 C 
ATOM     27  C   UNL     1      -1.003  15.866  24.679  0.00  0.00    +0.000 C 
ENDBRANCH  25  27
ENDBRANCH  19  25
ENDBRANCH   1  22
TORSDOF 3
ENDMDL
MODEL 5
REMARK VINA RESULT:      -7.1      1.305      1.632
REMARK  Name = 
REMARK  5 active torsions:
REMARK  status: ('A' for Active; 'I' for Inactive)
REMARK    1  A    between atoms: C_1  and  C_2
REMARK    2  A    between atoms: C_2  and  O_3
REMARK    3  A    between atoms: O_3  and  C_4
REMARK    4  A    between atoms: C_7  and  C_8
REMARK    5  A    between atoms: C_16  and  C_17
REMARK                            x       y       z     vdW  Elec       q    Type
REMARK                         _______ _______ _______ _____ _____    ______ ____
ROOT
ATOM      1  C   UNL     1       3.687   4.151  17.889  0.00  0.00    +0.000 C 
ATOM      2  O   UNL     1       3.549   2.996  18.291  0.00  0.00    +0.000 OA
ATOM      3  N   UNL     1       2.834   5.177  18.276  0.00  0.00    +0.000 N 
ATOM      4  C   UNL     1       1.904   4.937  19.379  0.00  0.00    +0.000 C 
ATOM      5  C   UNL     1       2.018   6.055  20.428  0.00  0.00    +0.000 C 
ATOM      6  N   UNL     1       1.858   7.376  19.802  0.00  0.00    +0.000 N 
ATOM      7  C   UNL     1       1.119   8.404  20.369  0.00  0.00    +0.000 A 
ATOM      8  C   UNL     1       0.995   8.478  21.872  0.00  0.00    +0.000 A 
ATOM      9  C   UNL     1       0.260   9.472  22.398  0.00  0.00    +0.000 A 
ATOM     10  C   UNL     1       0.106   9.648  23.874  0.00  0.00    +0.000 C 
ATOM     11  N   UNL     1      -0.349  10.357  21.515  0.00  0.00    +0.000 N 
ATOM     12  C   UNL     1      -1.169  11.431  21.720  0.00  0.00    +0.000 A 
ATOM     13  N   UNL     1      -1.507  11.967  20.571  0.00  0.00    +0.000 NA
ATOM     14  N   UNL     1      -0.891  11.237  19.578  0.00  0.00    +0.000 NA
ATOM     15  C   UNL     1      -0.193  10.269  20.139  0.00  0.00    +0.000 A 
ATOM     16  N   UNL     1       0.572   9.292  19.573  0.00  0.00    +0.000 NA
ATOM     17  C   UNL     1       2.728   7.626  18.637  0.00  0.00    +0.000 C 
ATOM     18  C   UNL     1       2.627   6.478  17.618  0.00  0.00    +0.000 C 
ENDROOT
BRANCH   1  22
ATOM     19  C   UNL     1       7.052   4.849  15.326  0.00  0.00    +0.000 A 
ATOM     20  C   UNL     1       5.789   4.592  14.789  0.00  0.00    +0.000 A 
ATOM     21  C   UNL     1       4.691   4.395  15.630  0.00  0.00    +0.000 A 
ATOM     22  C   UNL     1       4.857   4.435  17.019  0.00  0.00    +0.000 A 
ATOM     23  C   UNL     1       6.141   4.602  17.548  0.00  0.00    +0.000 A 
ATOM     24  C   UNL     1       7.230   4.835  16.708  0.00  0.00    +0.000 A 
BRANCH  19  25
ATOM     25  O   UNL     1       8.045   5.066  14.412  0.00  0.00    +0.000 OA
BRANCH  25  27
ATOM     26  C   UNL     1       8.276   6.056  12.264  0.00  0.00    +0.000 C 
ATOM     27  C   UNL     1       7.674   4.902  13.043  0.00  0.00    +0.000 C 
ENDBRANCH  25  27
ENDBRANCH  19  25
ENDBRANCH   1  22
TORSDOF 3
ENDMDL
MODEL 6
REMARK VINA RESULT:      -7.1      3.625      9.886
REMARK  Name = 
REMARK  5 active torsions:
REMARK  status: ('A' for Active; 'I' for Inactive)
REMARK    1  A    between atoms: C_1  and  C_2
REMARK    2  A    between atoms: C_2  and  O_3
REMARK    3  A    between atoms: O_3  and  C_4
REMARK    4  A    between atoms: C_7  and  C_8
REMARK    5  A    between atoms: C_16  and  C_17
REMARK                            x       y       z     vdW  Elec       q    Type
REMARK                         _______ _______ _______ _____ _____    ______ ____
ROOT
ATOM      1  C   UNL     1      -0.435  11.755  19.345  0.00  0.00    +0.000 C 
ATOM      2  O   UNL     1      -0.781  12.265  18.280  0.00  0.00    +0.000 OA
ATOM      3  N   UNL     1      -0.028  10.429  19.432  0.00  0.00    +0.000 N 
ATOM      4  C   UNL     1       0.237   9.694  18.196  0.00  0.00    +0.000 C 
ATOM      5  C   UNL     1       1.619   9.024  18.257  0.00  0.00    +0.000 C 
ATOM      6  N   UNL     1       1.747   8.201  19.470  0.00  0.00    +0.000 N 
ATOM      7  C   UNL     1       2.339   6.947  19.481  0.00  0.00    +0.000 A 
ATOM      8  C   UNL     1       3.424   6.637  18.477  0.00  0.00    +0.000 A 
ATOM      9  C   UNL     1       3.971   5.411  18.495  0.00  0.00    +0.000 A 
ATOM     10  C   UNL     1       5.075   5.021  17.564  0.00  0.00    +0.000 C 
ATOM     11  N   UNL     1       3.487   4.505  19.432  0.00  0.00    +0.000 N 
ATOM     12  C   UNL     1       3.799   3.199  19.685  0.00  0.00    +0.000 A 
ATOM     13  N   UNL     1       3.068   2.742  20.674  0.00  0.00    +0.000 NA
ATOM     14  N   UNL     1       2.254   3.772  21.094  0.00  0.00    +0.000 NA
ATOM     15  C   UNL     1       2.503   4.834  20.353  0.00  0.00    +0.000 A 
ATOM     16  N   UNL     1       1.948   6.080  20.383  0.00  0.00    +0.000 NA
ATOM     17  C   UNL     1       1.413   8.889  20.732  0.00  0.00    +0.000 C 
ATOM     18  C   UNL     1       0.044   9.583  20.635  0.00  0.00    +0.000 C 
ENDROOT
BRANCH   1  22
ATOM     19  C   UNL     1      -0.428  14.358  22.751  0.00  0.00    +0.000 A 
ATOM     20  C   UNL     1      -1.541  13.566  22.462  0.00  0.00    +0.000 A 
ATOM     21  C   UNL     1      -1.526  12.698  21.367  0.00  0.00    +0.000 A 
ATOM     22  C   UNL     1      -0.398  12.633  20.542  0.00  0.00    +0.000 A 
ATOM     23  C   UNL     1       0.677  13.495  20.785  0.00  0.00    +0.000 A 
ATOM     24  C   UNL     1       0.674  14.336  21.899  0.00  0.00    +0.000 A 
BRANCH  19  25
ATOM     25  O   UNL     1      -0.538  15.139  23.867  0.00  0.00    +0.000 OA
BRANCH  25  27
ATOM     26  C   UNL     1      -1.499  15.571  25.997  0.00  0.00    +0.000 C 
ATOM     27  C   UNL     1      -1.739  14.975  24.623  0.00  0.00    +0.000 C 
ENDBRANCH  25  27
ENDBRANCH  19  25
ENDBRANCH   1  22
TORSDOF 3
ENDMDL
MODEL 7
REMARK VINA RESULT:      -6.8      3.664      9.815
REMARK  Name = 
REMARK  5 active torsions:
REMARK  status: ('A' for Active; 'I' for Inactive)
REMARK    1  A    between atoms: C_1  and  C_2
REMARK    2  A    between atoms: C_2  and  O_3
REMARK    3  A    between atoms: O_3  and  C_4
REMARK    4  A    between atoms: C_7  and  C_8
REMARK    5  A    between atoms: C_16  and  C_17
REMARK                            x       y       z     vdW  Elec       q    Type
REMARK                         _______ _______ _______ _____ _____    ______ ____
ROOT
ATOM      1  C   UNL     1      -0.287  11.666  19.238  0.00  0.00    +0.000 C 
ATOM      2  O   UNL     1      -0.454  12.178  18.131  0.00  0.00    +0.000 OA
ATOM      3  N   UNL     1       0.055  10.328  19.389  0.00  0.00    +0.000 N 
ATOM      4  C   UNL     1       0.472   9.572  18.210  0.00  0.00    +0.000 C 
ATOM      5  C   UNL     1       1.806   8.855  18.477  0.00  0.00    +0.000 C 
ATOM      6  N   UNL     1       1.724   8.040  19.698  0.00  0.00    +0.000 N 
ATOM      7  C   UNL     1       2.263   6.766  19.802  0.00  0.00    +0.000 A 
ATOM      8  C   UNL     1       3.472   6.409  18.970  0.00  0.00    +0.000 A 
ATOM      9  C   UNL     1       3.966   5.164  19.074  0.00  0.00    +0.000 A 
ATOM     10  C   UNL     1       5.179   4.727  18.317  0.00  0.00    +0.000 C 
ATOM     11  N   UNL     1       3.317   4.285  19.933  0.00  0.00    +0.000 N 
ATOM     12  C   UNL     1       3.541   2.971  20.235  0.00  0.00    +0.000 A 
ATOM     13  N   UNL     1       2.657   2.550  21.108  0.00  0.00    +0.000 NA
ATOM     14  N   UNL     1       1.828   3.611  21.399  0.00  0.00    +0.000 NA
ATOM     15  C   UNL     1       2.221   4.657  20.698  0.00  0.00    +0.000 A 
ATOM     16  N   UNL     1       1.713   5.922  20.641  0.00  0.00    +0.000 NA
ATOM     17  C   UNL     1       1.234   8.751  20.894  0.00  0.00    +0.000 C 
ATOM     18  C   UNL     1      -0.081   9.492  20.594  0.00  0.00    +0.000 C 
ENDROOT
BRANCH   1  22
ATOM     19  C   UNL     1      -0.495  14.168  22.712  0.00  0.00    +0.000 A 
ATOM     20  C   UNL     1       0.633  14.183  21.890  0.00  0.00    +0.000 A 
ATOM     21  C   UNL     1       0.683  13.387  20.743  0.00  0.00    +0.000 A 
ATOM     22  C   UNL     1      -0.395  12.554  20.423  0.00  0.00    +0.000 A 
ATOM     23  C   UNL     1      -1.482  12.477  21.300  0.00  0.00    +0.000 A 
ATOM     24  C   UNL     1      -1.545  13.298  22.426  0.00  0.00    +0.000 A 
BRANCH  19  25
ATOM     25  O   UNL     1      -0.451  15.015  23.784  0.00  0.00    +0.000 OA
BRANCH  25  27
ATOM     26  C   UNL     1      -0.809  17.358  23.954  0.00  0.00    +0.000 C 
ATOM     27  C   UNL     1      -1.481  16.003  23.837  0.00  0.00    +0.000 C 
ENDBRANCH  25  27
ENDBRANCH  19  25
ENDBRANCH   1  22
TORSDOF 3
ENDMDL
MODEL 8
REMARK VINA RESULT:      -6.6      3.653      9.654
REMARK  Name = 
REMARK  5 active torsions:
REMARK  status: ('A' for Active; 'I' for Inactive)
REMARK    1  A    between atoms: C_1  and  C_2
REMARK    2  A    between atoms: C_2  and  O_3
REMARK    3  A    between atoms: O_3  and  C_4
REMARK    4  A    between atoms: C_7  and  C_8
REMARK    5  A    between atoms: C_16  and  C_17
REMARK                            x       y       z     vdW  Elec       q    Type
REMARK                         _______ _______ _______ _____ _____    ______ ____
ROOT
ATOM      1  C   UNL     1      -0.176  10.592  22.189  0.00  0.00    +0.000 C 
ATOM      2  O   UNL     1      -0.208  10.390  23.402  0.00  0.00    +0.000 OA
ATOM      3  N   UNL     1       0.742   9.962  21.358  0.00  0.00    +0.000 N 
ATOM      4  C   UNL     1       1.522   8.848  21.892  0.00  0.00    +0.000 C 
ATOM      5  C   UNL     1       1.427   7.631  20.957  0.00  0.00    +0.000 C 
ATOM      6  N   UNL     1       1.795   7.999  19.582  0.00  0.00    +0.000 N 
ATOM      7  C   UNL     1       2.582   7.203  18.763  0.00  0.00    +0.000 A 
ATOM      8  C   UNL     1       2.561   5.705  18.955  0.00  0.00    +0.000 A 
ATOM      9  C   UNL     1       3.344   4.955  18.162  0.00  0.00    +0.000 A 
ATOM     10  C   UNL     1       3.366   3.463  18.253  0.00  0.00    +0.000 C 
ATOM     11  N   UNL     1       4.133   5.616  17.228  0.00  0.00    +0.000 N 
ATOM     12  C   UNL     1       5.042   5.160  16.315  0.00  0.00    +0.000 A 
ATOM     13  N   UNL     1       5.553   6.165  15.644  0.00  0.00    +0.000 NA
ATOM     14  N   UNL     1       4.964   7.317  16.117  0.00  0.00    +0.000 NA
ATOM     15  C   UNL     1       4.109   6.994  17.067  0.00  0.00    +0.000 A 
ATOM     16  N   UNL     1       3.302   7.783  17.833  0.00  0.00    +0.000 NA
ATOM     17  C   UNL     1       1.081   9.169  19.035  0.00  0.00    +0.000 C 
ATOM     18  C   UNL     1       1.157  10.363  20.003  0.00  0.00    +0.000 C 
ENDROOT
BRANCH   1  22
ATOM     19  C   UNL     1      -3.260  13.117  20.609  0.00  0.00    +0.000 A 
ATOM     20  C   UNL     1      -3.042  13.035  21.986  0.00  0.00    +0.000 A 
ATOM     21  C   UNL     1      -2.016  12.233  22.492  0.00  0.00    +0.000 A 
ATOM     22  C   UNL     1      -1.213  11.491  21.620  0.00  0.00    +0.000 A 
ATOM     23  C   UNL     1      -1.497  11.507  20.250  0.00  0.00    +0.000 A 
ATOM     24  C   UNL     1      -2.498  12.336  19.743  0.00  0.00    +0.000 A 
BRANCH  19  25
ATOM     25  O   UNL     1      -4.263  13.962  20.224  0.00  0.00    +0.000 OA
BRANCH  25  27
ATOM     26  C   UNL     1      -6.209  12.597  20.218  0.00  0.00    +0.000 C 
ATOM     27  C   UNL     1      -5.518  13.775  20.879  0.00  0.00    +0.000 C 
ENDBRANCH  25  27
ENDBRANCH  19  25
ENDBRANCH   1  22
TORSDOF 3
ENDMDL
MODEL 9
REMARK VINA RESULT:      -6.6      3.224      4.901
REMARK  Name = 
REMARK  5 active torsions:
REMARK  status: ('A' for Active; 'I' for Inactive)
REMARK    1  A    between atoms: C_1  and  C_2
REMARK    2  A    between atoms: C_2  and  O_3
REMARK    3  A    between atoms: O_3  and  C_4
REMARK    4  A    between atoms: C_7  and  C_8
REMARK    5  A    between atoms: C_16  and  C_17
REMARK                            x       y       z     vdW  Elec       q    Type
REMARK                         _______ _______ _______ _____ _____    ______ ____
ROOT
ATOM      1  C   UNL     1       2.392   7.891  18.042  0.00  0.00    +0.000 C 
ATOM      2  O   UNL     1       2.812   8.147  16.914  0.00  0.00    +0.000 OA
ATOM      3  N   UNL     1       1.785   8.852  18.841  0.00  0.00    +0.000 N 
ATOM      4  C   UNL     1       1.409  10.129  18.239  0.00  0.00    +0.000 C 
ATOM      5  C   UNL     1      -0.060  10.457  18.550  0.00  0.00    +0.000 C 
ATOM      6  N   UNL     1      -0.313  10.393  19.998  0.00  0.00    +0.000 N 
ATOM      7  C   UNL     1      -1.092  11.318  20.678  0.00  0.00    +0.000 A 
ATOM      8  C   UNL     1      -2.212  12.016  19.944  0.00  0.00    +0.000 A 
ATOM      9  C   UNL     1      -2.942  12.921  20.618  0.00  0.00    +0.000 A 
ATOM     10  C   UNL     1      -4.093  13.639  19.988  0.00  0.00    +0.000 C 
ATOM     11  N   UNL     1      -2.603  13.160  21.944  0.00  0.00    +0.000 N 
ATOM     12  C   UNL     1      -3.113  14.021  22.876  0.00  0.00    +0.000 A 
ATOM     13  N   UNL     1      -2.462  13.900  24.008  0.00  0.00    +0.000 NA
ATOM     14  N   UNL     1      -1.499  12.931  23.828  0.00  0.00    +0.000 NA
ATOM     15  C   UNL     1      -1.580  12.482  22.590  0.00  0.00    +0.000 A 
ATOM     16  N   UNL     1      -0.840  11.535  21.946  0.00  0.00    +0.000 NA
ATOM     17  C   UNL     1       0.123   9.146  20.655  0.00  0.00    +0.000 C 
ATOM     18  C   UNL     1       1.583   8.818  20.299  0.00  0.00    +0.000 C 
ENDROOT
BRANCH   1  22
ATOM     19  C   UNL     1       2.795   3.817  19.315  0.00  0.00    +0.000 A 
ATOM     20  C   UNL     1       3.695   4.792  19.750  0.00  0.00    +0.000 A 
ATOM     21  C   UNL     1       3.540   6.123  19.356  0.00  0.00    +0.000 A 
ATOM     22  C   UNL     1       2.491   6.483  18.503  0.00  0.00    +0.000 A 
ATOM     23  C   UNL     1       1.649   5.485  17.999  0.00  0.00    +0.000 A 
ATOM     24  C   UNL     1       1.783   4.162  18.422  0.00  0.00    +0.000 A 
BRANCH  19  25
ATOM     25  O   UNL     1       3.018   2.557  19.795  0.00  0.00    +0.000 OA
BRANCH  25  27
ATOM     26  C   UNL     1       1.555   2.582  21.668  0.00  0.00    +0.000 C 
ATOM     27  C   UNL     1       2.994   2.421  21.216  0.00  0.00    +0.000 C 
ENDBRANCH  25  27
ENDBRANCH  19  25
ENDBRANCH   1  22
TORSDOF 3
ENDMDL
