MODEL 1
REMARK VINA RESULT:      -7.0      0.000      0.000
REMARK  Name = 
REMARK  10 active torsions:
REMARK  status: ('A' for Active; 'I' for Inactive)
REMARK    1  A    between atoms: C_1  and  C_2
REMARK    2  A    between atoms: C_2  and  O_3
REMARK    3  A    between atoms: O_3  and  C_4
REMARK    4  A    between atoms: C_7  and  S_8
REMARK    5  A    between atoms: S_8  and  N_11
REMARK    6  A    between atoms: N_11  and  C_12
REMARK    7  A    between atoms: C_17  and  C_18
REMARK    8  A    between atoms: C_18  and  O_19
REMARK    9  A    between atoms: O_19  and  C_20
REMARK   10  A    between atoms: C_22  and  N_23
REMARK                            x       y       z     vdW  Elec       q    Type
REMARK                         _______ _______ _______ _____ _____    ______ ____
ROOT
ATOM      1  C   UNL     1       0.716   9.889  21.544  0.00  0.00    +0.000 A 
ATOM      2  C   UNL     1       1.257   8.676  22.019  0.00  0.00    +0.000 A 
ATOM      3  C   UNL     1       1.840   7.764  21.152  0.00  0.00    +0.000 A 
ATOM      4  C   UNL     1       1.815   8.012  19.790  0.00  0.00    +0.000 A 
ATOM      5  C   UNL     1       1.183   9.158  19.296  0.00  0.00    +0.000 A 
ATOM      6  C   UNL     1       0.603  10.133  20.153  0.00  0.00    +0.000 A 
ENDROOT
BRANCH   6   7
ATOM      7  N   UNL     1       0.074  11.281  19.567  0.00  0.00    +0.000 N 
ATOM      8  C   UNL     1       0.723  12.595  19.648  0.00  0.00    +0.000 C 
ATOM      9  C   UNL     1       0.582  13.295  18.276  0.00  0.00    +0.000 C 
ATOM     10  N   UNL     1      -0.814  13.470  17.835  0.00  0.00    +0.000 NA
ATOM     11  C   UNL     1      -1.529  12.178  17.888  0.00  0.00    +0.000 C 
ATOM     12  C   UNL     1      -1.355  11.377  19.207  0.00  0.00    +0.000 C 
ATOM     13  H   UNL     1      -0.807  13.797  16.869  0.00  0.00    +0.000 HD
ENDBRANCH   6   7
BRANCH   4  14
ATOM     14  S   UNL     1       2.734   6.963  18.695  0.00  0.00    +0.000 S 
ATOM     15  O   UNL     1       1.787   6.234  17.879  0.00  0.00    +0.000 OA
ATOM     16  O   UNL     1       3.782   7.752  18.077  0.00  0.00    +0.000 OA
BRANCH  14  17
ATOM     17  N   UNL     1       3.422   5.811  19.723  0.00  0.00    +0.000 N 
ATOM     18  H   UNL     1       3.620   6.218  20.637  0.00  0.00    +0.000 HD
BRANCH  17  19
ATOM     19  C   UNL     1       2.894   4.486  19.699  0.00  0.00    +0.000 A 
ATOM     20  C   UNL     1       1.784   4.223  20.513  0.00  0.00    +0.000 A 
ATOM     21  C   UNL     1       1.259   2.933  20.595  0.00  0.00    +0.000 A 
ATOM     22  C   UNL     1       1.835   1.904  19.859  0.00  0.00    +0.000 A 
ATOM     23  C   UNL     1       2.932   2.165  19.040  0.00  0.00    +0.000 A 
ATOM     24  C   UNL     1       3.483   3.459  18.947  0.00  0.00    +0.000 A 
BRANCH  24  25
ATOM     25  C   UNL     1       4.704   3.652  18.080  0.00  0.00    +0.000 C 
BRANCH  25  26
ATOM     26  O   UNL     1       5.784   4.123  18.891  0.00  0.00    +0.000 OA
ATOM     27  C   UNL     1       6.750   4.834  18.128  0.00  0.00    +0.000 C 
ENDBRANCH  25  26
ENDBRANCH  24  25
ENDBRANCH  17  19
ENDBRANCH  14  17
ENDBRANCH   4  14
BRANCH   1  28
ATOM     28  O   UNL     1       0.275  10.834  22.448  0.00  0.00    +0.000 OA
BRANCH  28  30
ATOM     29  C   UNL     1      -1.865  11.787  23.060  0.00  0.00    +0.000 C 
ATOM     30  C   UNL     1      -0.999  10.541  23.044  0.00  0.00    +0.000 C 
ENDBRANCH  28  30
ENDBRANCH   1  28
TORSDOF 8
ENDMDL
MODEL 2
REMARK VINA RESULT:      -7.0      1.117      1.489
REMARK  Name = 
REMARK  10 active torsions:
REMARK  status: ('A' for Active; 'I' for Inactive)
REMARK    1  A    between atoms: C_1  and  C_2
REMARK    2  A    between atoms: C_2  and  O_3
REMARK    3  A    between atoms: O_3  and  C_4
REMARK    4  A    between atoms: C_7  and  S_8
REMARK    5  A    between atoms: S_8  and  N_11
REMARK    6  A    between atoms: N_11  and  C_12
REMARK    7  A    between atoms: C_17  and  C_18
REMARK    8  A    between atoms: C_18  and  O_19
REMARK    9  A    between atoms: O_19  and  C_20
REMARK   10  A    between atoms: C_22  and  N_23
REMARK                            x       y       z     vdW  Elec       q    Type
REMARK                         _______ _______ _______ _____ _____    ______ ____
ROOT
ATOM      1  C   UNL     1       0.762   9.882  21.270  0.00  0.00    +0.000 A 
ATOM      2  C   UNL     1       1.188   8.648  21.805  0.00  0.00    +0.000 A 
ATOM      3  C   UNL     1       1.810   7.699  21.008  0.00  0.00    +0.000 A 
ATOM      4  C   UNL     1       1.941   7.934  19.651  0.00  0.00    +0.000 A 
ATOM      5  C   UNL     1       1.424   9.105  19.087  0.00  0.00    +0.000 A 
ATOM      6  C   UNL     1       0.808  10.117  19.873  0.00  0.00    +0.000 A 
ENDROOT
BRANCH   6   7
ATOM      7  N   UNL     1       0.404  11.285  19.229  0.00  0.00    +0.000 N 
ATOM      8  C   UNL     1      -0.924  11.452  18.628  0.00  0.00    +0.000 C 
ATOM      9  C   UNL     1      -1.419  12.886  18.929  0.00  0.00    +0.000 C 
ATOM     10  N   UNL     1      -0.524  13.946  18.428  0.00  0.00    +0.000 NA
ATOM     11  C   UNL     1       0.855  13.711  18.904  0.00  0.00    +0.000 C 
ATOM     12  C   UNL     1       1.385  12.263  18.716  0.00  0.00    +0.000 C 
ATOM     13  H   UNL     1      -0.847  14.840  18.797  0.00  0.00    +0.000 HD
ENDBRANCH   6   7
BRANCH   4  14
ATOM     14  S   UNL     1       2.914   6.829  18.663  0.00  0.00    +0.000 S 
ATOM     15  O   UNL     1       3.326   7.540  17.474  0.00  0.00    +0.000 OA
ATOM     16  O   UNL     1       3.899   6.197  19.520  0.00  0.00    +0.000 OA
BRANCH  14  17
ATOM     17  N   UNL     1       1.799   5.674  18.133  0.00  0.00    +0.000 N 
ATOM     18  H   UNL     1       1.733   5.679  17.115  0.00  0.00    +0.000 HD
BRANCH  17  19
ATOM     19  C   UNL     1       1.787   4.403  18.780  0.00  0.00    +0.000 A 
ATOM     20  C   UNL     1       1.099   4.310  19.998  0.00  0.00    +0.000 A 
ATOM     21  C   UNL     1       1.105   3.117  20.722  0.00  0.00    +0.000 A 
ATOM     22  C   UNL     1       1.791   2.012  20.231  0.00  0.00    +0.000 A 
ATOM     23  C   UNL     1       2.466   2.099  19.015  0.00  0.00    +0.000 A 
ATOM     24  C   UNL     1       2.479   3.295  18.270  0.00  0.00    +0.000 A 
BRANCH  24  25
ATOM     25  C   UNL     1       3.277   3.327  16.988  0.00  0.00    +0.000 C 
BRANCH  25  26
ATOM     26  O   UNL     1       4.494   4.043  17.212  0.00  0.00    +0.000 OA
ATOM     27  C   UNL     1       5.381   3.943  16.106  0.00  0.00    +0.000 C 
ENDBRANCH  25  26
ENDBRANCH  24  25
ENDBRANCH  17  19
ENDBRANCH  14  17
ENDBRANCH   4  14
BRANCH   1  28
ATOM     28  O   UNL     1       0.278  10.858  22.118  0.00  0.00    +0.000 OA
BRANCH  28  30
ATOM     29  C   UNL     1      -1.829  11.573  23.070  0.00  0.00    +0.000 C 
ATOM     30  C   UNL     1      -0.827  10.443  22.936  0.00  0.00    +0.000 C 
ENDBRANCH  28  30
ENDBRANCH   1  28
TORSDOF 8
ENDMDL
MODEL 3
REMARK VINA RESULT:      -7.0      2.141      3.810
REMARK  Name = 
REMARK  10 active torsions:
REMARK  status: ('A' for Active; 'I' for Inactive)
REMARK    1  A    between atoms: C_1  and  C_2
REMARK    2  A    between atoms: C_2  and  O_3
REMARK    3  A    between atoms: O_3  and  C_4
REMARK    4  A    between atoms: C_7  and  S_8
REMARK    5  A    between atoms: S_8  and  N_11
REMARK    6  A    between atoms: N_11  and  C_12
REMARK    7  A    between atoms: C_17  and  C_18
REMARK    8  A    between atoms: C_18  and  O_19
REMARK    9  A    between atoms: O_19  and  C_20
REMARK   10  A    between atoms: C_22  and  N_23
REMARK                            x       y       z     vdW  Elec       q    Type
REMARK                         _______ _______ _______ _____ _____    ______ ____
ROOT
ATOM      1  C   UNL     1       0.928   9.901  18.741  0.00  0.00    +0.000 A 
ATOM      2  C   UNL     1       1.440   9.109  17.691  0.00  0.00    +0.000 A 
ATOM      3  C   UNL     1       1.949   7.842  17.933  0.00  0.00    +0.000 A 
ATOM      4  C   UNL     1       2.030   7.382  19.236  0.00  0.00    +0.000 A 
ATOM      5  C   UNL     1       1.629   8.201  20.297  0.00  0.00    +0.000 A 
ATOM      6  C   UNL     1       1.073   9.492  20.090  0.00  0.00    +0.000 A 
ENDROOT
BRANCH   6   7
ATOM      7  N   UNL     1       0.624  10.194  21.207  0.00  0.00    +0.000 N 
ATOM      8  C   UNL     1       0.783  11.645  21.361  0.00  0.00    +0.000 C 
ATOM      9  C   UNL     1      -0.511  12.213  21.988  0.00  0.00    +0.000 C 
ATOM     10  N   UNL     1      -0.853  11.622  23.295  0.00  0.00    +0.000 NA
ATOM     11  C   UNL     1      -0.872  10.148  23.195  0.00  0.00    +0.000 C 
ATOM     12  C   UNL     1       0.358   9.514  22.491  0.00  0.00    +0.000 C 
ATOM     13  H   UNL     1      -1.785  11.941  23.559  0.00  0.00    +0.000 HD
ENDBRANCH   6   7
BRANCH   4  14
ATOM     14  S   UNL     1       2.483   5.695  19.539  0.00  0.00    +0.000 S 
ATOM     15  O   UNL     1       2.282   5.426  20.946  0.00  0.00    +0.000 OA
ATOM     16  O   UNL     1       1.849   4.863  18.534  0.00  0.00    +0.000 OA
BRANCH  14  17
ATOM     17  N   UNL     1       4.158   5.679  19.313  0.00  0.00    +0.000 N 
ATOM     18  H   UNL     1       4.620   5.199  20.085  0.00  0.00    +0.000 HD
BRANCH  17  19
ATOM     19  C   UNL     1       4.658   5.433  18.000  0.00  0.00    +0.000 A 
ATOM     20  C   UNL     1       4.978   6.550  17.216  0.00  0.00    +0.000 A 
ATOM     21  C   UNL     1       5.404   6.388  15.897  0.00  0.00    +0.000 A 
ATOM     22  C   UNL     1       5.520   5.111  15.360  0.00  0.00    +0.000 A 
ATOM     23  C   UNL     1       5.214   3.999  16.141  0.00  0.00    +0.000 A 
ATOM     24  C   UNL     1       4.775   4.139  17.473  0.00  0.00    +0.000 A 
BRANCH  24  25
ATOM     25  C   UNL     1       4.411   2.889  18.239  0.00  0.00    +0.000 C 
BRANCH  25  26
ATOM     26  O   UNL     1       4.961   2.971  19.556  0.00  0.00    +0.000 OA
ATOM     27  C   UNL     1       4.153   2.296  20.511  0.00  0.00    +0.000 C 
ENDBRANCH  25  26
ENDBRANCH  24  25
ENDBRANCH  17  19
ENDBRANCH  14  17
ENDBRANCH   4  14
BRANCH   1  28
ATOM     28  O   UNL     1       0.300  11.095  18.445  0.00  0.00    +0.000 OA
BRANCH  28  30
ATOM     29  C   UNL     1      -1.899  12.084  18.654  0.00  0.00    +0.000 C 
ATOM     30  C   UNL     1      -1.075  10.963  18.050  0.00  0.00    +0.000 C 
ENDBRANCH  28  30
ENDBRANCH   1  28
TORSDOF 8
ENDMDL
MODEL 4
REMARK VINA RESULT:      -6.9      0.962      1.321
REMARK  Name = 
REMARK  10 active torsions:
REMARK  status: ('A' for Active; 'I' for Inactive)
REMARK    1  A    between atoms: C_1  and  C_2
REMARK    2  A    between atoms: C_2  and  O_3
REMARK    3  A    between atoms: O_3  and  C_4
REMARK    4  A    between atoms: C_7  and  S_8
REMARK    5  A    between atoms: S_8  and  N_11
REMARK    6  A    between atoms: N_11  and  C_12
REMARK    7  A    between atoms: C_17  and  C_18
REMARK    8  A    between atoms: C_18  and  O_19
REMARK    9  A    between atoms: O_19  and  C_20
REMARK   10  A    between atoms: C_22  and  N_23
REMARK                            x       y       z     vdW  Elec       q    Type
REMARK                         _______ _______ _______ _____ _____    ______ ____
ROOT
ATOM      1  C   UNL     1       0.608  10.177  21.312  0.00  0.00    +0.000 A 
ATOM      2  C   UNL     1       0.833   8.863  21.774  0.00  0.00    +0.000 A 
ATOM      3  C   UNL     1       1.400   7.902  20.950  0.00  0.00    +0.000 A 
ATOM      4  C   UNL     1       1.674   8.217  19.630  0.00  0.00    +0.000 A 
ATOM      5  C   UNL     1       1.354   9.483  19.129  0.00  0.00    +0.000 A 
ATOM      6  C   UNL     1       0.801  10.505  19.947  0.00  0.00    +0.000 A 
ENDROOT
BRANCH   6   7
ATOM      7  N   UNL     1       0.599  11.759  19.374  0.00  0.00    +0.000 N 
ATOM      8  C   UNL     1      -0.727  12.270  19.007  0.00  0.00    +0.000 C 
ATOM      9  C   UNL     1      -0.792  13.770  19.378  0.00  0.00    +0.000 C 
ATOM     10  N   UNL     1       0.243  14.593  18.725  0.00  0.00    +0.000 NA
ATOM     11  C   UNL     1       1.579  14.009  18.960  0.00  0.00    +0.000 C 
ATOM     12  C   UNL     1       1.693  12.483  18.694  0.00  0.00    +0.000 C 
ATOM     13  H   UNL     1       0.219  15.526  19.137  0.00  0.00    +0.000 HD
ENDBRANCH   6   7
BRANCH   4  14
ATOM     14  S   UNL     1       2.585   7.070  18.631  0.00  0.00    +0.000 S 
ATOM     15  O   UNL     1       1.633   6.255  17.910  0.00  0.00    +0.000 OA
ATOM     16  O   UNL     1       3.615   7.802  17.919  0.00  0.00    +0.000 OA
BRANCH  14  17
ATOM     17  N   UNL     1       3.302   6.034  19.758  0.00  0.00    +0.000 N 
ATOM     18  H   UNL     1       3.477   6.523  20.635  0.00  0.00    +0.000 HD
BRANCH  17  19
ATOM     19  C   UNL     1       2.819   4.695  19.844  0.00  0.00    +0.000 A 
ATOM     20  C   UNL     1       1.746   4.454  20.712  0.00  0.00    +0.000 A 
ATOM     21  C   UNL     1       1.268   3.157  20.901  0.00  0.00    +0.000 A 
ATOM     22  C   UNL     1       1.854   2.097  20.219  0.00  0.00    +0.000 A 
ATOM     23  C   UNL     1       2.913   2.335  19.346  0.00  0.00    +0.000 A 
ATOM     24  C   UNL     1       3.417   3.636  19.145  0.00  0.00    +0.000 A 
BRANCH  24  25
ATOM     25  C   UNL     1       4.602   3.807  18.224  0.00  0.00    +0.000 C 
BRANCH  25  26
ATOM     26  O   UNL     1       4.171   4.444  17.019  0.00  0.00    +0.000 OA
ATOM     27  C   UNL     1       5.265   4.923  16.251  0.00  0.00    +0.000 C 
ENDBRANCH  25  26
ENDBRANCH  24  25
ENDBRANCH  17  19
ENDBRANCH  14  17
ENDBRANCH   4  14
BRANCH   1  28
ATOM     28  O   UNL     1       0.176  11.143  22.199  0.00  0.00    +0.000 OA
BRANCH  28  30
ATOM     29  C   UNL     1      -2.004  11.848  22.979  0.00  0.00    +0.000 C 
ATOM     30  C   UNL     1      -0.952  10.756  23.000  0.00  0.00    +0.000 C 
ENDBRANCH  28  30
ENDBRANCH   1  28
TORSDOF 8
ENDMDL
MODEL 5
REMARK VINA RESULT:      -6.9      1.005      1.083
REMARK  Name = 
REMARK  10 active torsions:
REMARK  status: ('A' for Active; 'I' for Inactive)
REMARK    1  A    between atoms: C_1  and  C_2
REMARK    2  A    between atoms: C_2  and  O_3
REMARK    3  A    between atoms: O_3  and  C_4
REMARK    4  A    between atoms: C_7  and  S_8
REMARK    5  A    between atoms: S_8  and  N_11
REMARK    6  A    between atoms: N_11  and  C_12
REMARK    7  A    between atoms: C_17  and  C_18
REMARK    8  A    between atoms: C_18  and  O_19
REMARK    9  A    between atoms: O_19  and  C_20
REMARK   10  A    between atoms: C_22  and  N_23
REMARK                            x       y       z     vdW  Elec       q    Type
REMARK                         _______ _______ _______ _____ _____    ______ ____
ROOT
ATOM      1  C   UNL     1       0.752   9.804  21.543  0.00  0.00    +0.000 A 
ATOM      2  C   UNL     1       1.281   8.583  22.011  0.00  0.00    +0.000 A 
ATOM      3  C   UNL     1       1.867   7.676  21.141  0.00  0.00    +0.000 A 
ATOM      4  C   UNL     1       1.859   7.939  19.782  0.00  0.00    +0.000 A 
ATOM      5  C   UNL     1       1.239   9.094  19.293  0.00  0.00    +0.000 A 
ATOM      6  C   UNL     1       0.656  10.063  20.153  0.00  0.00    +0.000 A 
ENDROOT
BRANCH   6   7
ATOM      7  N   UNL     1       0.141  11.221  19.574  0.00  0.00    +0.000 N 
ATOM      8  C   UNL     1       0.805  12.527  19.663  0.00  0.00    +0.000 C 
ATOM      9  C   UNL     1       0.673  13.236  18.296  0.00  0.00    +0.000 C 
ATOM     10  N   UNL     1      -0.721  13.430  17.854  0.00  0.00    +0.000 NA
ATOM     11  C   UNL     1      -1.451  12.146  17.899  0.00  0.00    +0.000 C 
ATOM     12  C   UNL     1      -1.287  11.335  19.214  0.00  0.00    +0.000 C 
ATOM     13  H   UNL     1      -0.710  13.763  16.890  0.00  0.00    +0.000 HD
ENDBRANCH   6   7
BRANCH   4  14
ATOM     14  S   UNL     1       2.782   6.895  18.686  0.00  0.00    +0.000 S 
ATOM     15  O   UNL     1       3.081   7.656  17.493  0.00  0.00    +0.000 OA
ATOM     16  O   UNL     1       3.847   6.266  19.442  0.00  0.00    +0.000 OA
BRANCH  14  17
ATOM     17  N   UNL     1       1.661   5.725  18.203  0.00  0.00    +0.000 N 
ATOM     18  H   UNL     1       1.551   5.730  17.189  0.00  0.00    +0.000 HD
BRANCH  17  19
ATOM     19  C   UNL     1       1.695   4.453  18.848  0.00  0.00    +0.000 A 
ATOM     20  C   UNL     1       1.095   4.358  20.111  0.00  0.00    +0.000 A 
ATOM     21  C   UNL     1       1.152   3.165  20.832  0.00  0.00    +0.000 A 
ATOM     22  C   UNL     1       1.803   2.061  20.292  0.00  0.00    +0.000 A 
ATOM     23  C   UNL     1       2.391   2.150  19.032  0.00  0.00    +0.000 A 
ATOM     24  C   UNL     1       2.351   3.347  18.289  0.00  0.00    +0.000 A 
BRANCH  24  25
ATOM     25  C   UNL     1       3.058   3.381  16.955  0.00  0.00    +0.000 C 
BRANCH  25  26
ATOM     26  O   UNL     1       4.468   3.287  17.170  0.00  0.00    +0.000 OA
ATOM     27  C   UNL     1       5.155   4.439  16.699  0.00  0.00    +0.000 C 
ENDBRANCH  25  26
ENDBRANCH  24  25
ENDBRANCH  17  19
ENDBRANCH  14  17
ENDBRANCH   4  14
BRANCH   1  28
ATOM     28  O   UNL     1       0.308  10.743  22.452  0.00  0.00    +0.000 OA
BRANCH  28  30
ATOM     29  C   UNL     1      -1.877  11.619  23.018  0.00  0.00    +0.000 C 
ATOM     30  C   UNL     1      -0.946  10.423  23.076  0.00  0.00    +0.000 C 
ENDBRANCH  28  30
ENDBRANCH   1  28
TORSDOF 8
ENDMDL
MODEL 6
REMARK VINA RESULT:      -6.8      2.158      3.986
REMARK  Name = 
REMARK  10 active torsions:
REMARK  status: ('A' for Active; 'I' for Inactive)
REMARK    1  A    between atoms: C_1  and  C_2
REMARK    2  A    between atoms: C_2  and  O_3
REMARK    3  A    between atoms: O_3  and  C_4
REMARK    4  A    between atoms: C_7  and  S_8
REMARK    5  A    between atoms: S_8  and  N_11
REMARK    6  A    between atoms: N_11  and  C_12
REMARK    7  A    between atoms: C_17  and  C_18
REMARK    8  A    between atoms: C_18  and  O_19
REMARK    9  A    between atoms: O_19  and  C_20
REMARK   10  A    between atoms: C_22  and  N_23
REMARK                            x       y       z     vdW  Elec       q    Type
REMARK                         _______ _______ _______ _____ _____    ______ ____
ROOT
ATOM      1  C   UNL     1       1.264  10.208  18.787  0.00  0.00    +0.000 A 
ATOM      2  C   UNL     1       2.132   9.667  17.815  0.00  0.00    +0.000 A 
ATOM      3  C   UNL     1       2.560   8.350  17.891  0.00  0.00    +0.000 A 
ATOM      4  C   UNL     1       2.193   7.580  18.982  0.00  0.00    +0.000 A 
ATOM      5  C   UNL     1       1.424   8.137  20.008  0.00  0.00    +0.000 A 
ATOM      6  C   UNL     1       0.939   9.472  19.955  0.00  0.00    +0.000 A 
ENDROOT
BRANCH   6   7
ATOM      7  N   UNL     1       0.109   9.905  20.986  0.00  0.00    +0.000 N 
ATOM      8  C   UNL     1      -0.346   9.030  22.072  0.00  0.00    +0.000 C 
ATOM      9  C   UNL     1      -0.311   9.833  23.393  0.00  0.00    +0.000 C 
ATOM     10  N   UNL     1      -1.139  11.053  23.375  0.00  0.00    +0.000 NA
ATOM     11  C   UNL     1      -0.797  11.880  22.199  0.00  0.00    +0.000 C 
ATOM     12  C   UNL     1      -0.724  11.117  20.848  0.00  0.00    +0.000 C 
ATOM     13  H   UNL     1      -0.940  11.590  24.219  0.00  0.00    +0.000 HD
ENDBRANCH   6   7
BRANCH   4  14
ATOM     14  S   UNL     1       2.558   5.845  18.987  0.00  0.00    +0.000 S 
ATOM     15  O   UNL     1       2.319   5.344  20.323  0.00  0.00    +0.000 OA
ATOM     16  O   UNL     1       1.903   5.236  17.846  0.00  0.00    +0.000 OA
BRANCH  14  17
ATOM     17  N   UNL     1       4.235   5.784  18.778  0.00  0.00    +0.000 N 
ATOM     18  H   UNL     1       4.687   5.413  19.614  0.00  0.00    +0.000 HD
BRANCH  17  19
ATOM     19  C   UNL     1       4.741   5.353  17.516  0.00  0.00    +0.000 A 
ATOM     20  C   UNL     1       5.106   6.347  16.598  0.00  0.00    +0.000 A 
ATOM     21  C   UNL     1       5.541   5.999  15.319  0.00  0.00    +0.000 A 
ATOM     22  C   UNL     1       5.620   4.660  14.954  0.00  0.00    +0.000 A 
ATOM     23  C   UNL     1       5.269   3.670  15.869  0.00  0.00    +0.000 A 
ATOM     24  C   UNL     1       4.820   3.998  17.165  0.00  0.00    +0.000 A 
BRANCH  24  25
ATOM     25  C   UNL     1       4.406   2.871  18.081  0.00  0.00    +0.000 C 
BRANCH  25  26
ATOM     26  O   UNL     1       4.983   3.082  19.372  0.00  0.00    +0.000 OA
ATOM     27  C   UNL     1       4.303   2.352  20.384  0.00  0.00    +0.000 C 
ENDBRANCH  25  26
ENDBRANCH  24  25
ENDBRANCH  17  19
ENDBRANCH  14  17
ENDBRANCH   4  14
BRANCH   1  28
ATOM     28  O   UNL     1       0.745  11.474  18.603  0.00  0.00    +0.000 OA
BRANCH  28  30
ATOM     29  C   UNL     1       1.171  13.816  19.038  0.00  0.00    +0.000 C 
ATOM     30  C   UNL     1       1.731  12.513  18.501  0.00  0.00    +0.000 C 
ENDBRANCH  28  30
ENDBRANCH   1  28
TORSDOF 8
ENDMDL
MODEL 7
REMARK VINA RESULT:      -6.7      2.122      4.024
REMARK  Name = 
REMARK  10 active torsions:
REMARK  status: ('A' for Active; 'I' for Inactive)
REMARK    1  A    between atoms: C_1  and  C_2
REMARK    2  A    between atoms: C_2  and  O_3
REMARK    3  A    between atoms: O_3  and  C_4
REMARK    4  A    between atoms: C_7  and  S_8
REMARK    5  A    between atoms: S_8  and  N_11
REMARK    6  A    between atoms: N_11  and  C_12
REMARK    7  A    between atoms: C_17  and  C_18
REMARK    8  A    between atoms: C_18  and  O_19
REMARK    9  A    between atoms: O_19  and  C_20
REMARK   10  A    between atoms: C_22  and  N_23
REMARK                            x       y       z     vdW  Elec       q    Type
REMARK                         _______ _______ _______ _____ _____    ______ ____
ROOT
ATOM      1  C   UNL     1       1.307  10.355  18.833  0.00  0.00    +0.000 A 
ATOM      2  C   UNL     1       1.952   9.698  17.764  0.00  0.00    +0.000 A 
ATOM      3  C   UNL     1       2.325   8.366  17.863  0.00  0.00    +0.000 A 
ATOM      4  C   UNL     1       2.135   7.696  19.060  0.00  0.00    +0.000 A 
ATOM      5  C   UNL     1       1.598   8.367  20.163  0.00  0.00    +0.000 A 
ATOM      6  C   UNL     1       1.173   9.722  20.094  0.00  0.00    +0.000 A 
ENDROOT
BRANCH   6   7
ATOM      7  N   UNL     1       0.572  10.274  21.223  0.00  0.00    +0.000 N 
ATOM      8  C   UNL     1       0.338  11.714  21.385  0.00  0.00    +0.000 C 
ATOM      9  C   UNL     1      -1.050  11.912  22.037  0.00  0.00    +0.000 C 
ATOM     10  N   UNL     1      -1.198  11.246  23.345  0.00  0.00    +0.000 NA
ATOM     11  C   UNL     1      -0.823   9.821  23.234  0.00  0.00    +0.000 C 
ATOM     12  C   UNL     1       0.521   9.544  22.506  0.00  0.00    +0.000 C 
ATOM     13  H   UNL     1      -2.177  11.303  23.626  0.00  0.00    +0.000 HD
ENDBRANCH   6   7
BRANCH   4  14
ATOM     14  S   UNL     1       2.414   5.947  19.134  0.00  0.00    +0.000 S 
ATOM     15  O   UNL     1       2.100   5.503  20.474  0.00  0.00    +0.000 OA
ATOM     16  O   UNL     1       1.774   5.332  17.987  0.00  0.00    +0.000 OA
BRANCH  14  17
ATOM     17  N   UNL     1       4.093   5.800  18.994  0.00  0.00    +0.000 N 
ATOM     18  H   UNL     1       4.488   5.381  19.836  0.00  0.00    +0.000 HD
BRANCH  17  19
ATOM     19  C   UNL     1       4.629   5.377  17.742  0.00  0.00    +0.000 A 
ATOM     20  C   UNL     1       4.952   6.374  16.812  0.00  0.00    +0.000 A 
ATOM     21  C   UNL     1       5.414   6.032  15.541  0.00  0.00    +0.000 A 
ATOM     22  C   UNL     1       5.562   4.693  15.196  0.00  0.00    +0.000 A 
ATOM     23  C   UNL     1       5.252   3.700  16.123  0.00  0.00    +0.000 A 
ATOM     24  C   UNL     1       4.777   4.022  17.410  0.00  0.00    +0.000 A 
BRANCH  24  25
ATOM     25  C   UNL     1       4.412   2.889  18.339  0.00  0.00    +0.000 C 
BRANCH  25  26
ATOM     26  O   UNL     1       3.202   2.281  17.882  0.00  0.00    +0.000 OA
ATOM     27  C   UNL     1       2.295   2.036  18.948  0.00  0.00    +0.000 C 
ENDBRANCH  25  26
ENDBRANCH  24  25
ENDBRANCH  17  19
ENDBRANCH  14  17
ENDBRANCH   4  14
BRANCH   1  28
ATOM     28  O   UNL     1       0.822  11.635  18.649  0.00  0.00    +0.000 OA
BRANCH  28  30
ATOM     29  C   UNL     1       1.369  13.992  18.662  0.00  0.00    +0.000 C 
ATOM     30  C   UNL     1       1.814  12.599  18.262  0.00  0.00    +0.000 C 
ENDBRANCH  28  30
ENDBRANCH   1  28
TORSDOF 8
ENDMDL
MODEL 8
REMARK VINA RESULT:      -6.6      2.100      8.427
REMARK  Name = 
REMARK  10 active torsions:
REMARK  status: ('A' for Active; 'I' for Inactive)
REMARK    1  A    between atoms: C_1  and  C_2
REMARK    2  A    between atoms: C_2  and  O_3
REMARK    3  A    between atoms: O_3  and  C_4
REMARK    4  A    between atoms: C_7  and  S_8
REMARK    5  A    between atoms: S_8  and  N_11
REMARK    6  A    between atoms: N_11  and  C_12
REMARK    7  A    between atoms: C_17  and  C_18
REMARK    8  A    between atoms: C_18  and  O_19
REMARK    9  A    between atoms: O_19  and  C_20
REMARK   10  A    between atoms: C_22  and  N_23
REMARK                            x       y       z     vdW  Elec       q    Type
REMARK                         _______ _______ _______ _____ _____    ______ ____
ROOT
ATOM      1  C   UNL     1       2.916   6.864  18.279  0.00  0.00    +0.000 A 
ATOM      2  C   UNL     1       2.389   8.141  17.997  0.00  0.00    +0.000 A 
ATOM      3  C   UNL     1       1.709   8.865  18.965  0.00  0.00    +0.000 A 
ATOM      4  C   UNL     1       1.474   8.289  20.202  0.00  0.00    +0.000 A 
ATOM      5  C   UNL     1       1.895   6.980  20.458  0.00  0.00    +0.000 A 
ATOM      6  C   UNL     1       2.622   6.216  19.505  0.00  0.00    +0.000 A 
ENDROOT
BRANCH   6   7
ATOM      7  N   UNL     1       3.072   4.955  19.889  0.00  0.00    +0.000 N 
ATOM      8  C   UNL     1       2.349   4.099  20.838  0.00  0.00    +0.000 C 
ATOM      9  C   UNL     1       2.423   2.639  20.332  0.00  0.00    +0.000 C 
ATOM     10  N   UNL     1       3.798   2.131  20.170  0.00  0.00    +0.000 NA
ATOM     11  C   UNL     1       4.587   3.060  19.335  0.00  0.00    +0.000 C 
ATOM     12  C   UNL     1       4.486   4.558  19.731  0.00  0.00    +0.000 C 
ATOM     13  H   UNL     1       3.753   1.228  19.697  0.00  0.00    +0.000 HD
ENDBRANCH   6   7
BRANCH   4  14
ATOM     14  S   UNL     1       0.793   9.275  21.508  0.00  0.00    +0.000 S 
ATOM     15  O   UNL     1      -0.520   8.755  21.820  0.00  0.00    +0.000 OA
ATOM     16  O   UNL     1       1.795   9.412  22.548  0.00  0.00    +0.000 OA
BRANCH  14  17
ATOM     17  N   UNL     1       0.521  10.777  20.781  0.00  0.00    +0.000 N 
ATOM     18  H   UNL     1       0.728  10.735  19.783  0.00  0.00    +0.000 HD
BRANCH  17  19
ATOM     19  C   UNL     1      -0.632  11.518  21.177  0.00  0.00    +0.000 A 
ATOM     20  C   UNL     1      -0.784  11.785  22.545  0.00  0.00    +0.000 A 
ATOM     21  C   UNL     1      -1.922  12.442  23.013  0.00  0.00    +0.000 A 
ATOM     22  C   UNL     1      -2.908  12.841  22.118  0.00  0.00    +0.000 A 
ATOM     23  C   UNL     1      -2.754  12.586  20.757  0.00  0.00    +0.000 A 
ATOM     24  C   UNL     1      -1.616  11.918  20.262  0.00  0.00    +0.000 A 
BRANCH  24  25
ATOM     25  C   UNL     1      -1.546  11.631  18.781  0.00  0.00    +0.000 C 
BRANCH  25  26
ATOM     26  O   UNL     1      -1.597  10.217  18.576  0.00  0.00    +0.000 OA
ATOM     27  C   UNL     1      -2.630   9.849  17.672  0.00  0.00    +0.000 C 
ENDBRANCH  25  26
ENDBRANCH  24  25
ENDBRANCH  17  19
ENDBRANCH  14  17
ENDBRANCH   4  14
BRANCH   1  28
ATOM     28  O   UNL     1       3.709   6.235  17.340  0.00  0.00    +0.000 OA
BRANCH  28  30
ATOM     29  C   UNL     1       6.076   6.736  17.260  0.00  0.00    +0.000 C 
ATOM     30  C   UNL     1       4.697   7.080  16.731  0.00  0.00    +0.000 C 
ENDBRANCH  28  30
ENDBRANCH   1  28
TORSDOF 8
ENDMDL
MODEL 9
REMARK VINA RESULT:      -6.5      2.134      7.981
REMARK  Name = 
REMARK  10 active torsions:
REMARK  status: ('A' for Active; 'I' for Inactive)
REMARK    1  A    between atoms: C_1  and  C_2
REMARK    2  A    between atoms: C_2  and  O_3
REMARK    3  A    between atoms: O_3  and  C_4
REMARK    4  A    between atoms: C_7  and  S_8
REMARK    5  A    between atoms: S_8  and  N_11
REMARK    6  A    between atoms: N_11  and  C_12
REMARK    7  A    between atoms: C_17  and  C_18
REMARK    8  A    between atoms: C_18  and  O_19
REMARK    9  A    between atoms: O_19  and  C_20
REMARK   10  A    between atoms: C_22  and  N_23
REMARK                            x       y       z     vdW  Elec       q    Type
REMARK                         _______ _______ _______ _____ _____    ______ ____
ROOT
ATOM      1  C   UNL     1       2.652   4.575  19.179  0.00  0.00    +0.000 A 
ATOM      2  C   UNL     1       1.569   4.524  20.082  0.00  0.00    +0.000 A 
ATOM      3  C   UNL     1       1.087   5.675  20.687  0.00  0.00    +0.000 A 
ATOM      4  C   UNL     1       1.731   6.880  20.464  0.00  0.00    +0.000 A 
ATOM      5  C   UNL     1       2.873   6.926  19.658  0.00  0.00    +0.000 A 
ATOM      6  C   UNL     1       3.382   5.777  18.994  0.00  0.00    +0.000 A 
ENDROOT
BRANCH   6   7
ATOM      7  N   UNL     1       4.473   5.944  18.145  0.00  0.00    +0.000 N 
ATOM      8  C   UNL     1       5.835   5.523  18.495  0.00  0.00    +0.000 C 
ATOM      9  C   UNL     1       6.493   4.906  17.240  0.00  0.00    +0.000 C 
ATOM     10  N   UNL     1       6.550   5.819  16.083  0.00  0.00    +0.000 NA
ATOM     11  C   UNL     1       5.207   6.371  15.806  0.00  0.00    +0.000 C 
ATOM     12  C   UNL     1       4.450   6.927  17.043  0.00  0.00    +0.000 C 
ATOM     13  H   UNL     1       6.857   5.288  15.268  0.00  0.00    +0.000 HD
ENDBRANCH   6   7
BRANCH   4  14
ATOM     14  S   UNL     1       1.004   8.382  21.062  0.00  0.00    +0.000 S 
ATOM     15  O   UNL     1      -0.419   8.164  21.198  0.00  0.00    +0.000 OA
ATOM     16  O   UNL     1       1.787   8.853  22.188  0.00  0.00    +0.000 OA
BRANCH  14  17
ATOM     17  N   UNL     1       1.172   9.455  19.766  0.00  0.00    +0.000 N 
ATOM     18  H   UNL     1       1.796   9.068  19.058  0.00  0.00    +0.000 HD
BRANCH  17  19
ATOM     19  C   UNL     1       0.010  10.142  19.306  0.00  0.00    +0.000 A 
ATOM     20  C   UNL     1      -0.543   9.724  18.088  0.00  0.00    +0.000 A 
ATOM     21  C   UNL     1      -1.637  10.396  17.542  0.00  0.00    +0.000 A 
ATOM     22  C   UNL     1      -2.186  11.483  18.212  0.00  0.00    +0.000 A 
ATOM     23  C   UNL     1      -1.645  11.894  19.428  0.00  0.00    +0.000 A 
ATOM     24  C   UNL     1      -0.536  11.234  19.996  0.00  0.00    +0.000 A 
BRANCH  24  25
ATOM     25  C   UNL     1       0.027  11.772  21.290  0.00  0.00    +0.000 C 
BRANCH  25  26
ATOM     26  O   UNL     1      -1.044  11.993  22.210  0.00  0.00    +0.000 OA
ATOM     27  C   UNL     1      -1.183  10.919  23.131  0.00  0.00    +0.000 C 
ENDBRANCH  25  26
ENDBRANCH  24  25
ENDBRANCH  17  19
ENDBRANCH  14  17
ENDBRANCH   4  14
BRANCH   1  28
ATOM     28  O   UNL     1       3.013   3.436  18.488  0.00  0.00    +0.000 OA
BRANCH  28  30
ATOM     29  C   UNL     1       4.490   2.267  20.007  0.00  0.00    +0.000 C 
ATOM     30  C   UNL     1       3.147   2.261  19.302  0.00  0.00    +0.000 C 
ENDBRANCH  28  30
ENDBRANCH   1  28
TORSDOF 8
ENDMDL
