MODEL 1
REMARK VINA RESULT:      -6.9      0.000      0.000
REMARK  Name = 
REMARK  17 active torsions:
REMARK  status: ('A' for Active; 'I' for Inactive)
REMARK    1  A    between atoms: C_1  and  C_2
REMARK    2  A    between atoms: C_2  and  O_3
REMARK    3  A    between atoms: C_2  and  C_4
REMARK    4  A    between atoms: C_4  and  N_5
REMARK    5  A    between atoms: C_4  and  C_6
REMARK    6  A    between atoms: N_8  and  C_9
REMARK    7  A    between atoms: C_9  and  C_10
REMARK    8  A    between atoms: C_16  and  C_17
REMARK    9  A    between atoms: N_19  and  CA_20
REMARK   10  A    between atoms: CA_20  and  CB_21
REMARK   11  A    between atoms: CA_20  and  C_28
REMARK   12  A    between atoms: CB_21  and  CG_22
REMARK   13  A    between atoms: CG_22  and  CD_23
REMARK   14  A    between atoms: CD_23  and  NE_24
REMARK   15  A    between atoms: C_28  and  OXT_30
REMARK   16  A    between atoms: C_32  and  C_33
REMARK   17  A    between atoms: C_33  and  N_34
REMARK                            x       y       z     vdW  Elec       q    Type
REMARK                         _______ _______ _______ _____ _____    ______ ____
ROOT
ATOM      1  C   UNK A   0       1.058  10.221  18.949  0.00  0.00    +0.000 C 
ATOM      2  O   UNK A   0       1.964   9.836  18.184  0.00  0.00    +0.000 OA
ATOM      3  N   UNK A   0       0.700   9.346  19.980  0.00  0.00    +0.000 N 
ATOM      4  C   UNK A   0      -0.426   9.441  20.882  0.00  0.00    +0.000 C 
ATOM      5  C   UNK A   0       0.243   9.674  22.224  0.00  0.00    +0.000 C 
ATOM      6  C   UNK A   0       1.466   8.757  22.163  0.00  0.00    +0.000 C 
ATOM      7  C   UNK A   0       1.797   8.623  20.662  0.00  0.00    +0.000 C 
ENDROOT
BRANCH   1   8
ATOM      8  C   UNK A   0       0.482  11.726  18.805  0.00  0.00    +0.000 C 
ATOM      9  C   UNK A   0       0.485  12.813  19.929  0.00  0.00    +0.000 C 
ATOM     10  C   UNK A   0       1.289  13.784  19.037  0.00  0.00    +0.000 C 
ATOM     11  C   UNK A   0       1.606  12.606  18.109  0.00  0.00    +0.000 C 
BRANCH   8  14
ATOM     12  C   UNK A   0      -2.065  11.699  18.361  0.00  0.00    +0.000 C 
ATOM     13  O   UNK A   0      -2.397  11.662  19.542  0.00  0.00    +0.000 OA
ATOM     14  N   UNK A   0      -0.753  11.779  17.929  0.00  0.00    +0.000 N 
ATOM     15  H   UNK A   0      -0.637  11.571  16.936  0.00  0.00    +0.000 HD
BRANCH  12  16
ATOM     16  C   UNK A   0      -3.076  11.647  17.174  0.00  0.00    +0.000 C 
BRANCH  16  17
ATOM     17  N   UNK A   0      -2.273  11.383  15.938  0.00  0.00    +0.000 NA
ATOM     18  H   UNK A   0      -2.922  11.395  15.144  0.00  0.00    +0.000 HD
ATOM     19  H   UNK A   0      -1.987  10.399  15.947  0.00  0.00    +0.000 HD
ENDBRANCH  16  17
BRANCH  16  21
ATOM     20  C   UNK A   0      -5.465  11.035  18.056  0.00  0.00    +0.000 C 
ATOM     21  C   UNK A   0      -4.208  10.595  17.313  0.00  0.00    +0.000 C 
BRANCH  21  22
ATOM     22  O   UNK A   0      -3.704   9.396  17.907  0.00  0.00    +0.000 OA
ATOM     23  H   UNK A   0      -3.011   9.060  17.307  0.00  0.00    +0.000 HD
ENDBRANCH  21  22
ENDBRANCH  16  21
ENDBRANCH  12  16
ENDBRANCH   8  14
BRANCH  10  24
ATOM     24  C   UNK A   0       2.546  14.440  19.605  0.00  0.00    +0.000 C 
BRANCH  24  25
ATOM     25  N   UNK A   0       2.453  15.893  19.607  0.00  0.00    +0.000 NA
ATOM     26  H   UNK A   0       1.541  16.193  19.271  0.00  0.00    +0.000 HD
ATOM     27  H   UNK A   0       3.150  16.296  18.983  0.00  0.00    +0.000 HD
ENDBRANCH  24  25
ENDBRANCH  10  24
ENDBRANCH   1   8
BRANCH   7  28
ATOM     28  C   UNK A   0       2.013   7.130  20.319  0.00  0.00    +0.000 C 
ATOM     29  O   UNK A   0       1.354   6.243  20.864  0.00  0.00    +0.000 OA
ATOM     30  N   ARG A   1       2.933   6.851  19.341  0.00  0.00    +0.000 N 
ATOM     31  H   ARG A   1       3.600   7.591  19.124  0.00  0.00    +0.000 HD
BRANCH  30  32
ATOM     32  CA  ARG A   1       3.303   5.477  18.976  0.00  0.00    +0.000 C 
BRANCH  32  33
ATOM     33  C   ARG A   1       4.812   5.434  18.699  0.00  0.00    +0.000 C 
ATOM     34  O   ARG A   1       5.373   6.198  17.925  0.00  0.00    +0.000 OA
BRANCH  33  35
ATOM     35  OXT ARG A   1       5.492   4.468  19.357  0.00  0.00    +0.000 OA
ATOM     36  HXT ARG A   1       6.440   4.644  19.508  0.00  0.00    +0.000 HD
ENDBRANCH  33  35
ENDBRANCH  32  33
BRANCH  32  37
ATOM     37  CB  ARG A   1       2.453   4.915  17.818  0.00  0.00    +0.000 C 
BRANCH  37  38
ATOM     38  CG  ARG A   1       2.696   3.450  17.446  0.00  0.00    +0.000 C 
BRANCH  38  39
ATOM     39  CD  ARG A   1       1.858   2.431  18.215  0.00  0.00    +0.000 C 
BRANCH  39  40
ATOM     40  NE  ARG A   1       2.460   2.239  19.528  0.00  0.00    +0.000 NA
ATOM     41  CZ  ARG A   1       1.834   2.660  20.565  0.00  0.00    +0.000 C 
ATOM     42  NH1 ARG A   1       0.636   3.268  20.709  0.00  0.00    +0.000 N 
ATOM     43  NH2 ARG A   1       2.424   2.535  21.765  0.00  0.00    +0.000 N 
ATOM     44 HH11 ARG A   1       0.012   3.175  19.917  0.00  0.00    +0.000 HD
ATOM     45 HH12 ARG A   1       0.163   2.971  21.556  0.00  0.00    +0.000 HD
ATOM     46 HH21 ARG A   1       3.383   2.233  21.645  0.00  0.00    +0.000 HD
ATOM     47 HH22 ARG A   1       2.379   3.382  22.316  0.00  0.00    +0.000 HD
ENDBRANCH  39  40
ENDBRANCH  38  39
ENDBRANCH  37  38
ENDBRANCH  32  37
ENDBRANCH  30  32
ENDBRANCH   7  28
TORSDOF 16
ENDMDL
MODEL 2
REMARK VINA RESULT:      -6.9      4.407      7.553
REMARK  Name = 
REMARK  17 active torsions:
REMARK  status: ('A' for Active; 'I' for Inactive)
REMARK    1  A    between atoms: C_1  and  C_2
REMARK    2  A    between atoms: C_2  and  O_3
REMARK    3  A    between atoms: C_2  and  C_4
REMARK    4  A    between atoms: C_4  and  N_5
REMARK    5  A    between atoms: C_4  and  C_6
REMARK    6  A    between atoms: N_8  and  C_9
REMARK    7  A    between atoms: C_9  and  C_10
REMARK    8  A    between atoms: C_16  and  C_17
REMARK    9  A    between atoms: N_19  and  CA_20
REMARK   10  A    between atoms: CA_20  and  CB_21
REMARK   11  A    between atoms: CA_20  and  C_28
REMARK   12  A    between atoms: CB_21  and  CG_22
REMARK   13  A    between atoms: CG_22  and  CD_23
REMARK   14  A    between atoms: CD_23  and  NE_24
REMARK   15  A    between atoms: C_28  and  OXT_30
REMARK   16  A    between atoms: C_32  and  C_33
REMARK   17  A    between atoms: C_33  and  N_34
REMARK                            x       y       z     vdW  Elec       q    Type
REMARK                         _______ _______ _______ _____ _____    ______ ____
ROOT
ATOM      1  C   UNK A   0       4.799   6.215  18.429  0.00  0.00    +0.000 C 
ATOM      2  O   UNK A   0       5.088   5.522  19.424  0.00  0.00    +0.000 OA
ATOM      3  N   UNK A   0       3.470   6.642  18.333  0.00  0.00    +0.000 N 
ATOM      4  C   UNK A   0       2.815   7.280  17.214  0.00  0.00    +0.000 C 
ATOM      5  C   UNK A   0       2.513   8.666  17.753  0.00  0.00    +0.000 C 
ATOM      6  C   UNK A   0       2.093   8.390  19.198  0.00  0.00    +0.000 C 
ATOM      7  C   UNK A   0       2.811   7.080  19.585  0.00  0.00    +0.000 C 
ENDROOT
BRANCH   1   8
ATOM      8  C   UNK A   0       5.973   6.696  17.425  0.00  0.00    +0.000 C 
ATOM      9  C   UNK A   0       6.432   8.174  17.204  0.00  0.00    +0.000 C 
ATOM     10  C   UNK A   0       7.880   7.822  17.608  0.00  0.00    +0.000 C 
ATOM     11  C   UNK A   0       7.357   6.498  18.178  0.00  0.00    +0.000 C 
BRANCH   8  14
ATOM     12  C   UNK A   0       6.931   4.872  15.863  0.00  0.00    +0.000 C 
ATOM     13  O   UNK A   0       7.791   4.478  16.644  0.00  0.00    +0.000 OA
ATOM     14  N   UNK A   0       6.013   5.864  16.160  0.00  0.00    +0.000 N 
ATOM     15  H   UNK A   0       5.527   6.229  15.339  0.00  0.00    +0.000 HD
BRANCH  12  16
ATOM     16  C   UNK A   0       6.757   4.322  14.413  0.00  0.00    +0.000 C 
BRANCH  16  17
ATOM     17  N   UNK A   0       5.289   4.114  14.205  0.00  0.00    +0.000 NA
ATOM     18  H   UNK A   0       4.827   4.276  15.106  0.00  0.00    +0.000 HD
ATOM     19  H   UNK A   0       5.125   3.111  14.072  0.00  0.00    +0.000 HD
ENDBRANCH  16  17
BRANCH  16  21
ATOM     20  C   UNK A   0       7.480   4.587  11.910  0.00  0.00    +0.000 C 
ATOM     21  C   UNK A   0       7.337   5.220  13.290  0.00  0.00    +0.000 C 
BRANCH  21  22
ATOM     22  O   UNK A   0       8.596   5.768  13.690  0.00  0.00    +0.000 OA
ATOM     23  H   UNK A   0       9.273   5.350  13.123  0.00  0.00    +0.000 HD
ENDBRANCH  21  22
ENDBRANCH  16  21
ENDBRANCH  12  16
ENDBRANCH   8  14
BRANCH  10  24
ATOM     24  C   UNK A   0       8.583   8.678  18.661  0.00  0.00    +0.000 C 
BRANCH  24  25
ATOM     25  N   UNK A   0       8.772  10.051  18.213  0.00  0.00    +0.000 NA
ATOM     26  H   UNK A   0       9.394  10.551  18.845  0.00  0.00    +0.000 HD
ATOM     27  H   UNK A   0       7.885  10.550  18.209  0.00  0.00    +0.000 HD
ENDBRANCH  24  25
ENDBRANCH  10  24
ENDBRANCH   1   8
BRANCH   7  28
ATOM     28  C   UNK A   0       1.795   6.121  20.251  0.00  0.00    +0.000 C 
ATOM     29  O   UNK A   0       0.992   6.519  21.095  0.00  0.00    +0.000 OA
ATOM     30  N   ARG A   1       1.801   4.821  19.812  0.00  0.00    +0.000 N 
ATOM     31  H   ARG A   1       2.635   4.515  19.314  0.00  0.00    +0.000 HD
BRANCH  30  32
ATOM     32  CA  ARG A   1       0.954   3.783  20.416  0.00  0.00    +0.000 C 
BRANCH  32  33
ATOM     33  C   ARG A   1       1.774   3.041  21.479  0.00  0.00    +0.000 C 
ATOM     34  O   ARG A   1       1.269   2.344  22.350  0.00  0.00    +0.000 OA
BRANCH  33  35
ATOM     35  OXT ARG A   1       3.112   3.224  21.409  0.00  0.00    +0.000 OA
ATOM     36  HXT ARG A   1       3.492   3.835  22.069  0.00  0.00    +0.000 HD
ENDBRANCH  33  35
ENDBRANCH  32  33
BRANCH  32  37
ATOM     37  CB  ARG A   1       0.317   2.844  19.369  0.00  0.00    +0.000 C 
BRANCH  37  38
ATOM     38  CG  ARG A   1       1.236   1.781  18.763  0.00  0.00    +0.000 C 
BRANCH  38  39
ATOM     39  CD  ARG A   1       2.172   2.275  17.662  0.00  0.00    +0.000 C 
BRANCH  39  40
ATOM     40  NE  ARG A   1       3.336   2.888  18.289  0.00  0.00    +0.000 NA
ATOM     41  CZ  ARG A   1       4.244   2.131  18.785  0.00  0.00    +0.000 C 
ATOM     42  NH1 ARG A   1       4.370   0.787  18.832  0.00  0.00    +0.000 N 
ATOM     43  NH2 ARG A   1       5.283   2.704  19.416  0.00  0.00    +0.000 N 
ATOM     44 HH11 ARG A   1       3.791   0.280  18.174  0.00  0.00    +0.000 HD
ATOM     45 HH12 ARG A   1       5.337   0.496  18.732  0.00  0.00    +0.000 HD
ATOM     46 HH21 ARG A   1       5.110   3.695  19.527  0.00  0.00    +0.000 HD
ATOM     47 HH22 ARG A   1       5.488   2.271  20.307  0.00  0.00    +0.000 HD
ENDBRANCH  39  40
ENDBRANCH  38  39
ENDBRANCH  37  38
ENDBRANCH  32  37
ENDBRANCH  30  32
ENDBRANCH   7  28
TORSDOF 16
ENDMDL
MODEL 3
REMARK VINA RESULT:      -6.8      4.601      7.506
REMARK  Name = 
REMARK  17 active torsions:
REMARK  status: ('A' for Active; 'I' for Inactive)
REMARK    1  A    between atoms: C_1  and  C_2
REMARK    2  A    between atoms: C_2  and  O_3
REMARK    3  A    between atoms: C_2  and  C_4
REMARK    4  A    between atoms: C_4  and  N_5
REMARK    5  A    between atoms: C_4  and  C_6
REMARK    6  A    between atoms: N_8  and  C_9
REMARK    7  A    between atoms: C_9  and  C_10
REMARK    8  A    between atoms: C_16  and  C_17
REMARK    9  A    between atoms: N_19  and  CA_20
REMARK   10  A    between atoms: CA_20  and  CB_21
REMARK   11  A    between atoms: CA_20  and  C_28
REMARK   12  A    between atoms: CB_21  and  CG_22
REMARK   13  A    between atoms: CG_22  and  CD_23
REMARK   14  A    between atoms: CD_23  and  NE_24
REMARK   15  A    between atoms: C_28  and  OXT_30
REMARK   16  A    between atoms: C_32  and  C_33
REMARK   17  A    between atoms: C_33  and  N_34
REMARK                            x       y       z     vdW  Elec       q    Type
REMARK                         _______ _______ _______ _____ _____    ______ ____
ROOT
ATOM      1  C   UNK A   0       5.125   5.983  18.654  0.00  0.00    +0.000 C 
ATOM      2  O   UNK A   0       5.340   5.352  19.708  0.00  0.00    +0.000 OA
ATOM      3  N   UNK A   0       3.804   6.384  18.428  0.00  0.00    +0.000 N 
ATOM      4  C   UNK A   0       3.234   6.949  17.225  0.00  0.00    +0.000 C 
ATOM      5  C   UNK A   0       2.876   8.358  17.658  0.00  0.00    +0.000 C 
ATOM      6  C   UNK A   0       2.345   8.159  19.078  0.00  0.00    +0.000 C 
ATOM      7  C   UNK A   0       3.042   6.883  19.596  0.00  0.00    +0.000 C 
ENDROOT
BRANCH   1   8
ATOM      8  C   UNK A   0       6.371   6.423  17.721  0.00  0.00    +0.000 C 
ATOM      9  C   UNK A   0       6.705   7.886  17.280  0.00  0.00    +0.000 C 
ATOM     10  C   UNK A   0       8.112   7.791  17.909  0.00  0.00    +0.000 C 
ATOM     11  C   UNK A   0       7.652   6.533  18.653  0.00  0.00    +0.000 C 
BRANCH   8  14
ATOM     12  C   UNK A   0       6.148   5.381  15.365  0.00  0.00    +0.000 C 
ATOM     13  O   UNK A   0       5.437   6.267  14.904  0.00  0.00    +0.000 OA
ATOM     14  N   UNK A   0       6.667   5.396  16.649  0.00  0.00    +0.000 N 
ATOM     15  H   UNK A   0       7.038   4.492  16.949  0.00  0.00    +0.000 HD
BRANCH  12  16
ATOM     16  C   UNK A   0       6.560   4.099  14.577  0.00  0.00    +0.000 C 
BRANCH  16  17
ATOM     17  N   UNK A   0       5.797   2.960  15.180  0.00  0.00    +0.000 NA
ATOM     18  H   UNK A   0       5.453   3.273  16.093  0.00  0.00    +0.000 HD
ATOM     19  H   UNK A   0       6.469   2.237  15.455  0.00  0.00    +0.000 HD
ENDBRANCH  16  17
BRANCH  16  21
ATOM     20  C   UNK A   0       5.869   2.864  12.373  0.00  0.00    +0.000 C 
ATOM     21  C   UNK A   0       6.318   4.157  13.046  0.00  0.00    +0.000 C 
BRANCH  21  22
ATOM     22  O   UNK A   0       7.477   4.659  12.377  0.00  0.00    +0.000 OA
ATOM     23  H   UNK A   0       8.098   3.909  12.296  0.00  0.00    +0.000 HD
ENDBRANCH  21  22
ENDBRANCH  16  21
ENDBRANCH  12  16
ENDBRANCH   8  14
BRANCH  10  24
ATOM     24  C   UNK A   0       8.575   8.898  18.855  0.00  0.00    +0.000 C 
BRANCH  24  25
ATOM     25  N   UNK A   0       8.990  10.095  18.137  0.00  0.00    +0.000 NA
ATOM     26  H   UNK A   0       9.661  10.628  18.687  0.00  0.00    +0.000 HD
ATOM     27  H   UNK A   0       8.192  10.704  17.967  0.00  0.00    +0.000 HD
ENDBRANCH  24  25
ENDBRANCH  10  24
ENDBRANCH   1   8
BRANCH   7  28
ATOM     28  C   UNK A   0       1.986   5.949  20.233  0.00  0.00    +0.000 C 
ATOM     29  O   UNK A   0       1.122   6.381  20.998  0.00  0.00    +0.000 OA
ATOM     30  N   ARG A   1       2.028   4.630  19.859  0.00  0.00    +0.000 N 
ATOM     31  H   ARG A   1       2.898   4.307  19.437  0.00  0.00    +0.000 HD
BRANCH  30  32
ATOM     32  CA  ARG A   1       1.146   3.615  20.450  0.00  0.00    +0.000 C 
BRANCH  32  33
ATOM     33  C   ARG A   1       1.839   3.022  21.684  0.00  0.00    +0.000 C 
ATOM     34  O   ARG A   1       1.672   1.868  22.057  0.00  0.00    +0.000 OA
BRANCH  33  35
ATOM     35  OXT ARG A   1       2.644   3.874  22.359  0.00  0.00    +0.000 OA
ATOM     36  HXT ARG A   1       2.745   4.762  21.969  0.00  0.00    +0.000 HD
ENDBRANCH  33  35
ENDBRANCH  32  33
BRANCH  32  37
ATOM     37  CB  ARG A   1       0.692   2.548  19.432  0.00  0.00    +0.000 C 
BRANCH  37  38
ATOM     38  CG  ARG A   1       1.074   2.798  17.971  0.00  0.00    +0.000 C 
BRANCH  38  39
ATOM     39  CD  ARG A   1       2.395   2.174  17.524  0.00  0.00    +0.000 C 
BRANCH  39  40
ATOM     40  NE  ARG A   1       3.457   2.687  18.379  0.00  0.00    +0.000 NA
ATOM     41  CZ  ARG A   1       4.246   1.856  18.953  0.00  0.00    +0.000 C 
ATOM     42  NH1 ARG A   1       4.321   0.507  18.911  0.00  0.00    +0.000 N 
ATOM     43  NH2 ARG A   1       5.184   2.333  19.789  0.00  0.00    +0.000 N 
ATOM     44 HH11 ARG A   1       3.843   0.077  18.129  0.00  0.00    +0.000 HD
ATOM     45 HH12 ARG A   1       5.281   0.182  18.947  0.00  0.00    +0.000 HD
ATOM     46 HH21 ARG A   1       5.027   3.320  19.950  0.00  0.00    +0.000 HD
ATOM     47 HH22 ARG A   1       5.225   1.826  20.664  0.00  0.00    +0.000 HD
ENDBRANCH  39  40
ENDBRANCH  38  39
ENDBRANCH  37  38
ENDBRANCH  32  37
ENDBRANCH  30  32
ENDBRANCH   7  28
TORSDOF 16
ENDMDL
MODEL 4
REMARK VINA RESULT:      -6.6      1.034      1.380
REMARK  Name = 
REMARK  17 active torsions:
REMARK  status: ('A' for Active; 'I' for Inactive)
REMARK    1  A    between atoms: C_1  and  C_2
REMARK    2  A    between atoms: C_2  and  O_3
REMARK    3  A    between atoms: C_2  and  C_4
REMARK    4  A    between atoms: C_4  and  N_5
REMARK    5  A    between atoms: C_4  and  C_6
REMARK    6  A    between atoms: N_8  and  C_9
REMARK    7  A    between atoms: C_9  and  C_10
REMARK    8  A    between atoms: C_16  and  C_17
REMARK    9  A    between atoms: N_19  and  CA_20
REMARK   10  A    between atoms: CA_20  and  CB_21
REMARK   11  A    between atoms: CA_20  and  C_28
REMARK   12  A    between atoms: CB_21  and  CG_22
REMARK   13  A    between atoms: CG_22  and  CD_23
REMARK   14  A    between atoms: CD_23  and  NE_24
REMARK   15  A    between atoms: C_28  and  OXT_30
REMARK   16  A    between atoms: C_32  and  C_33
REMARK   17  A    between atoms: C_33  and  N_34
REMARK                            x       y       z     vdW  Elec       q    Type
REMARK                         _______ _______ _______ _____ _____    ______ ____
ROOT
ATOM      1  C   UNK A   0       1.185  10.236  18.940  0.00  0.00    +0.000 C 
ATOM      2  O   UNK A   0       2.118   9.890  18.188  0.00  0.00    +0.000 OA
ATOM      3  N   UNK A   0       0.785   9.305  19.904  0.00  0.00    +0.000 N 
ATOM      4  C   UNK A   0      -0.374   9.354  20.767  0.00  0.00    +0.000 C 
ATOM      5  C   UNK A   0       0.245   9.503  22.144  0.00  0.00    +0.000 C 
ATOM      6  C   UNK A   0       1.465   8.584  22.076  0.00  0.00    +0.000 C 
ATOM      7  C   UNK A   0       1.853   8.536  20.583  0.00  0.00    +0.000 C 
ENDROOT
BRANCH   1   8
ATOM      8  C   UNK A   0       0.620  11.750  18.862  0.00  0.00    +0.000 C 
ATOM      9  C   UNK A   0       0.701  12.811  20.009  0.00  0.00    +0.000 C 
ATOM     10  C   UNK A   0       1.465  13.792  19.094  0.00  0.00    +0.000 C 
ATOM     11  C   UNK A   0       1.715  12.633  18.124  0.00  0.00    +0.000 C 
BRANCH   8  14
ATOM     12  C   UNK A   0      -1.945  11.883  18.573  0.00  0.00    +0.000 C 
ATOM     13  O   UNK A   0      -2.202  11.947  19.771  0.00  0.00    +0.000 OA
ATOM     14  N   UNK A   0      -0.661  11.837  18.060  0.00  0.00    +0.000 N 
ATOM     15  H   UNK A   0      -0.624  11.556  17.078  0.00  0.00    +0.000 HD
BRANCH  12  16
ATOM     16  C   UNK A   0      -3.031  11.828  17.454  0.00  0.00    +0.000 C 
BRANCH  16  17
ATOM     17  N   UNK A   0      -2.314  11.534  16.173  0.00  0.00    +0.000 NA
ATOM     18  H   UNK A   0      -2.268  12.409  15.641  0.00  0.00    +0.000 HD
ATOM     19  H   UNK A   0      -2.935  10.972  15.582  0.00  0.00    +0.000 HD
ENDBRANCH  16  17
BRANCH  16  21
ATOM     20  C   UNK A   0      -3.757   9.328  17.743  0.00  0.00    +0.000 C 
ATOM     21  C   UNK A   0      -4.167  10.796  17.683  0.00  0.00    +0.000 C 
BRANCH  21  22
ATOM     22  O   UNK A   0      -5.194  10.959  16.702  0.00  0.00    +0.000 OA
ATOM     23  H   UNK A   0      -5.228  11.912  16.493  0.00  0.00    +0.000 HD
ENDBRANCH  21  22
ENDBRANCH  16  21
ENDBRANCH  12  16
ENDBRANCH   8  14
BRANCH  10  24
ATOM     24  C   UNK A   0       2.761  14.421  19.604  0.00  0.00    +0.000 C 
BRANCH  24  25
ATOM     25  N   UNK A   0       2.748  15.873  19.490  0.00  0.00    +0.000 NA
ATOM     26  H   UNK A   0       3.567  16.275  19.943  0.00  0.00    +0.000 HD
ATOM     27  H   UNK A   0       1.929  16.260  19.955  0.00  0.00    +0.000 HD
ENDBRANCH  24  25
ENDBRANCH  10  24
ENDBRANCH   1   8
BRANCH   7  28
ATOM     28  C   UNK A   0       2.075   7.064  20.162  0.00  0.00    +0.000 C 
ATOM     29  O   UNK A   0       1.676   6.128  20.856  0.00  0.00    +0.000 OA
ATOM     30  N   ARG A   1       2.689   6.858  18.952  0.00  0.00    +0.000 N 
ATOM     31  H   ARG A   1       3.203   7.648  18.566  0.00  0.00    +0.000 HD
BRANCH  30  32
ATOM     32  CA  ARG A   1       3.042   5.517  18.467  0.00  0.00    +0.000 C 
BRANCH  32  33
ATOM     33  C   ARG A   1       4.260   5.637  17.542  0.00  0.00    +0.000 C 
ATOM     34  O   ARG A   1       4.434   6.582  16.783  0.00  0.00    +0.000 OA
BRANCH  33  35
ATOM     35  OXT ARG A   1       5.134   4.607  17.599  0.00  0.00    +0.000 OA
ATOM     36  HXT ARG A   1       5.635   4.521  18.433  0.00  0.00    +0.000 HD
ENDBRANCH  33  35
ENDBRANCH  32  33
BRANCH  32  37
ATOM     37  CB  ARG A   1       1.852   4.780  17.818  0.00  0.00    +0.000 C 
BRANCH  37  38
ATOM     38  CG  ARG A   1       1.066   3.829  18.725  0.00  0.00    +0.000 C 
BRANCH  38  39
ATOM     39  CD  ARG A   1       1.515   2.370  18.687  0.00  0.00    +0.000 C 
BRANCH  39  40
ATOM     40  NE  ARG A   1       2.666   2.220  19.569  0.00  0.00    +0.000 NA
ATOM     41  CZ  ARG A   1       3.806   1.935  19.057  0.00  0.00    +0.000 C 
ATOM     42  NH1 ARG A   1       4.199   1.753  17.777  0.00  0.00    +0.000 N 
ATOM     43  NH2 ARG A   1       4.849   1.739  19.882  0.00  0.00    +0.000 N 
ATOM     44 HH11 ARG A   1       3.568   2.126  17.079  0.00  0.00    +0.000 HD
ATOM     45 HH12 ARG A   1       5.137   2.108  17.617  0.00  0.00    +0.000 HD
ATOM     46 HH21 ARG A   1       4.525   1.712  20.840  0.00  0.00    +0.000 HD
ATOM     47 HH22 ARG A   1       5.377   0.907  19.655  0.00  0.00    +0.000 HD
ENDBRANCH  39  40
ENDBRANCH  38  39
ENDBRANCH  37  38
ENDBRANCH  32  37
ENDBRANCH  30  32
ENDBRANCH   7  28
TORSDOF 16
ENDMDL
MODEL 5
REMARK VINA RESULT:      -6.5      2.311      8.902
REMARK  Name = 
REMARK  17 active torsions:
REMARK  status: ('A' for Active; 'I' for Inactive)
REMARK    1  A    between atoms: C_1  and  C_2
REMARK    2  A    between atoms: C_2  and  O_3
REMARK    3  A    between atoms: C_2  and  C_4
REMARK    4  A    between atoms: C_4  and  N_5
REMARK    5  A    between atoms: C_4  and  C_6
REMARK    6  A    between atoms: N_8  and  C_9
REMARK    7  A    between atoms: C_9  and  C_10
REMARK    8  A    between atoms: C_16  and  C_17
REMARK    9  A    between atoms: N_19  and  CA_20
REMARK   10  A    between atoms: CA_20  and  CB_21
REMARK   11  A    between atoms: CA_20  and  C_28
REMARK   12  A    between atoms: CB_21  and  CG_22
REMARK   13  A    between atoms: CG_22  and  CD_23
REMARK   14  A    between atoms: CD_23  and  NE_24
REMARK   15  A    between atoms: C_28  and  OXT_30
REMARK   16  A    between atoms: C_32  and  C_33
REMARK   17  A    between atoms: C_33  and  N_34
REMARK                            x       y       z     vdW  Elec       q    Type
REMARK                         _______ _______ _______ _____ _____    ______ ____
ROOT
ATOM      1  C   UNK A   0       2.428   7.853  18.492  0.00  0.00    +0.000 C 
ATOM      2  O   UNK A   0       2.416   8.520  17.438  0.00  0.00    +0.000 OA
ATOM      3  N   UNK A   0       1.881   8.468  19.624  0.00  0.00    +0.000 N 
ATOM      4  C   UNK A   0       1.932   8.019  20.997  0.00  0.00    +0.000 C 
ATOM      5  C   UNK A   0       0.478   7.704  21.297  0.00  0.00    +0.000 C 
ATOM      6  C   UNK A   0      -0.273   8.832  20.588  0.00  0.00    +0.000 C 
ATOM      7  C   UNK A   0       0.648   9.265  19.428  0.00  0.00    +0.000 C 
ENDROOT
BRANCH   1   8
ATOM      8  C   UNK A   0       2.912   6.311  18.452  0.00  0.00    +0.000 C 
ATOM      9  C   UNK A   0       3.084   5.378  19.695  0.00  0.00    +0.000 C 
ATOM     10  C   UNK A   0       2.091   4.352  19.107  0.00  0.00    +0.000 C 
ATOM     11  C   UNK A   0       1.645   5.419  18.101  0.00  0.00    +0.000 C 
BRANCH   8  14
ATOM     12  C   UNK A   0       5.308   5.869  17.586  0.00  0.00    +0.000 C 
ATOM     13  O   UNK A   0       5.824   5.770  18.695  0.00  0.00    +0.000 OA
ATOM     14  N   UNK A   0       3.954   6.072  17.380  0.00  0.00    +0.000 N 
ATOM     15  H   UNK A   0       3.726   6.357  16.426  0.00  0.00    +0.000 HD
BRANCH  12  16
ATOM     16  C   UNK A   0       6.106   5.796  16.247  0.00  0.00    +0.000 C 
BRANCH  16  17
ATOM     17  N   UNK A   0       7.426   6.455  16.497  0.00  0.00    +0.000 NA
ATOM     18  H   UNK A   0       7.549   6.518  17.513  0.00  0.00    +0.000 HD
ATOM     19  H   UNK A   0       7.341   7.445  16.244  0.00  0.00    +0.000 HD
ENDBRANCH  16  17
BRANCH  16  21
ATOM     20  C   UNK A   0       5.959   4.152  14.213  0.00  0.00    +0.000 C 
ATOM     21  C   UNK A   0       6.317   4.367  15.680  0.00  0.00    +0.000 C 
BRANCH  21  22
ATOM     22  O   UNK A   0       5.626   3.405  16.481  0.00  0.00    +0.000 OA
ATOM     23  H   UNK A   0       6.302   2.968  17.033  0.00  0.00    +0.000 HD
ENDBRANCH  21  22
ENDBRANCH  16  21
ENDBRANCH  12  16
ENDBRANCH   8  14
BRANCH  10  24
ATOM     24  C   UNK A   0       0.942   3.851  19.981  0.00  0.00    +0.000 C 
BRANCH  24  25
ATOM     25  N   UNK A   0       0.311   2.660  19.428  0.00  0.00    +0.000 NA
ATOM     26  H   UNK A   0      -0.616   2.881  19.071  0.00  0.00    +0.000 HD
ATOM     27  H   UNK A   0       0.193   1.952  20.150  0.00  0.00    +0.000 HD
ENDBRANCH  24  25
ENDBRANCH  10  24
ENDBRANCH   1   8
BRANCH   7  28
ATOM     28  C   UNK A   0       0.768  10.808  19.423  0.00  0.00    +0.000 C 
ATOM     29  O   UNK A   0       1.559  11.390  18.679  0.00  0.00    +0.000 OA
ATOM     30  N   ARG A   1      -0.089  11.493  20.247  0.00  0.00    +0.000 N 
ATOM     31  H   ARG A   1      -0.522  10.954  20.996  0.00  0.00    +0.000 HD
BRANCH  30  32
ATOM     32  CA  ARG A   1      -0.027  12.951  20.410  0.00  0.00    +0.000 C 
BRANCH  32  33
ATOM     33  C   ARG A   1       0.216  13.268  21.891  0.00  0.00    +0.000 C 
ATOM     34  O   ARG A   1       0.787  14.280  22.276  0.00  0.00    +0.000 OA
BRANCH  33  35
ATOM     35  OXT ARG A   1      -0.227  12.334  22.762  0.00  0.00    +0.000 OA
ATOM     36  HXT ARG A   1      -0.587  12.673  23.604  0.00  0.00    +0.000 HD
ENDBRANCH  33  35
ENDBRANCH  32  33
BRANCH  32  37
ATOM     37  CB  ARG A   1      -1.258  13.673  19.824  0.00  0.00    +0.000 C 
BRANCH  37  38
ATOM     38  CG  ARG A   1      -2.622  13.238  20.366  0.00  0.00    +0.000 C 
BRANCH  38  39
ATOM     39  CD  ARG A   1      -3.455  12.371  19.424  0.00  0.00    +0.000 C 
BRANCH  39  40
ATOM     40  NE  ARG A   1      -2.545  11.600  18.586  0.00  0.00    +0.000 NA
ATOM     41  CZ  ARG A   1      -2.854  11.400  17.358  0.00  0.00    +0.000 C 
ATOM     42  NH1 ARG A   1      -3.910  11.800  16.617  0.00  0.00    +0.000 N 
ATOM     43  NH2 ARG A   1      -2.041  10.636  16.608  0.00  0.00    +0.000 N 
ATOM     44 HH11 ARG A   1      -4.433  12.576  17.004  0.00  0.00    +0.000 HD
ATOM     45 HH12 ARG A   1      -3.642  12.009  15.661  0.00  0.00    +0.000 HD
ATOM     46 HH21 ARG A   1      -1.341  10.203  17.197  0.00  0.00    +0.000 HD
ATOM     47 HH22 ARG A   1      -2.540   9.942  16.069  0.00  0.00    +0.000 HD
ENDBRANCH  39  40
ENDBRANCH  38  39
ENDBRANCH  37  38
ENDBRANCH  32  37
ENDBRANCH  30  32
ENDBRANCH   7  28
TORSDOF 16
ENDMDL
MODEL 6
REMARK VINA RESULT:      -6.4      3.307      9.072
REMARK  Name = 
REMARK  17 active torsions:
REMARK  status: ('A' for Active; 'I' for Inactive)
REMARK    1  A    between atoms: C_1  and  C_2
REMARK    2  A    between atoms: C_2  and  O_3
REMARK    3  A    between atoms: C_2  and  C_4
REMARK    4  A    between atoms: C_4  and  N_5
REMARK    5  A    between atoms: C_4  and  C_6
REMARK    6  A    between atoms: N_8  and  C_9
REMARK    7  A    between atoms: C_9  and  C_10
REMARK    8  A    between atoms: C_16  and  C_17
REMARK    9  A    between atoms: N_19  and  CA_20
REMARK   10  A    between atoms: CA_20  and  CB_21
REMARK   11  A    between atoms: CA_20  and  C_28
REMARK   12  A    between atoms: CB_21  and  CG_22
REMARK   13  A    between atoms: CG_22  and  CD_23
REMARK   14  A    between atoms: CD_23  and  NE_24
REMARK   15  A    between atoms: C_28  and  OXT_30
REMARK   16  A    between atoms: C_32  and  C_33
REMARK   17  A    between atoms: C_33  and  N_34
REMARK                            x       y       z     vdW  Elec       q    Type
REMARK                         _______ _______ _______ _____ _____    ______ ____
ROOT
ATOM      1  C   UNK A   0       2.356   7.894  18.703  0.00  0.00    +0.000 C 
ATOM      2  O   UNK A   0       2.363   8.475  17.599  0.00  0.00    +0.000 OA
ATOM      3  N   UNK A   0       1.784   8.593  19.771  0.00  0.00    +0.000 N 
ATOM      4  C   UNK A   0       1.809   8.255  21.176  0.00  0.00    +0.000 C 
ATOM      5  C   UNK A   0       0.351   7.955  21.472  0.00  0.00    +0.000 C 
ATOM      6  C   UNK A   0      -0.391   9.019  20.660  0.00  0.00    +0.000 C 
ATOM      7  C   UNK A   0       0.552   9.365  19.488  0.00  0.00    +0.000 C 
ENDROOT
BRANCH   1   8
ATOM      8  C   UNK A   0       2.848   6.356  18.795  0.00  0.00    +0.000 C 
ATOM      9  C   UNK A   0       2.879   5.486  20.095  0.00  0.00    +0.000 C 
ATOM     10  C   UNK A   0       1.965   4.424  19.447  0.00  0.00    +0.000 C 
ATOM     11  C   UNK A   0       1.634   5.436  18.345  0.00  0.00    +0.000 C 
BRANCH   8  14
ATOM     12  C   UNK A   0       5.276   5.663  18.237  0.00  0.00    +0.000 C 
ATOM     13  O   UNK A   0       5.594   5.386  19.389  0.00  0.00    +0.000 OA
ATOM     14  N   UNK A   0       4.009   6.075  17.863  0.00  0.00    +0.000 N 
ATOM     15  H   UNK A   0       3.972   6.481  16.926  0.00  0.00    +0.000 HD
BRANCH  12  16
ATOM     16  C   UNK A   0       6.260   5.606  17.027  0.00  0.00    +0.000 C 
BRANCH  16  17
ATOM     17  N   UNK A   0       7.141   4.416  17.245  0.00  0.00    +0.000 NA
ATOM     18  H   UNK A   0       7.521   4.487  18.194  0.00  0.00    +0.000 HD
ATOM     19  H   UNK A   0       7.987   4.538  16.680  0.00  0.00    +0.000 HD
ENDBRANCH  16  17
BRANCH  16  21
ATOM     20  C   UNK A   0       6.378   4.833  14.527  0.00  0.00    +0.000 C 
ATOM     21  C   UNK A   0       5.588   5.529  15.631  0.00  0.00    +0.000 C 
BRANCH  21  22
ATOM     22  O   UNK A   0       5.208   6.834  15.188  0.00  0.00    +0.000 OA
ATOM     23  H   UNK A   0       4.628   6.706  14.413  0.00  0.00    +0.000 HD
ENDBRANCH  21  22
ENDBRANCH  16  21
ENDBRANCH  12  16
ENDBRANCH   8  14
BRANCH  10  24
ATOM     24  C   UNK A   0       0.725   3.954  20.207  0.00  0.00    +0.000 C 
BRANCH  24  25
ATOM     25  N   UNK A   0       1.022   2.858  21.119  0.00  0.00    +0.000 NA
ATOM     26  H   UNK A   0       0.386   2.080  20.961  0.00  0.00    +0.000 HD
ATOM     27  H   UNK A   0       0.899   3.156  22.085  0.00  0.00    +0.000 HD
ENDBRANCH  24  25
ENDBRANCH  10  24
ENDBRANCH   1   8
BRANCH   7  28
ATOM     28  C   UNK A   0       0.665  10.903  19.363  0.00  0.00    +0.000 C 
ATOM     29  O   UNK A   0       1.258  11.430  18.421  0.00  0.00    +0.000 OA
ATOM     30  N   ARG A   1       0.024  11.645  20.322  0.00  0.00    +0.000 N 
ATOM     31  H   ARG A   1      -0.221  11.157  21.182  0.00  0.00    +0.000 HD
BRANCH  30  32
ATOM     32  CA  ARG A   1       0.120  13.110  20.378  0.00  0.00    +0.000 C 
BRANCH  32  33
ATOM     33  C   ARG A   1       1.298  13.488  21.285  0.00  0.00    +0.000 C 
ATOM     34  O   ARG A   1       2.437  13.075  21.111  0.00  0.00    +0.000 OA
BRANCH  33  35
ATOM     35  OXT ARG A   1       0.992  14.302  22.320  0.00  0.00    +0.000 OA
ATOM     36  HXT ARG A   1       1.677  14.954  22.566  0.00  0.00    +0.000 HD
ENDBRANCH  33  35
ENDBRANCH  32  33
BRANCH  32  37
ATOM     37  CB  ARG A   1      -1.207  13.783  20.787  0.00  0.00    +0.000 C 
BRANCH  37  38
ATOM     38  CG  ARG A   1      -2.243  12.884  21.468  0.00  0.00    +0.000 C 
BRANCH  38  39
ATOM     39  CD  ARG A   1      -2.103  12.756  22.983  0.00  0.00    +0.000 C 
BRANCH  39  40
ATOM     40  NE  ARG A   1      -3.292  12.090  23.499  0.00  0.00    +0.000 NA
ATOM     41  CZ  ARG A   1      -4.022  12.701  24.357  0.00  0.00    +0.000 C 
ATOM     42  NH1 ARG A   1      -3.928  13.931  24.907  0.00  0.00    +0.000 N 
ATOM     43  NH2 ARG A   1      -5.081  12.055  24.874  0.00  0.00    +0.000 N 
ATOM     44 HH11 ARG A   1      -3.333  14.579  24.406  0.00  0.00    +0.000 HD
ATOM     45 HH12 ARG A   1      -4.842  14.348  25.056  0.00  0.00    +0.000 HD
ATOM     46 HH21 ARG A   1      -5.060  11.084  24.591  0.00  0.00    +0.000 HD
ATOM     47 HH22 ARG A   1      -5.139  12.137  25.881  0.00  0.00    +0.000 HD
ENDBRANCH  39  40
ENDBRANCH  38  39
ENDBRANCH  37  38
ENDBRANCH  32  37
ENDBRANCH  30  32
ENDBRANCH   7  28
TORSDOF 16
ENDMDL
MODEL 7
REMARK VINA RESULT:      -6.3      1.682      4.120
REMARK  Name = 
REMARK  17 active torsions:
REMARK  status: ('A' for Active; 'I' for Inactive)
REMARK    1  A    between atoms: C_1  and  C_2
REMARK    2  A    between atoms: C_2  and  O_3
REMARK    3  A    between atoms: C_2  and  C_4
REMARK    4  A    between atoms: C_4  and  N_5
REMARK    5  A    between atoms: C_4  and  C_6
REMARK    6  A    between atoms: N_8  and  C_9
REMARK    7  A    between atoms: C_9  and  C_10
REMARK    8  A    between atoms: C_16  and  C_17
REMARK    9  A    between atoms: N_19  and  CA_20
REMARK   10  A    between atoms: CA_20  and  CB_21
REMARK   11  A    between atoms: CA_20  and  C_28
REMARK   12  A    between atoms: CB_21  and  CG_22
REMARK   13  A    between atoms: CG_22  and  CD_23
REMARK   14  A    between atoms: CD_23  and  NE_24
REMARK   15  A    between atoms: C_28  and  OXT_30
REMARK   16  A    between atoms: C_32  and  C_33
REMARK   17  A    between atoms: C_33  and  N_34
REMARK                            x       y       z     vdW  Elec       q    Type
REMARK                         _______ _______ _______ _____ _____    ______ ____
ROOT
ATOM      1  C   UNK A   0       0.252  10.076  19.056  0.00  0.00    +0.000 C 
ATOM      2  O   UNK A   0       1.006   9.729  18.125  0.00  0.00    +0.000 OA
ATOM      3  N   UNK A   0       0.242   9.254  20.187  0.00  0.00    +0.000 N 
ATOM      4  C   UNK A   0      -0.658   9.300  21.317  0.00  0.00    +0.000 C 
ATOM      5  C   UNK A   0       0.259   9.710  22.455  0.00  0.00    +0.000 C 
ATOM      6  C   UNK A   0       1.540   8.927  22.164  0.00  0.00    +0.000 C 
ATOM      7  C   UNK A   0       1.544   8.709  20.636  0.00  0.00    +0.000 C 
ENDROOT
BRANCH   1   8
ATOM      8  C   UNK A   0      -0.522  11.494  18.967  0.00  0.00    +0.000 C 
ATOM      9  C   UNK A   0      -1.383  11.986  17.758  0.00  0.00    +0.000 C 
ATOM     10  C   UNK A   0      -2.620  12.162  18.666  0.00  0.00    +0.000 C 
ATOM     11  C   UNK A   0      -1.901  11.337  19.739  0.00  0.00    +0.000 C 
BRANCH   8  14
ATOM     12  C   UNK A   0       1.409  13.203  19.152  0.00  0.00    +0.000 C 
ATOM     13  O   UNK A   0       1.902  12.953  18.057  0.00  0.00    +0.000 OA
ATOM     14  N   UNK A   0       0.257  12.608  19.635  0.00  0.00    +0.000 N 
ATOM     15  H   UNK A   0       0.113  12.751  20.636  0.00  0.00    +0.000 HD
BRANCH  12  16
ATOM     16  C   UNK A   0       2.020  14.218  20.168  0.00  0.00    +0.000 C 
BRANCH  16  17
ATOM     17  N   UNK A   0       2.631  13.409  21.269  0.00  0.00    +0.000 NA
ATOM     18  H   UNK A   0       2.898  12.503  20.871  0.00  0.00    +0.000 HD
ATOM     19  H   UNK A   0       1.884  13.132  21.914  0.00  0.00    +0.000 HD
ENDBRANCH  16  17
BRANCH  16  21
ATOM     20  C   UNK A   0       2.530  16.340  18.720  0.00  0.00    +0.000 C 
ATOM     21  C   UNK A   0       3.067  15.199  19.577  0.00  0.00    +0.000 C 
BRANCH  21  22
ATOM     22  O   UNK A   0       4.060  14.482  18.840  0.00  0.00    +0.000 OA
ATOM     23  H   UNK A   0       3.928  14.712  17.900  0.00  0.00    +0.000 HD
ENDBRANCH  21  22
ENDBRANCH  16  21
ENDBRANCH  12  16
ENDBRANCH   8  14
BRANCH  10  24
ATOM     24  C   UNK A   0      -3.947  11.539  18.236  0.00  0.00    +0.000 C 
BRANCH  24  25
ATOM     25  N   UNK A   0      -4.996  12.537  18.077  0.00  0.00    +0.000 NA
ATOM     26  H   UNK A   0      -4.690  13.280  17.452  0.00  0.00    +0.000 HD
ATOM     27  H   UNK A   0      -5.214  12.969  18.972  0.00  0.00    +0.000 HD
ENDBRANCH  24  25
ENDBRANCH  10  24
ENDBRANCH   1   8
BRANCH   7  28
ATOM     28  C   UNK A   0       1.859   7.225  20.335  0.00  0.00    +0.000 C 
ATOM     29  O   UNK A   0       1.479   6.321  21.081  0.00  0.00    +0.000 OA
ATOM     30  N   ARG A   1       2.531   6.965  19.167  0.00  0.00    +0.000 N 
ATOM     31  H   ARG A   1       3.020   7.752  18.743  0.00  0.00    +0.000 HD
BRANCH  30  32
ATOM     32  CA  ARG A   1       2.973   5.614  18.797  0.00  0.00    +0.000 C 
BRANCH  32  33
ATOM     33  C   ARG A   1       4.393   5.704  18.222  0.00  0.00    +0.000 C 
ATOM     34  O   ARG A   1       4.702   6.468  17.317  0.00  0.00    +0.000 OA
BRANCH  33  35
ATOM     35  OXT ARG A   1       5.293   4.857  18.770  0.00  0.00    +0.000 OA
ATOM     36  HXT ARG A   1       5.433   4.018  18.292  0.00  0.00    +0.000 HD
ENDBRANCH  33  35
ENDBRANCH  32  33
BRANCH  32  37
ATOM     37  CB  ARG A   1       1.979   4.893  17.862  0.00  0.00    +0.000 C 
BRANCH  37  38
ATOM     38  CG  ARG A   1       2.495   3.629  17.168  0.00  0.00    +0.000 C 
BRANCH  38  39
ATOM     39  CD  ARG A   1       2.345   2.336  17.967  0.00  0.00    +0.000 C 
BRANCH  39  40
ATOM     40  NE  ARG A   1       3.649   1.979  18.510  0.00  0.00    +0.000 NA
ATOM     41  CZ  ARG A   1       3.872   2.160  19.759  0.00  0.00    +0.000 C 
ATOM     42  NH1 ARG A   1       3.088   2.625  20.756  0.00  0.00    +0.000 N 
ATOM     43  NH2 ARG A   1       5.097   1.886  20.239  0.00  0.00    +0.000 N 
ATOM     44 HH11 ARG A   1       2.095   2.613  20.560  0.00  0.00    +0.000 HD
ATOM     45 HH12 ARG A   1       3.271   2.148  21.633  0.00  0.00    +0.000 HD
ATOM     46 HH21 ARG A   1       5.729   1.695  19.472  0.00  0.00    +0.000 HD
ATOM     47 HH22 ARG A   1       5.460   2.620  20.833  0.00  0.00    +0.000 HD
ENDBRANCH  39  40
ENDBRANCH  38  39
ENDBRANCH  37  38
ENDBRANCH  32  37
ENDBRANCH  30  32
ENDBRANCH   7  28
TORSDOF 16
ENDMDL
MODEL 8
REMARK VINA RESULT:      -6.3      2.026      3.002
REMARK  Name = 
REMARK  17 active torsions:
REMARK  status: ('A' for Active; 'I' for Inactive)
REMARK    1  A    between atoms: C_1  and  C_2
REMARK    2  A    between atoms: C_2  and  O_3
REMARK    3  A    between atoms: C_2  and  C_4
REMARK    4  A    between atoms: C_4  and  N_5
REMARK    5  A    between atoms: C_4  and  C_6
REMARK    6  A    between atoms: N_8  and  C_9
REMARK    7  A    between atoms: C_9  and  C_10
REMARK    8  A    between atoms: C_16  and  C_17
REMARK    9  A    between atoms: N_19  and  CA_20
REMARK   10  A    between atoms: CA_20  and  CB_21
REMARK   11  A    between atoms: CA_20  and  C_28
REMARK   12  A    between atoms: CB_21  and  CG_22
REMARK   13  A    between atoms: CG_22  and  CD_23
REMARK   14  A    between atoms: CD_23  and  NE_24
REMARK   15  A    between atoms: C_28  and  OXT_30
REMARK   16  A    between atoms: C_32  and  C_33
REMARK   17  A    between atoms: C_33  and  N_34
REMARK                            x       y       z     vdW  Elec       q    Type
REMARK                         _______ _______ _______ _____ _____    ______ ____
ROOT
ATOM      1  C   UNK A   0       1.177  10.020  18.821  0.00  0.00    +0.000 C 
ATOM      2  O   UNK A   0       2.079   9.680  18.030  0.00  0.00    +0.000 OA
ATOM      3  N   UNK A   0       0.815   9.080  19.792  0.00  0.00    +0.000 N 
ATOM      4  C   UNK A   0      -0.309   9.122  20.700  0.00  0.00    +0.000 C 
ATOM      5  C   UNK A   0       0.364   9.258  22.053  0.00  0.00    +0.000 C 
ATOM      6  C   UNK A   0       1.580   8.338  21.928  0.00  0.00    +0.000 C 
ATOM      7  C   UNK A   0       1.908   8.304  20.421  0.00  0.00    +0.000 C 
ENDROOT
BRANCH   1   8
ATOM      8  C   UNK A   0       0.612  11.535  18.780  0.00  0.00    +0.000 C 
ATOM      9  C   UNK A   0       0.678  12.563  19.958  0.00  0.00    +0.000 C 
ATOM     10  C   UNK A   0       1.452  13.571  19.081  0.00  0.00    +0.000 C 
ATOM     11  C   UNK A   0       1.715  12.439  18.080  0.00  0.00    +0.000 C 
BRANCH   8  14
ATOM     12  C   UNK A   0      -1.951  11.635  18.461  0.00  0.00    +0.000 C 
ATOM     13  O   UNK A   0      -2.226  11.624  19.657  0.00  0.00    +0.000 OA
ATOM     14  N   UNK A   0      -0.659  11.644  17.965  0.00  0.00    +0.000 N 
ATOM     15  H   UNK A   0      -0.603  11.422  16.970  0.00  0.00    +0.000 HD
BRANCH  12  16
ATOM     16  C   UNK A   0      -3.020  11.625  17.325  0.00  0.00    +0.000 C 
BRANCH  16  17
ATOM     17  N   UNK A   0      -2.273  11.512  16.032  0.00  0.00    +0.000 NA
ATOM     18  H   UNK A   0      -2.812  10.889  15.421  0.00  0.00    +0.000 HD
ATOM     19  H   UNK A   0      -1.432  10.950  16.199  0.00  0.00    +0.000 HD
ENDBRANCH  16  17
BRANCH  16  21
ATOM     20  C   UNK A   0      -5.363  10.838  18.193  0.00  0.00    +0.000 C 
ATOM     21  C   UNK A   0      -4.087  10.503  17.428  0.00  0.00    +0.000 C 
BRANCH  21  22
ATOM     22  O   UNK A   0      -3.508   9.315  17.974  0.00  0.00    +0.000 OA
ATOM     23  H   UNK A   0      -4.040   9.083  18.760  0.00  0.00    +0.000 HD
ENDBRANCH  21  22
ENDBRANCH  16  21
ENDBRANCH  12  16
ENDBRANCH   8  14
BRANCH  10  24
ATOM     24  C   UNK A   0       2.741  14.186  19.625  0.00  0.00    +0.000 C 
BRANCH  24  25
ATOM     25  N   UNK A   0       2.890  15.581  19.236  0.00  0.00    +0.000 NA
ATOM     26  H   UNK A   0       2.000  16.070  19.313  0.00  0.00    +0.000 HD
ATOM     27  H   UNK A   0       3.186  15.651  18.264  0.00  0.00    +0.000 HD
ENDBRANCH  24  25
ENDBRANCH  10  24
ENDBRANCH   1   8
BRANCH   7  28
ATOM     28  C   UNK A   0       2.111   6.836  19.977  0.00  0.00    +0.000 C 
ATOM     29  O   UNK A   0       1.722   5.894  20.669  0.00  0.00    +0.000 OA
ATOM     30  N   ARG A   1       2.696   6.640  18.751  0.00  0.00    +0.000 N 
ATOM     31  H   ARG A   1       3.207   7.432  18.363  0.00  0.00    +0.000 HD
BRANCH  30  32
ATOM     32  CA  ARG A   1       3.030   5.303  18.243  0.00  0.00    +0.000 C 
BRANCH  32  33
ATOM     33  C   ARG A   1       1.737   4.487  18.125  0.00  0.00    +0.000 C 
ATOM     34  O   ARG A   1       0.959   4.595  17.186  0.00  0.00    +0.000 OA
BRANCH  33  35
ATOM     35  OXT ARG A   1       1.491   3.643  19.153  0.00  0.00    +0.000 OA
ATOM     36  HXT ARG A   1       0.875   3.971  19.835  0.00  0.00    +0.000 HD
ENDBRANCH  33  35
ENDBRANCH  32  33
BRANCH  32  37
ATOM     37  CB  ARG A   1       4.123   4.601  19.075  0.00  0.00    +0.000 C 
BRANCH  37  38
ATOM     38  CG  ARG A   1       5.466   5.328  19.186  0.00  0.00    +0.000 C 
BRANCH  38  39
ATOM     39  CD  ARG A   1       6.154   5.637  17.858  0.00  0.00    +0.000 C 
BRANCH  39  40
ATOM     40  NE  ARG A   1       5.975   4.494  16.972  0.00  0.00    +0.000 NA
ATOM     41  CZ  ARG A   1       6.562   4.495  15.832  0.00  0.00    +0.000 C 
ATOM     42  NH1 ARG A   1       7.390   5.387  15.246  0.00  0.00    +0.000 N 
ATOM     43  NH2 ARG A   1       6.341   3.466  14.996  0.00  0.00    +0.000 N 
ATOM     44 HH11 ARG A   1       7.817   6.053  15.878  0.00  0.00    +0.000 HD
ATOM     45 HH12 ARG A   1       8.108   4.928  14.694  0.00  0.00    +0.000 HD
ATOM     46 HH21 ARG A   1       5.599   2.883  15.361  0.00  0.00    +0.000 HD
ATOM     47 HH22 ARG A   1       6.136   3.765  14.052  0.00  0.00    +0.000 HD
ENDBRANCH  39  40
ENDBRANCH  38  39
ENDBRANCH  37  38
ENDBRANCH  32  37
ENDBRANCH  30  32
ENDBRANCH   7  28
TORSDOF 16
ENDMDL
MODEL 9
REMARK VINA RESULT:      -6.2      2.594      8.750
REMARK  Name = 
REMARK  17 active torsions:
REMARK  status: ('A' for Active; 'I' for Inactive)
REMARK    1  A    between atoms: C_1  and  C_2
REMARK    2  A    between atoms: C_2  and  O_3
REMARK    3  A    between atoms: C_2  and  C_4
REMARK    4  A    between atoms: C_4  and  N_5
REMARK    5  A    between atoms: C_4  and  C_6
REMARK    6  A    between atoms: N_8  and  C_9
REMARK    7  A    between atoms: C_9  and  C_10
REMARK    8  A    between atoms: C_16  and  C_17
REMARK    9  A    between atoms: N_19  and  CA_20
REMARK   10  A    between atoms: CA_20  and  CB_21
REMARK   11  A    between atoms: CA_20  and  C_28
REMARK   12  A    between atoms: CB_21  and  CG_22
REMARK   13  A    between atoms: CG_22  and  CD_23
REMARK   14  A    between atoms: CD_23  and  NE_24
REMARK   15  A    between atoms: C_28  and  OXT_30
REMARK   16  A    between atoms: C_32  and  C_33
REMARK   17  A    between atoms: C_33  and  N_34
REMARK                            x       y       z     vdW  Elec       q    Type
REMARK                         _______ _______ _______ _____ _____    ______ ____
ROOT
ATOM      1  C   UNK A   0       2.293   8.160  18.481  0.00  0.00    +0.000 C 
ATOM      2  O   UNK A   0       2.291   8.755  17.386  0.00  0.00    +0.000 OA
ATOM      3  N   UNK A   0       1.688   8.825  19.553  0.00  0.00    +0.000 N 
ATOM      4  C   UNK A   0       1.712   8.470  20.954  0.00  0.00    +0.000 C 
ATOM      5  C   UNK A   0       0.261   8.119  21.231  0.00  0.00    +0.000 C 
ATOM      6  C   UNK A   0      -0.507   9.169  20.427  0.00  0.00    +0.000 C 
ATOM      7  C   UNK A   0       0.434   9.560  19.268  0.00  0.00    +0.000 C 
ENDROOT
BRANCH   1   8
ATOM      8  C   UNK A   0       2.834   6.637  18.558  0.00  0.00    +0.000 C 
ATOM      9  C   UNK A   0       3.065   5.818  19.871  0.00  0.00    +0.000 C 
ATOM     10  C   UNK A   0       2.100   4.712  19.392  0.00  0.00    +0.000 C 
ATOM     11  C   UNK A   0       1.595   5.675  18.311  0.00  0.00    +0.000 C 
BRANCH   8  14
ATOM     12  C   UNK A   0       5.188   6.005  17.697  0.00  0.00    +0.000 C 
ATOM     13  O   UNK A   0       5.677   5.807  18.805  0.00  0.00    +0.000 OA
ATOM     14  N   UNK A   0       3.864   6.347  17.486  0.00  0.00    +0.000 N 
ATOM     15  H   UNK A   0       3.678   6.696  16.545  0.00  0.00    +0.000 HD
BRANCH  12  16
ATOM     16  C   UNK A   0       5.994   5.915  16.364  0.00  0.00    +0.000 C 
BRANCH  16  17
ATOM     17  N   UNK A   0       7.308   6.590  16.610  0.00  0.00    +0.000 NA
ATOM     18  H   UNK A   0       7.916   6.374  15.813  0.00  0.00    +0.000 HD
ATOM     19  H   UNK A   0       7.785   6.091  17.368  0.00  0.00    +0.000 HD
ENDBRANCH  16  17
BRANCH  16  21
ATOM     20  C   UNK A   0       5.866   4.234  14.360  0.00  0.00    +0.000 C 
ATOM     21  C   UNK A   0       6.221   4.479  15.822  0.00  0.00    +0.000 C 
BRANCH  21  22
ATOM     22  O   UNK A   0       5.540   3.525  16.640  0.00  0.00    +0.000 OA
ATOM     23  H   UNK A   0       4.893   4.027  17.173  0.00  0.00    +0.000 HD
ENDBRANCH  21  22
ENDBRANCH  16  21
ENDBRANCH  12  16
ENDBRANCH   8  14
BRANCH  10  24
ATOM     24  C   UNK A   0       0.988   4.245  20.330  0.00  0.00    +0.000 C 
BRANCH  24  25
ATOM     25  N   UNK A   0       0.991   2.800  20.508  0.00  0.00    +0.000 NA
ATOM     26  H   UNK A   0       0.435   2.538  21.320  0.00  0.00    +0.000 HD
ATOM     27  H   UNK A   0       1.938   2.464  20.672  0.00  0.00    +0.000 HD
ENDBRANCH  24  25
ENDBRANCH  10  24
ENDBRANCH   1   8
BRANCH   7  28
ATOM     28  C   UNK A   0       0.498  11.103  19.164  0.00  0.00    +0.000 C 
ATOM     29  O   UNK A   0      -0.438  11.757  18.701  0.00  0.00    +0.000 OA
ATOM     30  N   ARG A   1       1.625  11.705  19.664  0.00  0.00    +0.000 N 
ATOM     31  H   ARG A   1       2.439  11.105  19.793  0.00  0.00    +0.000 HD
BRANCH  30  32
ATOM     32  CA  ARG A   1       1.860  13.151  19.552  0.00  0.00    +0.000 C 
BRANCH  32  33
ATOM     33  C   ARG A   1       2.892  13.394  18.442  0.00  0.00    +0.000 C 
ATOM     34  O   ARG A   1       3.792  14.218  18.533  0.00  0.00    +0.000 OA
BRANCH  33  35
ATOM     35  OXT ARG A   1       2.728  12.646  17.328  0.00  0.00    +0.000 OA
ATOM     36  HXT ARG A   1       2.346  13.108  16.558  0.00  0.00    +0.000 HD
ENDBRANCH  33  35
ENDBRANCH  32  33
BRANCH  32  37
ATOM     37  CB  ARG A   1       2.245  13.802  20.897  0.00  0.00    +0.000 C 
BRANCH  37  38
ATOM     38  CG  ARG A   1       1.531  15.110  21.248  0.00  0.00    +0.000 C 
BRANCH  38  39
ATOM     39  CD  ARG A   1       0.172  14.952  21.926  0.00  0.00    +0.000 C 
BRANCH  39  40
ATOM     40  NE  ARG A   1       0.116  13.633  22.541  0.00  0.00    +0.000 NA
ATOM     41  CZ  ARG A   1      -0.829  12.833  22.210  0.00  0.00    +0.000 C 
ATOM     42  NH1 ARG A   1      -1.845  12.955  21.328  0.00  0.00    +0.000 N 
ATOM     43  NH2 ARG A   1      -0.909  11.642  22.828  0.00  0.00    +0.000 N 
ATOM     44 HH11 ARG A   1      -1.727  13.688  20.639  0.00  0.00    +0.000 HD
ATOM     45 HH12 ARG A   1      -2.048  12.076  20.863  0.00  0.00    +0.000 HD
ATOM     46 HH21 ARG A   1      -0.253  11.613  23.598  0.00  0.00    +0.000 HD
ATOM     47 HH22 ARG A   1      -1.845  11.424  23.141  0.00  0.00    +0.000 HD
ENDBRANCH  39  40
ENDBRANCH  38  39
ENDBRANCH  37  38
ENDBRANCH  32  37
ENDBRANCH  30  32
ENDBRANCH   7  28
TORSDOF 16
ENDMDL
