MODEL 1
REMARK VINA RESULT:      -7.4      0.000      0.000
REMARK  Name = 
REMARK  8 active torsions:
REMARK  status: ('A' for Active; 'I' for Inactive)
REMARK    1  A    between atoms: C_2  and  O_3
REMARK    2  A    between atoms: C_2  and  C_21
REMARK    3  A    between atoms: O_3  and  C_4
REMARK    4  A    between atoms: C_4  and  C_5
REMARK    5  A    between atoms: C_5  and  O_6
REMARK    6  A    between atoms: O_6  and  C_7
REMARK    7  A    between atoms: C_7  and  C_8
REMARK    8  A    between atoms: C_8  and  N_9
REMARK                            x       y       z     vdW  Elec       q    Type
REMARK                         _______ _______ _______ _____ _____    ______ ____
ROOT
ATOM      1  C   UNL     1       2.371   2.460  18.453  0.00  0.00    +0.000 C 
ENDROOT
BRANCH   1   2
ATOM      2  O   UNL     1       2.091   1.770  19.680  0.00  0.00    +0.000 OA
BRANCH   2   3
ATOM      3  C   UNL     1       1.275   2.574  20.544  0.00  0.00    +0.000 C 
BRANCH   3   4
ATOM      4  C   UNL     1       0.976   3.943  19.915  0.00  0.00    +0.000 C 
BRANCH   4   5
ATOM      5  O   UNL     1       1.210   5.097  20.746  0.00  0.00    +0.000 OA
BRANCH   5   7
ATOM      6  O   UNL     1       3.284   5.632  19.982  0.00  0.00    +0.000 OA
ATOM      7  C   UNL     1       2.141   5.962  20.281  0.00  0.00    +0.000 C 
BRANCH   7   8
ATOM      8  C   UNL     1       1.716   7.400  20.225  0.00  0.00    +0.000 A 
ATOM      9  C   UNL     1       1.080   7.857  21.401  0.00  0.00    +0.000 A 
ATOM     10  C   UNL     1       0.452   9.098  21.458  0.00  0.00    +0.000 A 
ATOM     11  C   UNL     1       0.470   9.923  20.343  0.00  0.00    +0.000 A 
ATOM     12  C   UNL     1       1.207   9.546  19.218  0.00  0.00    +0.000 A 
ATOM     13  C   UNL     1       1.860   8.302  19.161  0.00  0.00    +0.000 A 
ATOM     14 BR   UNL     1       2.951   8.029  17.629  0.00  0.00    +0.000 Br
ENDBRANCH   7   8
ENDBRANCH   5   7
ENDBRANCH   4   5
ENDBRANCH   3   4
ENDBRANCH   2   3
ENDBRANCH   1   2
BRANCH   1  15
ATOM     15  C   UNL     1       3.858   2.338  18.085  0.00  0.00    +0.000 C 
BRANCH  15  16
ATOM     16  N   UNL     1       4.761   3.437  18.471  0.00  0.00    +0.000 N 
ATOM     17  C   UNL     1       5.244   4.439  17.664  0.00  0.00    +0.000 C 
ATOM     18  N   UNL     1       4.904   4.595  16.416  0.00  0.00    +0.000 NA
ATOM     19  S   UNL     1       5.770   5.784  15.708  0.00  0.00    +0.000 S 
ATOM     20  O   UNL     1       4.912   6.832  15.225  0.00  0.00    +0.000 OA
ATOM     21  O   UNL     1       6.882   5.247  14.978  0.00  0.00    +0.000 OA
ATOM     22  C   UNL     1       6.534   6.322  17.142  0.00  0.00    +0.000 A 
ATOM     23  C   UNL     1       7.570   7.245  17.161  0.00  0.00    +0.000 A 
ATOM     24  C   UNL     1       8.306   7.319  18.330  0.00  0.00    +0.000 A 
ATOM     25  C   UNL     1       7.984   6.483  19.419  0.00  0.00    +0.000 A 
ATOM     26  C   UNL     1       6.943   5.536  19.344  0.00  0.00    +0.000 A 
ATOM     27  C   UNL     1       6.233   5.447  18.161  0.00  0.00    +0.000 A 
ATOM     28  H   UNL     1       5.242   3.262  19.345  0.00  0.00    +0.000 HD
ENDBRANCH  15  16
ENDBRANCH   1  15
TORSDOF 8
ENDMDL
MODEL 2
REMARK VINA RESULT:      -7.0      5.104      6.913
REMARK  Name = 
REMARK  8 active torsions:
REMARK  status: ('A' for Active; 'I' for Inactive)
REMARK    1  A    between atoms: C_2  and  O_3
REMARK    2  A    between atoms: C_2  and  C_21
REMARK    3  A    between atoms: O_3  and  C_4
REMARK    4  A    between atoms: C_4  and  C_5
REMARK    5  A    between atoms: C_5  and  O_6
REMARK    6  A    between atoms: O_6  and  C_7
REMARK    7  A    between atoms: C_7  and  C_8
REMARK    8  A    between atoms: C_8  and  N_9
REMARK                            x       y       z     vdW  Elec       q    Type
REMARK                         _______ _______ _______ _____ _____    ______ ____
ROOT
ATOM      1  C   UNL     1       7.319   7.522  17.079  0.00  0.00    +0.000 C 
ENDROOT
BRANCH   1   2
ATOM      2  O   UNL     1       7.754   6.154  17.124  0.00  0.00    +0.000 OA
BRANCH   2   3
ATOM      3  C   UNL     1       6.968   5.340  16.240  0.00  0.00    +0.000 C 
BRANCH   3   4
ATOM      4  C   UNL     1       6.055   4.386  17.023  0.00  0.00    +0.000 C 
BRANCH   4   5
ATOM      5  O   UNL     1       4.820   4.940  17.518  0.00  0.00    +0.000 OA
BRANCH   5   7
ATOM      6  O   UNL     1       5.564   5.270  19.641  0.00  0.00    +0.000 OA
ATOM      7  C   UNL     1       4.680   4.924  18.863  0.00  0.00    +0.000 C 
BRANCH   7   8
ATOM      8  C   UNL     1       3.381   4.370  19.372  0.00  0.00    +0.000 A 
ATOM      9  C   UNL     1       2.563   5.325  20.015  0.00  0.00    +0.000 A 
ATOM     10  C   UNL     1       1.417   4.955  20.713  0.00  0.00    +0.000 A 
ATOM     11  C   UNL     1       1.051   3.619  20.762  0.00  0.00    +0.000 A 
ATOM     12  C   UNL     1       1.772   2.678  20.023  0.00  0.00    +0.000 A 
ATOM     13  C   UNL     1       2.919   3.048  19.299  0.00  0.00    +0.000 A 
ATOM     14 BR   UNL     1       3.673   1.678  18.220  0.00  0.00    +0.000 Br
ENDBRANCH   7   8
ENDBRANCH   5   7
ENDBRANCH   4   5
ENDBRANCH   3   4
ENDBRANCH   2   3
ENDBRANCH   1   2
BRANCH   1  15
ATOM     15  C   UNL     1       8.083   8.370  18.107  0.00  0.00    +0.000 C 
BRANCH  15  16
ATOM     16  N   UNL     1       8.180   9.823  17.875  0.00  0.00    +0.000 N 
ATOM     17  C   UNL     1       8.995  10.716  18.527  0.00  0.00    +0.000 C 
ATOM     18  N   UNL     1       9.872  10.377  19.428  0.00  0.00    +0.000 NA
ATOM     19  S   UNL     1      10.564  11.690  20.108  0.00  0.00    +0.000 S 
ATOM     20  O   UNL     1      11.987  11.693  19.898  0.00  0.00    +0.000 OA
ATOM     21  O   UNL     1       9.929  12.022  21.351  0.00  0.00    +0.000 OA
ATOM     22  C   UNL     1       9.855  12.832  19.048  0.00  0.00    +0.000 A 
ATOM     23  C   UNL     1       9.928  14.204  19.235  0.00  0.00    +0.000 A 
ATOM     24  C   UNL     1       9.034  14.972  18.512  0.00  0.00    +0.000 A 
ATOM     25  C   UNL     1       8.115  14.351  17.641  0.00  0.00    +0.000 A 
ATOM     26  C   UNL     1       8.054  12.950  17.506  0.00  0.00    +0.000 A 
ATOM     27  C   UNL     1       8.930  12.188  18.256  0.00  0.00    +0.000 A 
ATOM     28  H   UNL     1       7.388  10.192  17.363  0.00  0.00    +0.000 HD
ENDBRANCH  15  16
ENDBRANCH   1  15
TORSDOF 8
ENDMDL
MODEL 3
REMARK VINA RESULT:      -6.9      3.004      6.377
REMARK  Name = 
REMARK  8 active torsions:
REMARK  status: ('A' for Active; 'I' for Inactive)
REMARK    1  A    between atoms: C_2  and  O_3
REMARK    2  A    between atoms: C_2  and  C_21
REMARK    3  A    between atoms: O_3  and  C_4
REMARK    4  A    between atoms: C_4  and  C_5
REMARK    5  A    between atoms: C_5  and  O_6
REMARK    6  A    between atoms: O_6  and  C_7
REMARK    7  A    between atoms: C_7  and  C_8
REMARK    8  A    between atoms: C_8  and  N_9
REMARK                            x       y       z     vdW  Elec       q    Type
REMARK                         _______ _______ _______ _____ _____    ______ ____
ROOT
ATOM      1  C   UNL     1       1.413   3.241  20.929  0.00  0.00    +0.000 C 
ENDROOT
BRANCH   1   2
ATOM      2  O   UNL     1       2.176   2.372  20.078  0.00  0.00    +0.000 OA
BRANCH   2   3
ATOM      3  C   UNL     1       1.476   2.115  18.852  0.00  0.00    +0.000 C 
BRANCH   3   4
ATOM      4  C   UNL     1       2.434   2.109  17.651  0.00  0.00    +0.000 C 
BRANCH   4   5
ATOM      5  O   UNL     1       3.712   2.746  17.846  0.00  0.00    +0.000 OA
BRANCH   5   7
ATOM      6  O   UNL     1       2.849   4.841  17.652  0.00  0.00    +0.000 OA
ATOM      7  C   UNL     1       3.768   4.047  17.478  0.00  0.00    +0.000 C 
BRANCH   7   8
ATOM      8  C   UNL     1       5.016   4.461  16.754  0.00  0.00    +0.000 A 
ATOM      9  C   UNL     1       4.912   4.389  15.347  0.00  0.00    +0.000 A 
ATOM     10  C   UNL     1       6.023   4.550  14.523  0.00  0.00    +0.000 A 
ATOM     11  C   UNL     1       7.261   4.812  15.091  0.00  0.00    +0.000 A 
ATOM     12  C   UNL     1       7.358   5.018  16.469  0.00  0.00    +0.000 A 
ATOM     13  C   UNL     1       6.236   4.877  17.305  0.00  0.00    +0.000 A 
ATOM     14 BR   UNL     1       6.514   5.359  19.122  0.00  0.00    +0.000 Br
ENDBRANCH   7   8
ENDBRANCH   5   7
ENDBRANCH   4   5
ENDBRANCH   3   4
ENDBRANCH   2   3
ENDBRANCH   1   2
BRANCH   1  15
ATOM     15  C   UNL     1       2.245   4.464  21.345  0.00  0.00    +0.000 C 
BRANCH  15  16
ATOM     16  N   UNL     1       2.315   5.606  20.415  0.00  0.00    +0.000 N 
ATOM     17  C   UNL     1       1.851   6.881  20.629  0.00  0.00    +0.000 C 
ATOM     18  N   UNL     1       1.323   7.286  21.749  0.00  0.00    +0.000 NA
ATOM     19  S   UNL     1       0.741   8.806  21.618  0.00  0.00    +0.000 S 
ATOM     20  O   UNL     1       1.390   9.690  22.548  0.00  0.00    +0.000 OA
ATOM     21  O   UNL     1      -0.670   8.796  21.359  0.00  0.00    +0.000 OA
ATOM     22  C   UNL     1       1.372   9.101  20.055  0.00  0.00    +0.000 A 
ATOM     23  C   UNL     1       1.050  10.215  19.293  0.00  0.00    +0.000 A 
ATOM     24  C   UNL     1       1.351  10.147  17.945  0.00  0.00    +0.000 A 
ATOM     25  C   UNL     1       1.955   8.988  17.416  0.00  0.00    +0.000 A 
ATOM     26  C   UNL     1       2.235   7.866  18.221  0.00  0.00    +0.000 A 
ATOM     27  C   UNL     1       1.902   7.930  19.561  0.00  0.00    +0.000 A 
ATOM     28  H   UNL     1       2.499   5.324  19.460  0.00  0.00    +0.000 HD
ENDBRANCH  15  16
ENDBRANCH   1  15
TORSDOF 8
ENDMDL
MODEL 4
REMARK VINA RESULT:      -6.9      2.816      6.068
REMARK  Name = 
REMARK  8 active torsions:
REMARK  status: ('A' for Active; 'I' for Inactive)
REMARK    1  A    between atoms: C_2  and  O_3
REMARK    2  A    between atoms: C_2  and  C_21
REMARK    3  A    between atoms: O_3  and  C_4
REMARK    4  A    between atoms: C_4  and  C_5
REMARK    5  A    between atoms: C_5  and  O_6
REMARK    6  A    between atoms: O_6  and  C_7
REMARK    7  A    between atoms: C_7  and  C_8
REMARK    8  A    between atoms: C_8  and  N_9
REMARK                            x       y       z     vdW  Elec       q    Type
REMARK                         _______ _______ _______ _____ _____    ______ ____
ROOT
ATOM      1  C   UNL     1       1.195   3.288  20.133  0.00  0.00    +0.000 C 
ENDROOT
BRANCH   1   2
ATOM      2  O   UNL     1       2.245   2.315  20.015  0.00  0.00    +0.000 OA
BRANCH   2   3
ATOM      3  C   UNL     1       2.390   1.882  18.654  0.00  0.00    +0.000 C 
BRANCH   3   4
ATOM      4  C   UNL     1       3.710   2.381  18.048  0.00  0.00    +0.000 C 
BRANCH   4   5
ATOM      5  O   UNL     1       4.382   3.441  18.755  0.00  0.00    +0.000 OA
BRANCH   5   7
ATOM      6  O   UNL     1       3.346   5.111  17.610  0.00  0.00    +0.000 OA
ATOM      7  C   UNL     1       4.348   4.650  18.148  0.00  0.00    +0.000 C 
BRANCH   7   8
ATOM      8  C   UNL     1       5.656   5.384  18.096  0.00  0.00    +0.000 A 
ATOM      9  C   UNL     1       6.504   5.125  19.195  0.00  0.00    +0.000 A 
ATOM     10  C   UNL     1       7.667   5.859  19.411  0.00  0.00    +0.000 A 
ATOM     11  C   UNL     1       8.020   6.856  18.514  0.00  0.00    +0.000 A 
ATOM     12  C   UNL     1       7.266   7.037  17.352  0.00  0.00    +0.000 A 
ATOM     13  C   UNL     1       6.101   6.285  17.118  0.00  0.00    +0.000 A 
ATOM     14 BR   UNL     1       5.300   6.543  15.414  0.00  0.00    +0.000 Br
ENDBRANCH   7   8
ENDBRANCH   5   7
ENDBRANCH   4   5
ENDBRANCH   3   4
ENDBRANCH   2   3
ENDBRANCH   1   2
BRANCH   1  15
ATOM     15  C   UNL     1       1.686   4.531  20.889  0.00  0.00    +0.000 C 
BRANCH  15  16
ATOM     16  N   UNL     1       1.896   5.773  20.121  0.00  0.00    +0.000 N 
ATOM     17  C   UNL     1       1.591   7.054  20.514  0.00  0.00    +0.000 C 
ATOM     18  N   UNL     1       1.116   7.362  21.687  0.00  0.00    +0.000 NA
ATOM     19  S   UNL     1       0.724   8.945  21.773  0.00  0.00    +0.000 S 
ATOM     20  O   UNL     1       1.474   9.608  22.805  0.00  0.00    +0.000 OA
ATOM     21  O   UNL     1      -0.677   9.142  21.537  0.00  0.00    +0.000 OA
ATOM     22  C   UNL     1       1.387   9.373  20.255  0.00  0.00    +0.000 A 
ATOM     23  C   UNL     1       1.205  10.611  19.657  0.00  0.00    +0.000 A 
ATOM     24  C   UNL     1       1.498  10.692  18.308  0.00  0.00    +0.000 A 
ATOM     25  C   UNL     1       1.956   9.552  17.616  0.00  0.00    +0.000 A 
ATOM     26  C   UNL     1       2.096   8.305  18.256  0.00  0.00    +0.000 A 
ATOM     27  C   UNL     1       1.772   8.225  19.598  0.00  0.00    +0.000 A 
ATOM     28  H   UNL     1       2.046   5.604  19.135  0.00  0.00    +0.000 HD
ENDBRANCH  15  16
ENDBRANCH   1  15
TORSDOF 8
ENDMDL
MODEL 5
REMARK VINA RESULT:      -6.8      3.711      7.048
REMARK  Name = 
REMARK  8 active torsions:
REMARK  status: ('A' for Active; 'I' for Inactive)
REMARK    1  A    between atoms: C_2  and  O_3
REMARK    2  A    between atoms: C_2  and  C_21
REMARK    3  A    between atoms: O_3  and  C_4
REMARK    4  A    between atoms: C_4  and  C_5
REMARK    5  A    between atoms: C_5  and  O_6
REMARK    6  A    between atoms: O_6  and  C_7
REMARK    7  A    between atoms: C_7  and  C_8
REMARK    8  A    between atoms: C_8  and  N_9
REMARK                            x       y       z     vdW  Elec       q    Type
REMARK                         _______ _______ _______ _____ _____    ______ ____
ROOT
ATOM      1  C   UNL     1       3.450   6.604  18.202  0.00  0.00    +0.000 C 
ENDROOT
BRANCH   1   2
ATOM      2  O   UNL     1       4.840   6.907  18.001  0.00  0.00    +0.000 OA
BRANCH   2   3
ATOM      3  C   UNL     1       5.600   5.706  17.798  0.00  0.00    +0.000 C 
BRANCH   3   4
ATOM      4  C   UNL     1       5.602   4.827  19.057  0.00  0.00    +0.000 C 
BRANCH   4   5
ATOM      5  O   UNL     1       5.480   3.406  18.849  0.00  0.00    +0.000 OA
BRANCH   5   7
ATOM      6  O   UNL     1       5.225   1.927  20.557  0.00  0.00    +0.000 OA
ATOM      7  C   UNL     1       4.751   2.748  19.779  0.00  0.00    +0.000 C 
BRANCH   7   8
ATOM      8  C   UNL     1       3.275   3.021  19.756  0.00  0.00    +0.000 A 
ATOM      9  C   UNL     1       2.720   3.280  21.029  0.00  0.00    +0.000 A 
ATOM     10  C   UNL     1       1.344   3.364  21.223  0.00  0.00    +0.000 A 
ATOM     11  C   UNL     1       0.492   3.215  20.139  0.00  0.00    +0.000 A 
ATOM     12  C   UNL     1       1.025   3.092  18.854  0.00  0.00    +0.000 A 
ATOM     13  C   UNL     1       2.415   3.027  18.648  0.00  0.00    +0.000 A 
ATOM     14 BR   UNL     1       2.965   3.031  16.829  0.00  0.00    +0.000 Br
ENDBRANCH   7   8
ENDBRANCH   5   7
ENDBRANCH   4   5
ENDBRANCH   3   4
ENDBRANCH   2   3
ENDBRANCH   1   2
BRANCH   1  15
ATOM     15  C   UNL     1       2.598   7.880  18.129  0.00  0.00    +0.000 C 
BRANCH  15  16
ATOM     16  N   UNL     1       1.765   8.227  19.295  0.00  0.00    +0.000 N 
ATOM     17  C   UNL     1       1.063   9.391  19.498  0.00  0.00    +0.000 C 
ATOM     18  N   UNL     1       0.986  10.355  18.626  0.00  0.00    +0.000 NA
ATOM     19  S   UNL     1       0.204  11.651  19.240  0.00  0.00    +0.000 S 
ATOM     20  O   UNL     1      -0.971  11.958  18.471  0.00  0.00    +0.000 OA
ATOM     21  O   UNL     1       1.133  12.631  19.726  0.00  0.00    +0.000 OA
ATOM     22  C   UNL     1      -0.279  10.891  20.695  0.00  0.00    +0.000 A 
ATOM     23  C   UNL     1      -0.858  11.566  21.760  0.00  0.00    +0.000 A 
ATOM     24  C   UNL     1      -0.874  10.902  22.973  0.00  0.00    +0.000 A 
ATOM     25  C   UNL     1      -0.321   9.609  23.076  0.00  0.00    +0.000 A 
ATOM     26  C   UNL     1       0.286   8.973  21.975  0.00  0.00    +0.000 A 
ATOM     27  C   UNL     1       0.325   9.656  20.774  0.00  0.00    +0.000 A 
ATOM     28  H   UNL     1       1.951   7.641  20.099  0.00  0.00    +0.000 HD
ENDBRANCH  15  16
ENDBRANCH   1  15
TORSDOF 8
ENDMDL
MODEL 6
REMARK VINA RESULT:      -6.8      3.126      6.892
REMARK  Name = 
REMARK  8 active torsions:
REMARK  status: ('A' for Active; 'I' for Inactive)
REMARK    1  A    between atoms: C_2  and  O_3
REMARK    2  A    between atoms: C_2  and  C_21
REMARK    3  A    between atoms: O_3  and  C_4
REMARK    4  A    between atoms: C_4  and  C_5
REMARK    5  A    between atoms: C_5  and  O_6
REMARK    6  A    between atoms: O_6  and  C_7
REMARK    7  A    between atoms: C_7  and  C_8
REMARK    8  A    between atoms: C_8  and  N_9
REMARK                            x       y       z     vdW  Elec       q    Type
REMARK                         _______ _______ _______ _____ _____    ______ ____
ROOT
ATOM      1  C   UNL     1       4.314   7.012  17.156  0.00  0.00    +0.000 C 
ENDROOT
BRANCH   1   2
ATOM      2  O   UNL     1       5.425   6.386  17.816  0.00  0.00    +0.000 OA
BRANCH   2   3
ATOM      3  C   UNL     1       5.006   5.759  19.037  0.00  0.00    +0.000 C 
BRANCH   3   4
ATOM      4  C   UNL     1       5.875   4.536  19.364  0.00  0.00    +0.000 C 
BRANCH   4   5
ATOM      5  O   UNL     1       5.371   3.256  18.934  0.00  0.00    +0.000 OA
BRANCH   5   7
ATOM      6  O   UNL     1       5.221   1.717  20.600  0.00  0.00    +0.000 OA
ATOM      7  C   UNL     1       4.698   2.556  19.875  0.00  0.00    +0.000 C 
BRANCH   7   8
ATOM      8  C   UNL     1       3.219   2.808  19.934  0.00  0.00    +0.000 A 
ATOM      9  C   UNL     1       2.695   2.844  21.245  0.00  0.00    +0.000 A 
ATOM     10  C   UNL     1       1.324   2.874  21.485  0.00  0.00    +0.000 A 
ATOM     11  C   UNL     1       0.445   2.894  20.412  0.00  0.00    +0.000 A 
ATOM     12  C   UNL     1       0.946   2.994  19.112  0.00  0.00    +0.000 A 
ATOM     13  C   UNL     1       2.330   2.984  18.864  0.00  0.00    +0.000 A 
ATOM     14 BR   UNL     1       2.831   3.298  17.058  0.00  0.00    +0.000 Br
ENDBRANCH   7   8
ENDBRANCH   5   7
ENDBRANCH   4   5
ENDBRANCH   3   4
ENDBRANCH   2   3
ENDBRANCH   1   2
BRANCH   1  15
ATOM     15  C   UNL     1       3.050   6.937  18.025  0.00  0.00    +0.000 C 
BRANCH  15  16
ATOM     16  N   UNL     1       2.211   8.145  18.136  0.00  0.00    +0.000 N 
ATOM     17  C   UNL     1       1.613   8.640  19.270  0.00  0.00    +0.000 C 
ATOM     18  N   UNL     1       1.765   8.125  20.457  0.00  0.00    +0.000 NA
ATOM     19  S   UNL     1       0.802   8.859  21.551  0.00  0.00    +0.000 S 
ATOM     20  O   UNL     1       1.577   9.460  22.603  0.00  0.00    +0.000 OA
ATOM     21  O   UNL     1      -0.404   8.111  21.760  0.00  0.00    +0.000 OA
ATOM     22  C   UNL     1       0.256  10.097  20.503  0.00  0.00    +0.000 A 
ATOM     23  C   UNL     1      -0.768  10.978  20.820  0.00  0.00    +0.000 A 
ATOM     24  C   UNL     1      -1.324  11.680  19.766  0.00  0.00    +0.000 A 
ATOM     25  C   UNL     1      -0.844  11.481  18.455  0.00  0.00    +0.000 A 
ATOM     26  C   UNL     1       0.177  10.551  18.174  0.00  0.00    +0.000 A 
ATOM     27  C   UNL     1       0.706   9.831  19.229  0.00  0.00    +0.000 A 
ATOM     28  H   UNL     1       1.865   8.466  17.241  0.00  0.00    +0.000 HD
ENDBRANCH  15  16
ENDBRANCH   1  15
TORSDOF 8
ENDMDL
MODEL 7
REMARK VINA RESULT:      -6.7      3.886      7.413
REMARK  Name = 
REMARK  8 active torsions:
REMARK  status: ('A' for Active; 'I' for Inactive)
REMARK    1  A    between atoms: C_2  and  O_3
REMARK    2  A    between atoms: C_2  and  C_21
REMARK    3  A    between atoms: O_3  and  C_4
REMARK    4  A    between atoms: C_4  and  C_5
REMARK    5  A    between atoms: C_5  and  O_6
REMARK    6  A    between atoms: O_6  and  C_7
REMARK    7  A    between atoms: C_7  and  C_8
REMARK    8  A    between atoms: C_8  and  N_9
REMARK                            x       y       z     vdW  Elec       q    Type
REMARK                         _______ _______ _______ _____ _____    ______ ____
ROOT
ATOM      1  C   UNL     1       3.357   7.215  18.257  0.00  0.00    +0.000 C 
ENDROOT
BRANCH   1   2
ATOM      2  O   UNL     1       3.081   6.392  19.400  0.00  0.00    +0.000 OA
BRANCH   2   3
ATOM      3  C   UNL     1       2.369   5.206  19.016  0.00  0.00    +0.000 C 
BRANCH   3   4
ATOM      4  C   UNL     1       2.898   4.644  17.688  0.00  0.00    +0.000 C 
BRANCH   4   5
ATOM      5  O   UNL     1       3.701   3.450  17.770  0.00  0.00    +0.000 OA
BRANCH   5   7
ATOM      6  O   UNL     1       4.922   2.935  19.617  0.00  0.00    +0.000 OA
ATOM      7  C   UNL     1       4.794   3.545  18.560  0.00  0.00    +0.000 C 
BRANCH   7   8
ATOM      8  C   UNL     1       5.838   4.523  18.106  0.00  0.00    +0.000 A 
ATOM      9  C   UNL     1       6.463   5.226  19.161  0.00  0.00    +0.000 A 
ATOM     10  C   UNL     1       7.312   6.302  18.920  0.00  0.00    +0.000 A 
ATOM     11  C   UNL     1       7.575   6.684  17.613  0.00  0.00    +0.000 A 
ATOM     12  C   UNL     1       7.074   5.919  16.557  0.00  0.00    +0.000 A 
ATOM     13  C   UNL     1       6.231   4.819  16.794  0.00  0.00    +0.000 A 
ATOM     14 BR   UNL     1       5.783   3.797  15.255  0.00  0.00    +0.000 Br
ENDBRANCH   7   8
ENDBRANCH   5   7
ENDBRANCH   4   5
ENDBRANCH   3   4
ENDBRANCH   2   3
ENDBRANCH   1   2
BRANCH   1  15
ATOM     15  C   UNL     1       2.297   8.317  18.110  0.00  0.00    +0.000 C 
BRANCH  15  16
ATOM     16  N   UNL     1       1.460   8.636  19.281  0.00  0.00    +0.000 N 
ATOM     17  C   UNL     1       0.738   9.785  19.498  0.00  0.00    +0.000 C 
ATOM     18  N   UNL     1       0.641  10.757  18.637  0.00  0.00    +0.000 NA
ATOM     19  S   UNL     1      -0.163  12.031  19.267  0.00  0.00    +0.000 S 
ATOM     20  O   UNL     1      -1.346  12.325  18.503  0.00  0.00    +0.000 OA
ATOM     21  O   UNL     1       0.749  13.022  19.762  0.00  0.00    +0.000 OA
ATOM     22  C   UNL     1      -0.630  11.247  20.714  0.00  0.00    +0.000 A 
ATOM     23  C   UNL     1      -1.218  11.899  21.788  0.00  0.00    +0.000 A 
ATOM     24  C   UNL     1      -1.219  11.222  22.994  0.00  0.00    +0.000 A 
ATOM     25  C   UNL     1      -0.643   9.938  23.082  0.00  0.00    +0.000 A 
ATOM     26  C   UNL     1      -0.027   9.326  21.972  0.00  0.00    +0.000 A 
ATOM     27  C   UNL     1      -0.003  10.022  20.778  0.00  0.00    +0.000 A 
ATOM     28  H   UNL     1       1.658   8.045  20.079  0.00  0.00    +0.000 HD
ENDBRANCH  15  16
ENDBRANCH   1  15
TORSDOF 8
ENDMDL
MODEL 8
REMARK VINA RESULT:      -6.7      4.009      7.725
REMARK  Name = 
REMARK  8 active torsions:
REMARK  status: ('A' for Active; 'I' for Inactive)
REMARK    1  A    between atoms: C_2  and  O_3
REMARK    2  A    between atoms: C_2  and  C_21
REMARK    3  A    between atoms: O_3  and  C_4
REMARK    4  A    between atoms: C_4  and  C_5
REMARK    5  A    between atoms: C_5  and  O_6
REMARK    6  A    between atoms: O_6  and  C_7
REMARK    7  A    between atoms: C_7  and  C_8
REMARK    8  A    between atoms: C_8  and  N_9
REMARK                            x       y       z     vdW  Elec       q    Type
REMARK                         _______ _______ _______ _____ _____    ______ ____
ROOT
ATOM      1  C   UNL     1       3.032   7.214  17.901  0.00  0.00    +0.000 C 
ENDROOT
BRANCH   1   2
ATOM      2  O   UNL     1       2.388   6.240  18.737  0.00  0.00    +0.000 OA
BRANCH   2   3
ATOM      3  C   UNL     1       2.302   4.972  18.070  0.00  0.00    +0.000 C 
BRANCH   3   4
ATOM      4  C   UNL     1       2.980   3.864  18.890  0.00  0.00    +0.000 C 
BRANCH   4   5
ATOM      5  O   UNL     1       4.161   3.272  18.316  0.00  0.00    +0.000 OA
BRANCH   5   7
ATOM      6  O   UNL     1       5.785   4.427  19.411  0.00  0.00    +0.000 OA
ATOM      7  C   UNL     1       5.273   4.041  18.365  0.00  0.00    +0.000 C 
BRANCH   7   8
ATOM      8  C   UNL     1       5.817   4.478  17.036  0.00  0.00    +0.000 A 
ATOM      9  C   UNL     1       5.217   3.834  15.931  0.00  0.00    +0.000 A 
ATOM     10  C   UNL     1       5.724   3.971  14.641  0.00  0.00    +0.000 A 
ATOM     11  C   UNL     1       6.830   4.778  14.426  0.00  0.00    +0.000 A 
ATOM     12  C   UNL     1       7.354   5.527  15.482  0.00  0.00    +0.000 A 
ATOM     13  C   UNL     1       6.835   5.408  16.784  0.00  0.00    +0.000 A 
ATOM     14 BR   UNL     1       7.555   6.622  18.056  0.00  0.00    +0.000 Br
ENDBRANCH   7   8
ENDBRANCH   5   7
ENDBRANCH   4   5
ENDBRANCH   3   4
ENDBRANCH   2   3
ENDBRANCH   1   2
BRANCH   1  15
ATOM     15  C   UNL     1       2.363   8.589  18.050  0.00  0.00    +0.000 C 
BRANCH  15  16
ATOM     16  N   UNL     1       1.523   8.827  19.239  0.00  0.00    +0.000 N 
ATOM     17  C   UNL     1       0.733   9.922  19.491  0.00  0.00    +0.000 C 
ATOM     18  N   UNL     1       0.563  10.906  18.655  0.00  0.00    +0.000 NA
ATOM     19  S   UNL     1      -0.311  12.112  19.324  0.00  0.00    +0.000 S 
ATOM     20  O   UNL     1      -1.521  12.347  18.582  0.00  0.00    +0.000 OA
ATOM     21  O   UNL     1       0.542  13.148  19.830  0.00  0.00    +0.000 OA
ATOM     22  C   UNL     1      -0.707  11.267  20.758  0.00  0.00    +0.000 A 
ATOM     23  C   UNL     1      -1.321  11.856  21.854  0.00  0.00    +0.000 A 
ATOM     24  C   UNL     1      -1.263  11.153  23.043  0.00  0.00    +0.000 A 
ATOM     25  C   UNL     1      -0.605   9.907  23.094  0.00  0.00    +0.000 A 
ATOM     26  C   UNL     1       0.033   9.360  21.963  0.00  0.00    +0.000 A 
ATOM     27  C   UNL     1      -0.003  10.084  20.786  0.00  0.00    +0.000 A 
ATOM     28  H   UNL     1       1.770   8.232  20.019  0.00  0.00    +0.000 HD
ENDBRANCH  15  16
ENDBRANCH   1  15
TORSDOF 8
ENDMDL
MODEL 9
REMARK VINA RESULT:      -6.7      4.101      7.918
REMARK  Name = 
REMARK  8 active torsions:
REMARK  status: ('A' for Active; 'I' for Inactive)
REMARK    1  A    between atoms: C_2  and  O_3
REMARK    2  A    between atoms: C_2  and  C_21
REMARK    3  A    between atoms: O_3  and  C_4
REMARK    4  A    between atoms: C_4  and  C_5
REMARK    5  A    between atoms: C_5  and  O_6
REMARK    6  A    between atoms: O_6  and  C_7
REMARK    7  A    between atoms: C_7  and  C_8
REMARK    8  A    between atoms: C_8  and  N_9
REMARK                            x       y       z     vdW  Elec       q    Type
REMARK                         _______ _______ _______ _____ _____    ______ ____
ROOT
ATOM      1  C   UNL     1       2.685   6.947  18.178  0.00  0.00    +0.000 C 
ENDROOT
BRANCH   1   2
ATOM      2  O   UNL     1       2.551   6.516  19.542  0.00  0.00    +0.000 OA
BRANCH   2   3
ATOM      3  C   UNL     1       2.226   5.120  19.606  0.00  0.00    +0.000 C 
BRANCH   3   4
ATOM      4  C   UNL     1       2.443   4.433  18.250  0.00  0.00    +0.000 C 
BRANCH   4   5
ATOM      5  O   UNL     1       3.416   3.370  18.216  0.00  0.00    +0.000 OA
BRANCH   5   7
ATOM      6  O   UNL     1       5.199   3.716  19.583  0.00  0.00    +0.000 OA
ATOM      7  C   UNL     1       4.690   3.748  18.467  0.00  0.00    +0.000 C 
BRANCH   7   8
ATOM      8  C   UNL     1       5.445   4.300  17.293  0.00  0.00    +0.000 A 
ATOM      9  C   UNL     1       4.836   4.039  16.045  0.00  0.00    +0.000 A 
ATOM     10  C   UNL     1       5.486   4.305  14.844  0.00  0.00    +0.000 A 
ATOM     11  C   UNL     1       6.755   4.864  14.865  0.00  0.00    +0.000 A 
ATOM     12  C   UNL     1       7.318   5.252  16.083  0.00  0.00    +0.000 A 
ATOM     13  C   UNL     1       6.657   5.003  17.300  0.00  0.00    +0.000 A 
ATOM     14 BR   UNL     1       7.488   5.748  18.839  0.00  0.00    +0.000 Br
ENDBRANCH   7   8
ENDBRANCH   5   7
ENDBRANCH   4   5
ENDBRANCH   3   4
ENDBRANCH   2   3
ENDBRANCH   1   2
BRANCH   1  15
ATOM     15  C   UNL     1       2.519   8.471  18.070  0.00  0.00    +0.000 C 
BRANCH  15  16
ATOM     16  N   UNL     1       1.179   9.003  17.761  0.00  0.00    +0.000 N 
ATOM     17  C   UNL     1       0.508  10.001  18.426  0.00  0.00    +0.000 C 
ATOM     18  N   UNL     1       1.011  10.681  19.416  0.00  0.00    +0.000 NA
ATOM     19  S   UNL     1      -0.099  11.682  20.075  0.00  0.00    +0.000 S 
ATOM     20  O   UNL     1       0.325  13.054  19.986  0.00  0.00    +0.000 OA
ATOM     21  O   UNL     1      -0.699  11.093  21.237  0.00  0.00    +0.000 OA
ATOM     22  C   UNL     1      -1.306  11.407  18.893  0.00  0.00    +0.000 A 
ATOM     23  C   UNL     1      -2.610  11.866  19.005  0.00  0.00    +0.000 A 
ATOM     24  C   UNL     1      -3.541  11.284  18.164  0.00  0.00    +0.000 A 
ATOM     25  C   UNL     1      -3.142  10.282  17.257  0.00  0.00    +0.000 A 
ATOM     26  C   UNL     1      -1.811   9.822  17.200  0.00  0.00    +0.000 A 
ATOM     27  C   UNL     1      -0.893  10.387  18.065  0.00  0.00    +0.000 A 
ATOM     28  H   UNL     1       0.640   8.389  17.163  0.00  0.00    +0.000 HD
ENDBRANCH  15  16
ENDBRANCH   1  15
TORSDOF 8
ENDMDL
