MODEL 1
REMARK VINA RESULT:      -6.8      0.000      0.000
REMARK  Name = 
REMARK  17 active torsions:
REMARK  status: ('A' for Active; 'I' for Inactive)
REMARK    1  A    between atoms: C_1  and  C_2
REMARK    2  A    between atoms: C_2  and  O_4
REMARK    3  A    between atoms: O_4  and  C_5
REMARK    4  A    between atoms: C_5  and  C_6
REMARK    5  A    between atoms: C_5  and  O_7
REMARK    6  A    between atoms: O_7  and  C_8
REMARK    7  A    between atoms: N_10  and  C_11
REMARK    8  A    between atoms: N_10  and  C_26
REMARK    9  A    between atoms: C_11  and  C_12
REMARK   10  A    between atoms: C_12  and  O_13
REMARK   11  A    between atoms: C_12  and  C_14
REMARK   12  A    between atoms: C_14  and  O_15
REMARK   13  A    between atoms: O_15  and  C_16
REMARK   14  A    between atoms: C_19  and  C_20
REMARK   15  A    between atoms: C_20  and  C_21
REMARK   16  A    between atoms: C_26  and  C_27
REMARK   17  A    between atoms: C_26  and  C_28
REMARK                            x       y       z     vdW  Elec       q    Type
REMARK                         _______ _______ _______ _____ _____    ______ ____
ROOT
ATOM      1  C   UNL     1       3.387   6.754  18.180  0.00  0.00    +0.000 C 
ENDROOT
BRANCH   1   2
ATOM      2  O   UNL     1       4.448   7.288  17.381  0.00  0.00    +0.000 OA
ATOM      3  H   UNL     1       4.118   7.402  16.475  0.00  0.00    +0.000 HD
ENDBRANCH   1   2
BRANCH   1   4
ATOM      4  C   UNL     1       3.001   5.313  17.757  0.00  0.00    +0.000 C 
BRANCH   4   7
ATOM      5  C   UNL     1       4.920   4.063  18.733  0.00  0.00    +0.000 C 
ATOM      6  O   UNL     1       5.484   3.460  19.635  0.00  0.00    +0.000 OA
ATOM      7  N   UNL     1       3.541   4.256  18.635  0.00  0.00    +0.000 N 
BRANCH   7   8
ATOM      8  C   UNL     1       2.636   3.505  19.530  0.00  0.00    +0.000 C 
ATOM      9  C   UNL     1       1.960   4.381  20.585  0.00  0.00    +0.000 C 
ATOM     10  C   UNL     1       1.586   2.711  18.744  0.00  0.00    +0.000 C 
ENDBRANCH   7   8
BRANCH   5  11
ATOM     11  O   UNL     1       5.564   4.610  17.673  0.00  0.00    +0.000 OA
BRANCH  11  12
ATOM     12  C   UNL     1       7.000   4.542  17.645  0.00  0.00    +0.000 C 
ATOM     13  C   UNL     1       7.431   5.779  18.437  0.00  0.00    +0.000 C 
BRANCH  12  14
ATOM     14  O   UNL     1       7.563   4.622  16.330  0.00  0.00    +0.000 OA
BRANCH  14  16
ATOM     15  C   UNL     1       6.264   3.883  14.502  0.00  0.00    +0.000 C 
ATOM     16  C   UNL     1       6.667   5.023  15.386  0.00  0.00    +0.000 C 
ATOM     17  O   UNL     1       6.223   6.158  15.266  0.00  0.00    +0.000 OA
ENDBRANCH  14  16
ENDBRANCH  12  14
ENDBRANCH  11  12
ENDBRANCH   5  11
ENDBRANCH   4   7
ENDBRANCH   1   4
BRANCH   1  18
ATOM     18  C   UNL     1       2.168   7.691  18.105  0.00  0.00    +0.000 C 
BRANCH  18  19
ATOM     19  O   UNL     1       1.923   8.211  19.410  0.00  0.00    +0.000 OA
BRANCH  19  20
ATOM     20  C   UNL     1       1.082   9.275  19.519  0.00  0.00    +0.000 A 
ATOM     21  C   UNL     1       0.740   9.615  20.829  0.00  0.00    +0.000 A 
ATOM     22  C   UNL     1      -0.059  10.728  21.093  0.00  0.00    +0.000 A 
ATOM     23  C   UNL     1      -0.525  11.525  20.042  0.00  0.00    +0.000 A 
ATOM     24  C   UNL     1      -0.192  11.174  18.726  0.00  0.00    +0.000 A 
ATOM     25  C   UNL     1       0.606  10.052  18.465  0.00  0.00    +0.000 A 
BRANCH  23  26
ATOM     26  C   UNL     1      -1.347  12.762  20.326  0.00  0.00    +0.000 C 
BRANCH  26  27
ATOM     27  C   UNL     1      -2.857  12.593  20.345  0.00  0.00    +0.000 C 
ATOM     28  N   UNL     1      -3.524  12.478  19.165  0.00  0.00    +0.000 N 
ATOM     29  O   UNL     1      -3.488  12.555  21.401  0.00  0.00    +0.000 OA
ATOM     30  H   UNL     1      -3.085  12.612  18.264  0.00  0.00    +0.000 HD
ATOM     31  H   UNL     1      -4.533  12.403  19.202  0.00  0.00    +0.000 HD
ENDBRANCH  26  27
ENDBRANCH  23  26
ENDBRANCH  19  20
ENDBRANCH  18  19
ENDBRANCH   1  18
TORSDOF 13
ENDMDL
MODEL 2
REMARK VINA RESULT:      -6.7      3.364      8.517
REMARK  Name = 
REMARK  17 active torsions:
REMARK  status: ('A' for Active; 'I' for Inactive)
REMARK    1  A    between atoms: C_1  and  C_2
REMARK    2  A    between atoms: C_2  and  O_4
REMARK    3  A    between atoms: O_4  and  C_5
REMARK    4  A    between atoms: C_5  and  C_6
REMARK    5  A    between atoms: C_5  and  O_7
REMARK    6  A    between atoms: O_7  and  C_8
REMARK    7  A    between atoms: N_10  and  C_11
REMARK    8  A    between atoms: N_10  and  C_26
REMARK    9  A    between atoms: C_11  and  C_12
REMARK   10  A    between atoms: C_12  and  O_13
REMARK   11  A    between atoms: C_12  and  C_14
REMARK   12  A    between atoms: C_14  and  O_15
REMARK   13  A    between atoms: O_15  and  C_16
REMARK   14  A    between atoms: C_19  and  C_20
REMARK   15  A    between atoms: C_20  and  C_21
REMARK   16  A    between atoms: C_26  and  C_27
REMARK   17  A    between atoms: C_26  and  C_28
REMARK                            x       y       z     vdW  Elec       q    Type
REMARK                         _______ _______ _______ _____ _____    ______ ____
ROOT
ATOM      1  C   UNL     1       4.938   5.668  19.031  0.00  0.00    +0.000 C 
ENDROOT
BRANCH   1   2
ATOM      2  O   UNL     1       5.177   4.359  19.560  0.00  0.00    +0.000 OA
ATOM      3  H   UNL     1       4.850   3.708  18.917  0.00  0.00    +0.000 HD
ENDBRANCH   1   2
BRANCH   1   4
ATOM      4  C   UNL     1       3.620   5.742  18.218  0.00  0.00    +0.000 C 
BRANCH   4   7
ATOM      5  C   UNL     1       1.927   5.411  20.012  0.00  0.00    +0.000 C 
ATOM      6  O   UNL     1       1.193   5.806  20.906  0.00  0.00    +0.000 OA
ATOM      7  N   UNL     1       2.453   6.205  18.993  0.00  0.00    +0.000 N 
BRANCH   7   8
ATOM      8  C   UNL     1       1.934   7.576  18.799  0.00  0.00    +0.000 C 
ATOM      9  C   UNL     1       1.915   8.406  20.083  0.00  0.00    +0.000 C 
ATOM     10  C   UNL     1       2.693   8.322  17.694  0.00  0.00    +0.000 C 
ENDBRANCH   7   8
BRANCH   5  11
ATOM     11  O   UNL     1       2.314   4.118  19.870  0.00  0.00    +0.000 OA
BRANCH  11  12
ATOM     12  C   UNL     1       1.326   3.091  20.065  0.00  0.00    +0.000 C 
ATOM     13  C   UNL     1       1.685   2.509  21.434  0.00  0.00    +0.000 C 
BRANCH  12  14
ATOM     14  O   UNL     1       1.376   2.040  19.093  0.00  0.00    +0.000 OA
BRANCH  14  16
ATOM     15  C   UNL     1       3.532   1.541  18.270  0.00  0.00    +0.000 C 
ATOM     16  C   UNL     1       2.250   2.290  18.078  0.00  0.00    +0.000 C 
ATOM     17  O   UNL     1       2.031   3.014  17.115  0.00  0.00    +0.000 OA
ENDBRANCH  14  16
ENDBRANCH  12  14
ENDBRANCH  11  12
ENDBRANCH   5  11
ENDBRANCH   4   7
ENDBRANCH   1   4
BRANCH   1  18
ATOM     18  C   UNL     1       6.138   6.099  18.169  0.00  0.00    +0.000 C 
BRANCH  18  19
ATOM     19  O   UNL     1       6.761   4.926  17.650  0.00  0.00    +0.000 OA
BRANCH  19  20
ATOM     20  C   UNL     1       6.555   4.628  16.339  0.00  0.00    +0.000 A 
ATOM     21  C   UNL     1       7.411   5.285  15.451  0.00  0.00    +0.000 A 
ATOM     22  C   UNL     1       7.359   5.022  14.082  0.00  0.00    +0.000 A 
ATOM     23  C   UNL     1       6.449   4.087  13.579  0.00  0.00    +0.000 A 
ATOM     24  C   UNL     1       5.581   3.439  14.470  0.00  0.00    +0.000 A 
ATOM     25  C   UNL     1       5.631   3.711  15.843  0.00  0.00    +0.000 A 
BRANCH  23  26
ATOM     26  C   UNL     1       6.425   3.759  12.103  0.00  0.00    +0.000 C 
BRANCH  26  27
ATOM     27  C   UNL     1       5.436   2.696  11.652  0.00  0.00    +0.000 C 
ATOM     28  N   UNL     1       5.856   1.406  11.547  0.00  0.00    +0.000 N 
ATOM     29  O   UNL     1       4.268   2.975  11.383  0.00  0.00    +0.000 OA
ATOM     30  H   UNL     1       6.823   1.127  11.645  0.00  0.00    +0.000 HD
ATOM     31  H   UNL     1       5.189   0.723  11.210  0.00  0.00    +0.000 HD
ENDBRANCH  26  27
ENDBRANCH  23  26
ENDBRANCH  19  20
ENDBRANCH  18  19
ENDBRANCH   1  18
TORSDOF 13
ENDMDL
MODEL 3
REMARK VINA RESULT:      -6.7      1.544      1.950
REMARK  Name = 
REMARK  17 active torsions:
REMARK  status: ('A' for Active; 'I' for Inactive)
REMARK    1  A    between atoms: C_1  and  C_2
REMARK    2  A    between atoms: C_2  and  O_4
REMARK    3  A    between atoms: O_4  and  C_5
REMARK    4  A    between atoms: C_5  and  C_6
REMARK    5  A    between atoms: C_5  and  O_7
REMARK    6  A    between atoms: O_7  and  C_8
REMARK    7  A    between atoms: N_10  and  C_11
REMARK    8  A    between atoms: N_10  and  C_26
REMARK    9  A    between atoms: C_11  and  C_12
REMARK   10  A    between atoms: C_12  and  O_13
REMARK   11  A    between atoms: C_12  and  C_14
REMARK   12  A    between atoms: C_14  and  O_15
REMARK   13  A    between atoms: O_15  and  C_16
REMARK   14  A    between atoms: C_19  and  C_20
REMARK   15  A    between atoms: C_20  and  C_21
REMARK   16  A    between atoms: C_26  and  C_27
REMARK   17  A    between atoms: C_26  and  C_28
REMARK                            x       y       z     vdW  Elec       q    Type
REMARK                         _______ _______ _______ _____ _____    ______ ____
ROOT
ATOM      1  C   UNL     1       2.006   6.127  20.064  0.00  0.00    +0.000 C 
ENDROOT
BRANCH   1   2
ATOM      2  O   UNL     1       2.424   5.558  21.310  0.00  0.00    +0.000 OA
ATOM      3  H   UNL     1       2.094   4.645  21.352  0.00  0.00    +0.000 HD
ENDBRANCH   1   2
BRANCH   1   4
ATOM      4  C   UNL     1       2.934   5.720  18.891  0.00  0.00    +0.000 C 
BRANCH   4   7
ATOM      5  C   UNL     1       4.663   3.992  19.363  0.00  0.00    +0.000 C 
ATOM      6  O   UNL     1       5.027   2.884  19.731  0.00  0.00    +0.000 OA
ATOM      7  N   UNL     1       3.377   4.312  18.926  0.00  0.00    +0.000 N 
BRANCH   7   8
ATOM      8  C   UNL     1       2.412   3.227  18.649  0.00  0.00    +0.000 C 
ATOM      9  C   UNL     1       2.889   2.250  17.574  0.00  0.00    +0.000 C 
ATOM     10  C   UNL     1       2.026   2.468  19.924  0.00  0.00    +0.000 C 
ENDBRANCH   7   8
BRANCH   5  11
ATOM     11  O   UNL     1       5.481   5.073  19.300  0.00  0.00    +0.000 OA
BRANCH  11  12
ATOM     12  C   UNL     1       6.535   5.068  18.322  0.00  0.00    +0.000 C 
ATOM     13  C   UNL     1       7.674   5.813  19.023  0.00  0.00    +0.000 C 
BRANCH  12  14
ATOM     14  O   UNL     1       6.211   5.760  17.111  0.00  0.00    +0.000 OA
BRANCH  14  16
ATOM     15  C   UNL     1       5.702   3.949  15.684  0.00  0.00    +0.000 C 
ATOM     16  C   UNL     1       6.612   5.098  15.990  0.00  0.00    +0.000 C 
ATOM     17  O   UNL     1       7.578   5.395  15.298  0.00  0.00    +0.000 OA
ENDBRANCH  14  16
ENDBRANCH  12  14
ENDBRANCH  11  12
ENDBRANCH   5  11
ENDBRANCH   4   7
ENDBRANCH   1   4
BRANCH   1  18
ATOM     18  C   UNL     1       1.933   7.658  20.199  0.00  0.00    +0.000 C 
BRANCH  18  19
ATOM     19  O   UNL     1       1.245   7.969  21.408  0.00  0.00    +0.000 OA
BRANCH  19  20
ATOM     20  C   UNL     1       0.492   9.101  21.434  0.00  0.00    +0.000 A 
ATOM     21  C   UNL     1      -0.111   9.372  22.664  0.00  0.00    +0.000 A 
ATOM     22  C   UNL     1      -0.855  10.537  22.854  0.00  0.00    +0.000 A 
ATOM     23  C   UNL     1      -1.003  11.457  21.810  0.00  0.00    +0.000 A 
ATOM     24  C   UNL     1      -0.408  11.175  20.572  0.00  0.00    +0.000 A 
ATOM     25  C   UNL     1       0.333  10.001  20.383  0.00  0.00    +0.000 A 
BRANCH  23  26
ATOM     26  C   UNL     1      -1.763  12.745  22.027  0.00  0.00    +0.000 C 
BRANCH  26  27
ATOM     27  C   UNL     1      -2.178  13.514  20.783  0.00  0.00    +0.000 C 
ATOM     28  N   UNL     1      -3.293  13.126  20.108  0.00  0.00    +0.000 N 
ATOM     29  O   UNL     1      -1.531  14.478  20.375  0.00  0.00    +0.000 OA
ATOM     30  H   UNL     1      -3.805  12.280  20.322  0.00  0.00    +0.000 HD
ATOM     31  H   UNL     1      -3.529  13.630  19.263  0.00  0.00    +0.000 HD
ENDBRANCH  26  27
ENDBRANCH  23  26
ENDBRANCH  19  20
ENDBRANCH  18  19
ENDBRANCH   1  18
TORSDOF 13
ENDMDL
MODEL 4
REMARK VINA RESULT:      -6.6      5.175      7.951
REMARK  Name = 
REMARK  17 active torsions:
REMARK  status: ('A' for Active; 'I' for Inactive)
REMARK    1  A    between atoms: C_1  and  C_2
REMARK    2  A    between atoms: C_2  and  O_4
REMARK    3  A    between atoms: O_4  and  C_5
REMARK    4  A    between atoms: C_5  and  C_6
REMARK    5  A    between atoms: C_5  and  O_7
REMARK    6  A    between atoms: O_7  and  C_8
REMARK    7  A    between atoms: N_10  and  C_11
REMARK    8  A    between atoms: N_10  and  C_26
REMARK    9  A    between atoms: C_11  and  C_12
REMARK   10  A    between atoms: C_12  and  O_13
REMARK   11  A    between atoms: C_12  and  C_14
REMARK   12  A    between atoms: C_14  and  O_15
REMARK   13  A    between atoms: O_15  and  C_16
REMARK   14  A    between atoms: C_19  and  C_20
REMARK   15  A    between atoms: C_20  and  C_21
REMARK   16  A    between atoms: C_26  and  C_27
REMARK   17  A    between atoms: C_26  and  C_28
REMARK                            x       y       z     vdW  Elec       q    Type
REMARK                         _______ _______ _______ _____ _____    ______ ____
ROOT
ATOM      1  C   UNL     1       7.016   5.886  18.844  0.00  0.00    +0.000 C 
ENDROOT
BRANCH   1   2
ATOM      2  O   UNL     1       7.752   5.617  20.043  0.00  0.00    +0.000 OA
ATOM      3  H   UNL     1       8.686   5.826  19.878  0.00  0.00    +0.000 HD
ENDBRANCH   1   2
BRANCH   1   4
ATOM      4  C   UNL     1       6.754   4.602  18.015  0.00  0.00    +0.000 C 
BRANCH   4   7
ATOM      5  C   UNL     1       4.286   4.274  18.032  0.00  0.00    +0.000 C 
ATOM      6  O   UNL     1       3.149   4.528  17.662  0.00  0.00    +0.000 OA
ATOM      7  N   UNL     1       5.449   4.579  17.324  0.00  0.00    +0.000 N 
BRANCH   7   8
ATOM      8  C   UNL     1       5.349   5.031  15.920  0.00  0.00    +0.000 C 
ATOM      9  C   UNL     1       5.105   6.533  15.781  0.00  0.00    +0.000 C 
ATOM     10  C   UNL     1       6.572   4.611  15.097  0.00  0.00    +0.000 C 
ENDBRANCH   7   8
BRANCH   5  11
ATOM     11  O   UNL     1       4.577   3.625  19.188  0.00  0.00    +0.000 OA
BRANCH  11  12
ATOM     12  C   UNL     1       3.777   2.484  19.542  0.00  0.00    +0.000 C 
ATOM     13  C   UNL     1       3.786   1.634  18.268  0.00  0.00    +0.000 C 
BRANCH  12  14
ATOM     14  O   UNL     1       2.419   2.802  19.871  0.00  0.00    +0.000 OA
BRANCH  14  16
ATOM     15  C   UNL     1       1.816   4.839  20.901  0.00  0.00    +0.000 C 
ATOM     16  C   UNL     1       2.291   3.429  21.073  0.00  0.00    +0.000 C 
ATOM     17  O   UNL     1       2.514   2.922  22.165  0.00  0.00    +0.000 OA
ENDBRANCH  14  16
ENDBRANCH  12  14
ENDBRANCH  11  12
ENDBRANCH   5  11
ENDBRANCH   4   7
ENDBRANCH   1   4
BRANCH   1  18
ATOM     18  C   UNL     1       7.767   6.935  18.006  0.00  0.00    +0.000 C 
BRANCH  18  19
ATOM     19  O   UNL     1       8.524   7.757  18.892  0.00  0.00    +0.000 OA
BRANCH  19  20
ATOM     20  C   UNL     1       8.592   9.087  18.618  0.00  0.00    +0.000 A 
ATOM     21  C   UNL     1       9.530   9.791  19.377  0.00  0.00    +0.000 A 
ATOM     22  C   UNL     1       9.755  11.150  19.153  0.00  0.00    +0.000 A 
ATOM     23  C   UNL     1       9.045  11.826  18.155  0.00  0.00    +0.000 A 
ATOM     24  C   UNL     1       8.094  11.121  17.404  0.00  0.00    +0.000 A 
ATOM     25  C   UNL     1       7.866   9.758  17.636  0.00  0.00    +0.000 A 
BRANCH  23  26
ATOM     26  C   UNL     1       9.324  13.285  17.873  0.00  0.00    +0.000 C 
BRANCH  26  27
ATOM     27  C   UNL     1      10.766  13.664  17.582  0.00  0.00    +0.000 C 
ATOM     28  N   UNL     1      11.451  14.408  18.493  0.00  0.00    +0.000 N 
ATOM     29  O   UNL     1      11.329  13.313  16.546  0.00  0.00    +0.000 OA
ATOM     30  H   UNL     1      11.018  14.822  19.309  0.00  0.00    +0.000 HD
ATOM     31  H   UNL     1      12.398  14.679  18.261  0.00  0.00    +0.000 HD
ENDBRANCH  26  27
ENDBRANCH  23  26
ENDBRANCH  19  20
ENDBRANCH  18  19
ENDBRANCH   1  18
TORSDOF 13
ENDMDL
MODEL 5
REMARK VINA RESULT:      -6.5      1.707      2.228
REMARK  Name = 
REMARK  17 active torsions:
REMARK  status: ('A' for Active; 'I' for Inactive)
REMARK    1  A    between atoms: C_1  and  C_2
REMARK    2  A    between atoms: C_2  and  O_4
REMARK    3  A    between atoms: O_4  and  C_5
REMARK    4  A    between atoms: C_5  and  C_6
REMARK    5  A    between atoms: C_5  and  O_7
REMARK    6  A    between atoms: O_7  and  C_8
REMARK    7  A    between atoms: N_10  and  C_11
REMARK    8  A    between atoms: N_10  and  C_26
REMARK    9  A    between atoms: C_11  and  C_12
REMARK   10  A    between atoms: C_12  and  O_13
REMARK   11  A    between atoms: C_12  and  C_14
REMARK   12  A    between atoms: C_14  and  O_15
REMARK   13  A    between atoms: O_15  and  C_16
REMARK   14  A    between atoms: C_19  and  C_20
REMARK   15  A    between atoms: C_20  and  C_21
REMARK   16  A    between atoms: C_26  and  C_27
REMARK   17  A    between atoms: C_26  and  C_28
REMARK                            x       y       z     vdW  Elec       q    Type
REMARK                         _______ _______ _______ _____ _____    ______ ____
ROOT
ATOM      1  C   UNL     1       1.985   5.646  20.477  0.00  0.00    +0.000 C 
ENDROOT
BRANCH   1   2
ATOM      2  O   UNL     1       2.464   4.890  21.594  0.00  0.00    +0.000 OA
ATOM      3  H   UNL     1       1.798   4.938  22.301  0.00  0.00    +0.000 HD
ENDBRANCH   1   2
BRANCH   1   4
ATOM      4  C   UNL     1       2.949   5.577  19.264  0.00  0.00    +0.000 C 
BRANCH   4   7
ATOM      5  C   UNL     1       4.717   3.825  19.296  0.00  0.00    +0.000 C 
ATOM      6  O   UNL     1       5.107   2.669  19.372  0.00  0.00    +0.000 OA
ATOM      7  N   UNL     1       3.426   4.217  18.943  0.00  0.00    +0.000 N 
BRANCH   7   8
ATOM      8  C   UNL     1       2.488   3.218  18.388  0.00  0.00    +0.000 C 
ATOM      9  C   UNL     1       1.872   2.307  19.451  0.00  0.00    +0.000 C 
ATOM     10  C   UNL     1       1.388   3.873  17.546  0.00  0.00    +0.000 C 
ENDBRANCH   7   8
BRANCH   5  11
ATOM     11  O   UNL     1       5.508   4.904  19.520  0.00  0.00    +0.000 OA
BRANCH  11  12
ATOM     12  C   UNL     1       6.558   5.180  18.577  0.00  0.00    +0.000 C 
ATOM     13  C   UNL     1       7.676   5.759  19.447  0.00  0.00    +0.000 C 
BRANCH  12  14
ATOM     14  O   UNL     1       6.208   6.147  17.579  0.00  0.00    +0.000 OA
BRANCH  14  16
ATOM     15  C   UNL     1       5.329   4.952  15.742  0.00  0.00    +0.000 C 
ATOM     16  C   UNL     1       6.476   5.730  16.310  0.00  0.00    +0.000 C 
ATOM     17  O   UNL     1       7.505   5.963  15.689  0.00  0.00    +0.000 OA
ENDBRANCH  14  16
ENDBRANCH  12  14
ENDBRANCH  11  12
ENDBRANCH   5  11
ENDBRANCH   4   7
ENDBRANCH   1   4
BRANCH   1  18
ATOM     18  C   UNL     1       1.752   7.105  20.907  0.00  0.00    +0.000 C 
BRANCH  18  19
ATOM     19  O   UNL     1       2.029   7.951  19.793  0.00  0.00    +0.000 OA
BRANCH  19  20
ATOM     20  C   UNL     1       1.176   8.982  19.554  0.00  0.00    +0.000 A 
ATOM     21  C   UNL     1       1.122   9.396  18.222  0.00  0.00    +0.000 A 
ATOM     22  C   UNL     1       0.237  10.398  17.820  0.00  0.00    +0.000 A 
ATOM     23  C   UNL     1      -0.616  10.999  18.752  0.00  0.00    +0.000 A 
ATOM     24  C   UNL     1      -0.549  10.592  20.092  0.00  0.00    +0.000 A 
ATOM     25  C   UNL     1       0.345   9.590  20.492  0.00  0.00    +0.000 A 
BRANCH  23  26
ATOM     26  C   UNL     1      -1.613  12.047  18.313  0.00  0.00    +0.000 C 
BRANCH  26  27
ATOM     27  C   UNL     1      -2.985  11.553  17.887  0.00  0.00    +0.000 C 
ATOM     28  N   UNL     1      -4.086  12.021  18.536  0.00  0.00    +0.000 N 
ATOM     29  O   UNL     1      -3.124  10.743  16.972  0.00  0.00    +0.000 OA
ATOM     30  H   UNL     1      -4.038  12.598  19.365  0.00  0.00    +0.000 HD
ATOM     31  H   UNL     1      -4.986  11.650  18.259  0.00  0.00    +0.000 HD
ENDBRANCH  26  27
ENDBRANCH  23  26
ENDBRANCH  19  20
ENDBRANCH  18  19
ENDBRANCH   1  18
TORSDOF 13
ENDMDL
MODEL 6
REMARK VINA RESULT:      -6.5      1.023      1.365
REMARK  Name = 
REMARK  17 active torsions:
REMARK  status: ('A' for Active; 'I' for Inactive)
REMARK    1  A    between atoms: C_1  and  C_2
REMARK    2  A    between atoms: C_2  and  O_4
REMARK    3  A    between atoms: O_4  and  C_5
REMARK    4  A    between atoms: C_5  and  C_6
REMARK    5  A    between atoms: C_5  and  O_7
REMARK    6  A    between atoms: O_7  and  C_8
REMARK    7  A    between atoms: N_10  and  C_11
REMARK    8  A    between atoms: N_10  and  C_26
REMARK    9  A    between atoms: C_11  and  C_12
REMARK   10  A    between atoms: C_12  and  O_13
REMARK   11  A    between atoms: C_12  and  C_14
REMARK   12  A    between atoms: C_14  and  O_15
REMARK   13  A    between atoms: O_15  and  C_16
REMARK   14  A    between atoms: C_19  and  C_20
REMARK   15  A    between atoms: C_20  and  C_21
REMARK   16  A    between atoms: C_26  and  C_27
REMARK   17  A    between atoms: C_26  and  C_28
REMARK                            x       y       z     vdW  Elec       q    Type
REMARK                         _______ _______ _______ _____ _____    ______ ____
ROOT
ATOM      1  C   UNL     1       3.327   6.591  18.578  0.00  0.00    +0.000 C 
ENDROOT
BRANCH   1   2
ATOM      2  O   UNL     1       3.916   7.341  17.510  0.00  0.00    +0.000 OA
ATOM      3  H   UNL     1       3.202   7.785  17.022  0.00  0.00    +0.000 HD
ENDBRANCH   1   2
BRANCH   1   4
ATOM      4  C   UNL     1       2.742   5.240  18.095  0.00  0.00    +0.000 C 
BRANCH   4   7
ATOM      5  C   UNL     1       4.652   3.815  18.816  0.00  0.00    +0.000 C 
ATOM      6  O   UNL     1       5.227   3.078  19.604  0.00  0.00    +0.000 OA
ATOM      7  N   UNL     1       3.278   4.058  18.798  0.00  0.00    +0.000 N 
BRANCH   7   8
ATOM      8  C   UNL     1       2.380   3.215  19.616  0.00  0.00    +0.000 C 
ATOM      9  C   UNL     1       1.443   4.021  20.516  0.00  0.00    +0.000 C 
ATOM     10  C   UNL     1       1.577   2.233  18.755  0.00  0.00    +0.000 C 
ENDBRANCH   7   8
BRANCH   5  11
ATOM     11  O   UNL     1       5.276   4.486  17.816  0.00  0.00    +0.000 OA
BRANCH  11  12
ATOM     12  C   UNL     1       6.711   4.573  17.853  0.00  0.00    +0.000 C 
ATOM     13  C   UNL     1       6.972   5.777  18.761  0.00  0.00    +0.000 C 
BRANCH  12  14
ATOM     14  O   UNL     1       7.314   4.822  16.577  0.00  0.00    +0.000 OA
BRANCH  14  16
ATOM     15  C   UNL     1       6.137   3.984  14.711  0.00  0.00    +0.000 C 
ATOM     16  C   UNL     1       6.411   5.149  15.611  0.00  0.00    +0.000 C 
ATOM     17  O   UNL     1       5.870   6.239  15.486  0.00  0.00    +0.000 OA
ENDBRANCH  14  16
ENDBRANCH  12  14
ENDBRANCH  11  12
ENDBRANCH   5  11
ENDBRANCH   4   7
ENDBRANCH   1   4
BRANCH   1  18
ATOM     18  C   UNL     1       2.245   7.442  19.266  0.00  0.00    +0.000 C 
BRANCH  18  19
ATOM     19  O   UNL     1       2.051   8.627  18.496  0.00  0.00    +0.000 OA
BRANCH  19  20
ATOM     20  C   UNL     1       1.091   9.498  18.908  0.00  0.00    +0.000 A 
ATOM     21  C   UNL     1       0.152   9.835  17.931  0.00  0.00    +0.000 A 
ATOM     22  C   UNL     1      -0.928  10.665  18.234  0.00  0.00    +0.000 A 
ATOM     23  C   UNL     1      -1.088  11.167  19.530  0.00  0.00    +0.000 A 
ATOM     24  C   UNL     1      -0.136  10.838  20.506  0.00  0.00    +0.000 A 
ATOM     25  C   UNL     1       0.951  10.010  20.196  0.00  0.00    +0.000 A 
BRANCH  23  26
ATOM     26  C   UNL     1      -2.285  12.022  19.877  0.00  0.00    +0.000 C 
BRANCH  26  27
ATOM     27  C   UNL     1      -2.001  13.421  20.400  0.00  0.00    +0.000 C 
ATOM     28  N   UNL     1      -2.671  13.864  21.498  0.00  0.00    +0.000 N 
ATOM     29  O   UNL     1      -1.179  14.158  19.857  0.00  0.00    +0.000 OA
ATOM     30  H   UNL     1      -3.434  13.357  21.925  0.00  0.00    +0.000 HD
ATOM     31  H   UNL     1      -2.491  14.812  21.806  0.00  0.00    +0.000 HD
ENDBRANCH  26  27
ENDBRANCH  23  26
ENDBRANCH  19  20
ENDBRANCH  18  19
ENDBRANCH   1  18
TORSDOF 13
ENDMDL
MODEL 7
REMARK VINA RESULT:      -6.5      2.042      2.304
REMARK  Name = 
REMARK  17 active torsions:
REMARK  status: ('A' for Active; 'I' for Inactive)
REMARK    1  A    between atoms: C_1  and  C_2
REMARK    2  A    between atoms: C_2  and  O_4
REMARK    3  A    between atoms: O_4  and  C_5
REMARK    4  A    between atoms: C_5  and  C_6
REMARK    5  A    between atoms: C_5  and  O_7
REMARK    6  A    between atoms: O_7  and  C_8
REMARK    7  A    between atoms: N_10  and  C_11
REMARK    8  A    between atoms: N_10  and  C_26
REMARK    9  A    between atoms: C_11  and  C_12
REMARK   10  A    between atoms: C_12  and  O_13
REMARK   11  A    between atoms: C_12  and  C_14
REMARK   12  A    between atoms: C_14  and  O_15
REMARK   13  A    between atoms: O_15  and  C_16
REMARK   14  A    between atoms: C_19  and  C_20
REMARK   15  A    between atoms: C_20  and  C_21
REMARK   16  A    between atoms: C_26  and  C_27
REMARK   17  A    between atoms: C_26  and  C_28
REMARK                            x       y       z     vdW  Elec       q    Type
REMARK                         _______ _______ _______ _____ _____    ______ ____
ROOT
ATOM      1  C   UNL     1       2.343   6.516  19.409  0.00  0.00    +0.000 C 
ENDROOT
BRANCH   1   2
ATOM      2  O   UNL     1       1.925   7.149  20.623  0.00  0.00    +0.000 OA
ATOM      3  H   UNL     1       2.312   6.660  21.369  0.00  0.00    +0.000 HD
ENDBRANCH   1   2
BRANCH   1   4
ATOM      4  C   UNL     1       3.463   5.471  19.647  0.00  0.00    +0.000 C 
BRANCH   4   7
ATOM      5  C   UNL     1       3.734   3.621  18.003  0.00  0.00    +0.000 C 
ATOM      6  O   UNL     1       3.795   2.441  17.687  0.00  0.00    +0.000 OA
ATOM      7  N   UNL     1       3.141   4.112  19.166  0.00  0.00    +0.000 N 
BRANCH   7   8
ATOM      8  C   UNL     1       2.312   3.212  19.996  0.00  0.00    +0.000 C 
ATOM      9  C   UNL     1       2.323   3.574  21.481  0.00  0.00    +0.000 C 
ATOM     10  C   UNL     1       0.871   3.126  19.479  0.00  0.00    +0.000 C 
ENDBRANCH   7   8
BRANCH   5  11
ATOM     11  O   UNL     1       4.215   4.633  17.238  0.00  0.00    +0.000 OA
BRANCH  11  12
ATOM     12  C   UNL     1       5.485   4.446  16.590  0.00  0.00    +0.000 C 
ATOM     13  C   UNL     1       6.493   4.600  17.732  0.00  0.00    +0.000 C 
BRANCH  12  14
ATOM     14  O   UNL     1       5.778   5.424  15.585  0.00  0.00    +0.000 OA
BRANCH  14  16
ATOM     15  C   UNL     1       6.079   3.882  13.823  0.00  0.00    +0.000 C 
ATOM     16  C   UNL     1       6.666   4.984  14.650  0.00  0.00    +0.000 C 
ATOM     17  O   UNL     1       7.794   5.427  14.479  0.00  0.00    +0.000 OA
ENDBRANCH  14  16
ENDBRANCH  12  14
ENDBRANCH  11  12
ENDBRANCH   5  11
ENDBRANCH   4   7
ENDBRANCH   1   4
BRANCH   1  18
ATOM     18  C   UNL     1       2.799   7.587  18.403  0.00  0.00    +0.000 C 
BRANCH  18  19
ATOM     19  O   UNL     1       1.639   8.201  17.846  0.00  0.00    +0.000 OA
BRANCH  19  20
ATOM     20  C   UNL     1       1.399   9.502  18.159  0.00  0.00    +0.000 A 
ATOM     21  C   UNL     1       0.192   9.728  18.825  0.00  0.00    +0.000 A 
ATOM     22  C   UNL     1      -0.151  11.005  19.268  0.00  0.00    +0.000 A 
ATOM     23  C   UNL     1       0.718  12.081  19.057  0.00  0.00    +0.000 A 
ATOM     24  C   UNL     1       1.923  11.855  18.376  0.00  0.00    +0.000 A 
ATOM     25  C   UNL     1       2.261  10.572  17.926  0.00  0.00    +0.000 A 
BRANCH  23  26
ATOM     26  C   UNL     1       0.375  13.456  19.583  0.00  0.00    +0.000 C 
BRANCH  26  27
ATOM     27  C   UNL     1       0.776  13.762  21.017  0.00  0.00    +0.000 C 
ATOM     28  N   UNL     1       1.471  14.902  21.280  0.00  0.00    +0.000 N 
ATOM     29  O   UNL     1       0.484  13.006  21.943  0.00  0.00    +0.000 OA
ATOM     30  H   UNL     1       1.838  15.507  20.557  0.00  0.00    +0.000 HD
ATOM     31  H   UNL     1       1.758  15.066  22.236  0.00  0.00    +0.000 HD
ENDBRANCH  26  27
ENDBRANCH  23  26
ENDBRANCH  19  20
ENDBRANCH  18  19
ENDBRANCH   1  18
TORSDOF 13
ENDMDL
MODEL 8
REMARK VINA RESULT:      -6.4      1.803      1.979
REMARK  Name = 
REMARK  17 active torsions:
REMARK  status: ('A' for Active; 'I' for Inactive)
REMARK    1  A    between atoms: C_1  and  C_2
REMARK    2  A    between atoms: C_2  and  O_4
REMARK    3  A    between atoms: O_4  and  C_5
REMARK    4  A    between atoms: C_5  and  C_6
REMARK    5  A    between atoms: C_5  and  O_7
REMARK    6  A    between atoms: O_7  and  C_8
REMARK    7  A    between atoms: N_10  and  C_11
REMARK    8  A    between atoms: N_10  and  C_26
REMARK    9  A    between atoms: C_11  and  C_12
REMARK   10  A    between atoms: C_12  and  O_13
REMARK   11  A    between atoms: C_12  and  C_14
REMARK   12  A    between atoms: C_14  and  O_15
REMARK   13  A    between atoms: O_15  and  C_16
REMARK   14  A    between atoms: C_19  and  C_20
REMARK   15  A    between atoms: C_20  and  C_21
REMARK   16  A    between atoms: C_26  and  C_27
REMARK   17  A    between atoms: C_26  and  C_28
REMARK                            x       y       z     vdW  Elec       q    Type
REMARK                         _______ _______ _______ _____ _____    ______ ____
ROOT
ATOM      1  C   UNL     1       2.831   6.397  19.248  0.00  0.00    +0.000 C 
ENDROOT
BRANCH   1   2
ATOM      2  O   UNL     1       2.173   6.119  18.008  0.00  0.00    +0.000 OA
ATOM      3  H   UNL     1       2.660   6.571  17.298  0.00  0.00    +0.000 HD
ENDBRANCH   1   2
BRANCH   1   4
ATOM      4  C   UNL     1       3.493   5.134  19.858  0.00  0.00    +0.000 C 
BRANCH   4   7
ATOM      5  C   UNL     1       4.111   3.549  18.040  0.00  0.00    +0.000 C 
ATOM      6  O   UNL     1       4.214   2.432  17.555  0.00  0.00    +0.000 OA
ATOM      7  N   UNL     1       3.260   3.895  19.090  0.00  0.00    +0.000 N 
BRANCH   7   8
ATOM      8  C   UNL     1       2.223   2.938  19.530  0.00  0.00    +0.000 C 
ATOM      9  C   UNL     1       1.786   3.139  20.981  0.00  0.00    +0.000 C 
ATOM     10  C   UNL     1       1.003   2.952  18.600  0.00  0.00    +0.000 C 
ENDBRANCH   7   8
BRANCH   5  11
ATOM     11  O   UNL     1       4.801   4.631  17.598  0.00  0.00    +0.000 OA
BRANCH  11  12
ATOM     12  C   UNL     1       6.207   4.477  17.339  0.00  0.00    +0.000 C 
ATOM     13  C   UNL     1       6.860   4.913  18.652  0.00  0.00    +0.000 C 
BRANCH  12  14
ATOM     14  O   UNL     1       6.701   5.310  16.283  0.00  0.00    +0.000 OA
BRANCH  14  16
ATOM     15  C   UNL     1       5.576   4.321  14.458  0.00  0.00    +0.000 C 
ATOM     16  C   UNL     1       5.781   5.539  15.305  0.00  0.00    +0.000 C 
ATOM     17  O   UNL     1       5.176   6.589  15.131  0.00  0.00    +0.000 OA
ENDBRANCH  14  16
ENDBRANCH  12  14
ENDBRANCH  11  12
ENDBRANCH   5  11
ENDBRANCH   4   7
ENDBRANCH   1   4
BRANCH   1  18
ATOM     18  C   UNL     1       1.825   7.017  20.234  0.00  0.00    +0.000 C 
BRANCH  18  19
ATOM     19  O   UNL     1       1.888   8.436  20.105  0.00  0.00    +0.000 OA
BRANCH  19  20
ATOM     20  C   UNL     1       0.950   9.172  20.758  0.00  0.00    +0.000 A 
ATOM     21  C   UNL     1       0.876   8.936  22.132  0.00  0.00    +0.000 A 
ATOM     22  C   UNL     1       0.006   9.672  22.938  0.00  0.00    +0.000 A 
ATOM     23  C   UNL     1      -0.802  10.666  22.377  0.00  0.00    +0.000 A 
ATOM     24  C   UNL     1      -0.736  10.892  20.995  0.00  0.00    +0.000 A 
ATOM     25  C   UNL     1       0.134  10.147  20.188  0.00  0.00    +0.000 A 
BRANCH  23  26
ATOM     26  C   UNL     1      -1.706  11.502  23.253  0.00  0.00    +0.000 C 
BRANCH  26  27
ATOM     27  C   UNL     1      -1.544  13.011  23.165  0.00  0.00    +0.000 C 
ATOM     28  N   UNL     1      -2.577  13.759  22.691  0.00  0.00    +0.000 N 
ATOM     29  O   UNL     1      -0.505  13.569  23.514  0.00  0.00    +0.000 OA
ATOM     30  H   UNL     1      -3.412  13.359  22.286  0.00  0.00    +0.000 HD
ATOM     31  H   UNL     1      -2.432  14.758  22.607  0.00  0.00    +0.000 HD
ENDBRANCH  26  27
ENDBRANCH  23  26
ENDBRANCH  19  20
ENDBRANCH  18  19
ENDBRANCH   1  18
TORSDOF 13
ENDMDL
MODEL 9
REMARK VINA RESULT:      -6.4      1.385      2.106
REMARK  Name = 
REMARK  17 active torsions:
REMARK  status: ('A' for Active; 'I' for Inactive)
REMARK    1  A    between atoms: C_1  and  C_2
REMARK    2  A    between atoms: C_2  and  O_4
REMARK    3  A    between atoms: O_4  and  C_5
REMARK    4  A    between atoms: C_5  and  C_6
REMARK    5  A    between atoms: C_5  and  O_7
REMARK    6  A    between atoms: O_7  and  C_8
REMARK    7  A    between atoms: N_10  and  C_11
REMARK    8  A    between atoms: N_10  and  C_26
REMARK    9  A    between atoms: C_11  and  C_12
REMARK   10  A    between atoms: C_12  and  O_13
REMARK   11  A    between atoms: C_12  and  C_14
REMARK   12  A    between atoms: C_14  and  O_15
REMARK   13  A    between atoms: O_15  and  C_16
REMARK   14  A    between atoms: C_19  and  C_20
REMARK   15  A    between atoms: C_20  and  C_21
REMARK   16  A    between atoms: C_26  and  C_27
REMARK   17  A    between atoms: C_26  and  C_28
REMARK                            x       y       z     vdW  Elec       q    Type
REMARK                         _______ _______ _______ _____ _____    ______ ____
ROOT
ATOM      1  C   UNL     1       1.805   6.025  20.226  0.00  0.00    +0.000 C 
ENDROOT
BRANCH   1   2
ATOM      2  O   UNL     1       2.509   5.427  21.320  0.00  0.00    +0.000 OA
ATOM      3  H   UNL     1       1.955   5.503  22.115  0.00  0.00    +0.000 HD
ENDBRANCH   1   2
BRANCH   1   4
ATOM      4  C   UNL     1       2.319   5.522  18.852  0.00  0.00    +0.000 C 
BRANCH   4   7
ATOM      5  C   UNL     1       4.338   4.117  19.239  0.00  0.00    +0.000 C 
ATOM      6  O   UNL     1       4.905   3.100  19.612  0.00  0.00    +0.000 OA
ATOM      7  N   UNL     1       2.988   4.207  18.897  0.00  0.00    +0.000 N 
BRANCH   7   8
ATOM      8  C   UNL     1       2.196   2.969  18.735  0.00  0.00    +0.000 C 
ATOM      9  C   UNL     1       2.858   1.940  17.818  0.00  0.00    +0.000 C 
ATOM     10  C   UNL     1       1.849   2.333  20.086  0.00  0.00    +0.000 C 
ENDBRANCH   7   8
BRANCH   5  11
ATOM     11  O   UNL     1       4.961   5.312  19.075  0.00  0.00    +0.000 OA
BRANCH  11  12
ATOM     12  C   UNL     1       5.815   5.478  17.930  0.00  0.00    +0.000 C 
ATOM     13  C   UNL     1       5.397   6.840  17.370  0.00  0.00    +0.000 C 
BRANCH  12  14
ATOM     14  O   UNL     1       5.627   4.487  16.913  0.00  0.00    +0.000 OA
BRANCH  14  16
ATOM     15  C   UNL     1       6.270   3.996  14.695  0.00  0.00    +0.000 C 
ATOM     16  C   UNL     1       6.700   4.360  16.083  0.00  0.00    +0.000 C 
ATOM     17  O   UNL     1       7.869   4.532  16.403  0.00  0.00    +0.000 OA
ENDBRANCH  14  16
ENDBRANCH  12  14
ENDBRANCH  11  12
ENDBRANCH   5  11
ENDBRANCH   4   7
ENDBRANCH   1   4
BRANCH   1  18
ATOM     18  C   UNL     1       1.913   7.556  20.323  0.00  0.00    +0.000 C 
BRANCH  18  19
ATOM     19  O   UNL     1       1.281   7.974  21.532  0.00  0.00    +0.000 OA
BRANCH  19  20
ATOM     20  C   UNL     1       0.634   9.170  21.527  0.00  0.00    +0.000 A 
ATOM     21  C   UNL     1       0.555   9.785  20.276  0.00  0.00    +0.000 A 
ATOM     22  C   UNL     1      -0.141  10.982  20.111  0.00  0.00    +0.000 A 
ATOM     23  C   UNL     1      -0.779  11.583  21.202  0.00  0.00    +0.000 A 
ATOM     24  C   UNL     1      -0.686  10.971  22.461  0.00  0.00    +0.000 A 
ATOM     25  C   UNL     1       0.020   9.771  22.624  0.00  0.00    +0.000 A 
BRANCH  23  26
ATOM     26  C   UNL     1      -1.579  12.852  21.019  0.00  0.00    +0.000 C 
BRANCH  26  27
ATOM     27  C   UNL     1      -3.075  12.694  20.807  0.00  0.00    +0.000 C 
ATOM     28  N   UNL     1      -3.564  12.666  19.537  0.00  0.00    +0.000 N 
ATOM     29  O   UNL     1      -3.853  12.590  21.754  0.00  0.00    +0.000 OA
ATOM     30  H   UNL     1      -2.998  12.857  18.721  0.00  0.00    +0.000 HD
ATOM     31  H   UNL     1      -4.567  12.598  19.422  0.00  0.00    +0.000 HD
ENDBRANCH  26  27
ENDBRANCH  23  26
ENDBRANCH  19  20
ENDBRANCH  18  19
ENDBRANCH   1  18
TORSDOF 13
ENDMDL
