MODEL 1
REMARK VINA RESULT:      -8.3      0.000      0.000
REMARK  Name = 
REMARK  7 active torsions:
REMARK  status: ('A' for Active; 'I' for Inactive)
REMARK    1  A    between atoms: C_2  and  C_3
REMARK    2  A    between atoms: C_3  and  O_4
REMARK    3  A    between atoms: O_4  and  C_5
REMARK    4  A    between atoms: C_5  and  C_7
REMARK    5  A    between atoms: C_7  and  C_8
REMARK    6  A    between atoms: N_15  and  N_16
REMARK    7  A    between atoms: C_17  and  C_19
REMARK                            x       y       z     vdW  Elec       q    Type
REMARK                         _______ _______ _______ _____ _____    ______ ____
ROOT
ATOM      1  O   UNL     1       7.776   5.595  20.317  0.00  0.00    +0.000 OA
ATOM      2  C   UNL     1       7.431   5.627  19.138  0.00  0.00    +0.000 C 
ATOM      3  N   UNL     1       7.700   6.694  18.298  0.00  0.00    +0.000 N 
ATOM      4  H   UNL     1       7.604   6.606  17.280  0.00  0.00    +0.000 HD
ENDROOT
BRANCH   3   5
ATOM      5  N   UNL     1       8.496   7.758  18.750  0.00  0.00    +0.000 N 
ATOM      6  C   UNL     1       8.309   8.985  18.136  0.00  0.00    +0.000 C 
ATOM      7  O   UNL     1       7.525   9.154  17.208  0.00  0.00    +0.000 OA
ATOM      8  H   UNL     1       8.958   7.639  19.647  0.00  0.00    +0.000 HD
BRANCH   6   9
ATOM      9  C   UNL     1       9.086  10.136  18.674  0.00  0.00    +0.000 A 
ATOM     10  C   UNL     1       9.759  11.029  17.832  0.00  0.00    +0.000 A 
ATOM     11  C   UNL     1      10.467  12.105  18.379  0.00  0.00    +0.000 A 
ATOM     12  C   UNL     1      10.497  12.290  19.763  0.00  0.00    +0.000 A 
ATOM     13 CL   UNL     1      11.382  13.607  20.427  0.00  0.00    +0.000 Cl
ATOM     14  C   UNL     1       9.811  11.419  20.607  0.00  0.00    +0.000 A 
ATOM     15  C   UNL     1       9.099  10.346  20.061  0.00  0.00    +0.000 A 
ENDBRANCH   6   9
ENDBRANCH   3   5
BRANCH   2  16
ATOM     16  C   UNL     1       6.631   4.509  18.458  0.00  0.00    +0.000 C 
BRANCH  16  17
ATOM     17  O   UNL     1       5.219   4.722  18.455  0.00  0.00    +0.000 OA
BRANCH  17  18
ATOM     18  C   UNL     1       4.557   4.162  17.407  0.00  0.00    +0.000 C 
ATOM     19  O   UNL     1       4.524   4.647  16.280  0.00  0.00    +0.000 OA
BRANCH  18  20
ATOM     20  C   UNL     1       3.876   2.873  17.798  0.00  0.00    +0.000 C 
BRANCH  20  21
ATOM     21  C   UNL     1       2.994   3.015  19.007  0.00  0.00    +0.000 A 
ATOM     22  C   UNL     1       3.414   2.580  20.272  0.00  0.00    +0.000 A 
ATOM     23  C   UNL     1       2.581   2.741  21.385  0.00  0.00    +0.000 A 
ATOM     24  C   UNL     1       1.329   3.340  21.247  0.00  0.00    +0.000 A 
ATOM     25  C   UNL     1       0.904   3.773  19.993  0.00  0.00    +0.000 A 
ATOM     26  C   UNL     1       1.734   3.607  18.889  0.00  0.00    +0.000 A 
ATOM     27  F   UNL     1       1.303   4.018  17.688  0.00  0.00    +0.000 F 
ENDBRANCH  20  21
ENDBRANCH  18  20
ENDBRANCH  17  18
ENDBRANCH  16  17
ENDBRANCH   2  16
TORSDOF 7
ENDMDL
MODEL 2
REMARK VINA RESULT:      -8.0      1.975      2.712
REMARK  Name = 
REMARK  7 active torsions:
REMARK  status: ('A' for Active; 'I' for Inactive)
REMARK    1  A    between atoms: C_2  and  C_3
REMARK    2  A    between atoms: C_3  and  O_4
REMARK    3  A    between atoms: O_4  and  C_5
REMARK    4  A    between atoms: C_5  and  C_7
REMARK    5  A    between atoms: C_7  and  C_8
REMARK    6  A    between atoms: N_15  and  N_16
REMARK    7  A    between atoms: C_17  and  C_19
REMARK                            x       y       z     vdW  Elec       q    Type
REMARK                         _______ _______ _______ _____ _____    ______ ____
ROOT
ATOM      1  O   UNL     1       7.451   7.571  16.744  0.00  0.00    +0.000 OA
ATOM      2  C   UNL     1       7.758   7.359  17.914  0.00  0.00    +0.000 C 
ATOM      3  N   UNL     1       8.485   8.252  18.682  0.00  0.00    +0.000 N 
ATOM      4  H   UNL     1       8.535   8.157  19.702  0.00  0.00    +0.000 HD
ENDROOT
BRANCH   3   5
ATOM      5  N   UNL     1       8.807   9.518  18.166  0.00  0.00    +0.000 N 
ATOM      6  C   UNL     1       9.286  10.456  19.065  0.00  0.00    +0.000 C 
ATOM      7  O   UNL     1       9.392  10.236  20.267  0.00  0.00    +0.000 OA
ATOM      8  H   UNL     1       8.919   9.590  17.159  0.00  0.00    +0.000 HD
BRANCH   6   9
ATOM      9  C   UNL     1       9.715  11.768  18.507  0.00  0.00    +0.000 A 
ATOM     10  C   UNL     1      10.785  11.875  17.612  0.00  0.00    +0.000 A 
ATOM     11  C   UNL     1      11.148  13.126  17.101  0.00  0.00    +0.000 A 
ATOM     12  C   UNL     1      10.438  14.267  17.481  0.00  0.00    +0.000 A 
ATOM     13 CL   UNL     1      10.899  15.804  16.861  0.00  0.00    +0.000 Cl
ATOM     14  C   UNL     1       9.356  14.168  18.354  0.00  0.00    +0.000 A 
ATOM     15  C   UNL     1       8.991  12.916  18.861  0.00  0.00    +0.000 A 
ENDBRANCH   6   9
ENDBRANCH   3   5
BRANCH   2  16
ATOM     16  C   UNL     1       7.410   6.065  18.661  0.00  0.00    +0.000 C 
BRANCH  16  17
ATOM     17  O   UNL     1       7.325   4.912  17.822  0.00  0.00    +0.000 OA
BRANCH  17  18
ATOM     18  C   UNL     1       6.063   4.446  17.617  0.00  0.00    +0.000 C 
ATOM     19  O   UNL     1       5.686   3.926  16.571  0.00  0.00    +0.000 OA
BRANCH  18  20
ATOM     20  C   UNL     1       5.188   4.643  18.831  0.00  0.00    +0.000 C 
BRANCH  20  21
ATOM     21  C   UNL     1       3.799   4.098  18.652  0.00  0.00    +0.000 A 
ATOM     22  C   UNL     1       2.776   4.875  18.090  0.00  0.00    +0.000 A 
ATOM     23  C   UNL     1       1.496   4.338  17.918  0.00  0.00    +0.000 A 
ATOM     24  C   UNL     1       1.227   3.022  18.297  0.00  0.00    +0.000 A 
ATOM     25  C   UNL     1       2.238   2.244  18.858  0.00  0.00    +0.000 A 
ATOM     26  C   UNL     1       3.508   2.785  19.031  0.00  0.00    +0.000 A 
ATOM     27  F   UNL     1       4.464   2.026  19.583  0.00  0.00    +0.000 F 
ENDBRANCH  20  21
ENDBRANCH  18  20
ENDBRANCH  17  18
ENDBRANCH  16  17
ENDBRANCH   2  16
TORSDOF 7
ENDMDL
MODEL 3
REMARK VINA RESULT:      -8.0      5.250      7.449
REMARK  Name = 
REMARK  7 active torsions:
REMARK  status: ('A' for Active; 'I' for Inactive)
REMARK    1  A    between atoms: C_2  and  C_3
REMARK    2  A    between atoms: C_3  and  O_4
REMARK    3  A    between atoms: O_4  and  C_5
REMARK    4  A    between atoms: C_5  and  C_7
REMARK    5  A    between atoms: C_7  and  C_8
REMARK    6  A    between atoms: N_15  and  N_16
REMARK    7  A    between atoms: C_17  and  C_19
REMARK                            x       y       z     vdW  Elec       q    Type
REMARK                         _______ _______ _______ _____ _____    ______ ____
ROOT
ATOM      1  O   UNL     1       0.786   4.599  20.749  0.00  0.00    +0.000 OA
ATOM      2  C   UNL     1       1.914   4.896  20.363  0.00  0.00    +0.000 C 
ATOM      3  N   UNL     1       2.440   6.172  20.468  0.00  0.00    +0.000 N 
ATOM      4  H   UNL     1       3.445   6.344  20.350  0.00  0.00    +0.000 HD
ENDROOT
BRANCH   3   5
ATOM      5  N   UNL     1       1.720   7.172  21.141  0.00  0.00    +0.000 N 
ATOM      6  C   UNL     1       1.419   8.317  20.423  0.00  0.00    +0.000 C 
ATOM      7  O   UNL     1       1.788   8.497  19.267  0.00  0.00    +0.000 OA
ATOM      8  H   UNL     1       1.249   6.902  21.999  0.00  0.00    +0.000 HD
BRANCH   6   9
ATOM      9  C   UNL     1       0.578   9.341  21.103  0.00  0.00    +0.000 A 
ATOM     10  C   UNL     1       0.112  10.477  20.432  0.00  0.00    +0.000 A 
ATOM     11  C   UNL     1      -0.686  11.408  21.106  0.00  0.00    +0.000 A 
ATOM     12  C   UNL     1      -1.022  11.200  22.446  0.00  0.00    +0.000 A 
ATOM     13 CL   UNL     1      -1.992  12.357  23.271  0.00  0.00    +0.000 Cl
ATOM     14  C   UNL     1      -0.582  10.060  23.115  0.00  0.00    +0.000 A 
ATOM     15  C   UNL     1       0.213   9.127  22.441  0.00  0.00    +0.000 A 
ENDBRANCH   6   9
ENDBRANCH   3   5
BRANCH   2  16
ATOM     16  C   UNL     1       2.868   3.904  19.685  0.00  0.00    +0.000 C 
BRANCH  16  17
ATOM     17  O   UNL     1       3.613   4.460  18.601  0.00  0.00    +0.000 OA
BRANCH  17  18
ATOM     18  C   UNL     1       3.965   3.571  17.633  0.00  0.00    +0.000 C 
ATOM     19  O   UNL     1       3.598   2.400  17.613  0.00  0.00    +0.000 OA
BRANCH  18  20
ATOM     20  C   UNL     1       4.855   4.201  16.590  0.00  0.00    +0.000 C 
BRANCH  20  21
ATOM     21  C   UNL     1       5.875   5.139  17.172  0.00  0.00    +0.000 A 
ATOM     22  C   UNL     1       6.818   4.701  18.112  0.00  0.00    +0.000 A 
ATOM     23  C   UNL     1       7.769   5.590  18.624  0.00  0.00    +0.000 A 
ATOM     24  C   UNL     1       7.792   6.919  18.199  0.00  0.00    +0.000 A 
ATOM     25  C   UNL     1       6.857   7.362  17.266  0.00  0.00    +0.000 A 
ATOM     26  C   UNL     1       5.911   6.475  16.764  0.00  0.00    +0.000 A 
ATOM     27  F   UNL     1       5.012   6.923  15.876  0.00  0.00    +0.000 F 
ENDBRANCH  20  21
ENDBRANCH  18  20
ENDBRANCH  17  18
ENDBRANCH  16  17
ENDBRANCH   2  16
TORSDOF 7
ENDMDL
MODEL 4
REMARK VINA RESULT:      -7.9      5.105      7.014
REMARK  Name = 
REMARK  7 active torsions:
REMARK  status: ('A' for Active; 'I' for Inactive)
REMARK    1  A    between atoms: C_2  and  C_3
REMARK    2  A    between atoms: C_3  and  O_4
REMARK    3  A    between atoms: O_4  and  C_5
REMARK    4  A    between atoms: C_5  and  C_7
REMARK    5  A    between atoms: C_7  and  C_8
REMARK    6  A    between atoms: N_15  and  N_16
REMARK    7  A    between atoms: C_17  and  C_19
REMARK                            x       y       z     vdW  Elec       q    Type
REMARK                         _______ _______ _______ _____ _____    ______ ____
ROOT
ATOM      1  O   UNL     1       0.639   4.057  20.290  0.00  0.00    +0.000 OA
ATOM      2  C   UNL     1       1.795   4.052  20.703  0.00  0.00    +0.000 C 
ATOM      3  N   UNL     1       2.494   5.205  21.016  0.00  0.00    +0.000 N 
ATOM      4  H   UNL     1       3.362   5.169  21.562  0.00  0.00    +0.000 HD
ENDROOT
BRANCH   3   5
ATOM      5  N   UNL     1       1.844   6.449  20.978  0.00  0.00    +0.000 N 
ATOM      6  C   UNL     1       2.131   7.271  19.901  0.00  0.00    +0.000 C 
ATOM      7  O   UNL     1       2.943   6.974  19.031  0.00  0.00    +0.000 OA
ATOM      8  H   UNL     1       1.032   6.563  21.576  0.00  0.00    +0.000 HD
BRANCH   6   9
ATOM      9  C   UNL     1       1.376   8.552  19.808  0.00  0.00    +0.000 A 
ATOM     10  C   UNL     1       0.668   9.071  20.898  0.00  0.00    +0.000 A 
ATOM     11  C   UNL     1      -0.018  10.284  20.772  0.00  0.00    +0.000 A 
ATOM     12  C   UNL     1       0.009  10.978  19.561  0.00  0.00    +0.000 A 
ATOM     13 CL   UNL     1      -0.849  12.462  19.410  0.00  0.00    +0.000 Cl
ATOM     14  C   UNL     1       0.730  10.481  18.478  0.00  0.00    +0.000 A 
ATOM     15  C   UNL     1       1.420   9.271  18.604  0.00  0.00    +0.000 A 
ENDBRANCH   6   9
ENDBRANCH   3   5
BRANCH   2  16
ATOM     16  C   UNL     1       2.625   2.775  20.889  0.00  0.00    +0.000 C 
BRANCH  16  17
ATOM     17  O   UNL     1       3.811   2.730  20.095  0.00  0.00    +0.000 OA
BRANCH  17  18
ATOM     18  C   UNL     1       3.607   2.466  18.776  0.00  0.00    +0.000 C 
ATOM     19  O   UNL     1       3.468   1.336  18.317  0.00  0.00    +0.000 OA
BRANCH  18  20
ATOM     20  C   UNL     1       3.570   3.729  17.951  0.00  0.00    +0.000 C 
BRANCH  20  21
ATOM     21  C   UNL     1       4.912   4.108  17.391  0.00  0.00    +0.000 A 
ATOM     22  C   UNL     1       5.272   3.785  16.074  0.00  0.00    +0.000 A 
ATOM     23  C   UNL     1       6.520   4.166  15.571  0.00  0.00    +0.000 A 
ATOM     24  C   UNL     1       7.415   4.877  16.370  0.00  0.00    +0.000 A 
ATOM     25  C   UNL     1       7.066   5.201  17.679  0.00  0.00    +0.000 A 
ATOM     26  C   UNL     1       5.825   4.816  18.177  0.00  0.00    +0.000 A 
ATOM     27  F   UNL     1       5.511   5.125  19.443  0.00  0.00    +0.000 F 
ENDBRANCH  20  21
ENDBRANCH  18  20
ENDBRANCH  17  18
ENDBRANCH  16  17
ENDBRANCH   2  16
TORSDOF 7
ENDMDL
MODEL 5
REMARK VINA RESULT:      -7.8      1.786      2.378
REMARK  Name = 
REMARK  7 active torsions:
REMARK  status: ('A' for Active; 'I' for Inactive)
REMARK    1  A    between atoms: C_2  and  C_3
REMARK    2  A    between atoms: C_3  and  O_4
REMARK    3  A    between atoms: O_4  and  C_5
REMARK    4  A    between atoms: C_5  and  C_7
REMARK    5  A    between atoms: C_7  and  C_8
REMARK    6  A    between atoms: N_15  and  N_16
REMARK    7  A    between atoms: C_17  and  C_19
REMARK                            x       y       z     vdW  Elec       q    Type
REMARK                         _______ _______ _______ _____ _____    ______ ____
ROOT
ATOM      1  O   UNL     1       7.546   7.457  16.710  0.00  0.00    +0.000 OA
ATOM      2  C   UNL     1       7.743   7.299  17.913  0.00  0.00    +0.000 C 
ATOM      3  N   UNL     1       8.388   8.232  18.705  0.00  0.00    +0.000 N 
ATOM      4  H   UNL     1       8.343   8.182  19.729  0.00  0.00    +0.000 HD
ENDROOT
BRANCH   3   5
ATOM      5  N   UNL     1       8.751   9.477  18.166  0.00  0.00    +0.000 N 
ATOM      6  C   UNL     1       9.219  10.431  19.054  0.00  0.00    +0.000 C 
ATOM      7  O   UNL     1       9.282  10.243  20.265  0.00  0.00    +0.000 OA
ATOM      8  H   UNL     1       8.897   9.519  17.162  0.00  0.00    +0.000 HD
BRANCH   6   9
ATOM      9  C   UNL     1       9.690  11.720  18.476  0.00  0.00    +0.000 A 
ATOM     10  C   UNL     1       8.994  12.917  18.679  0.00  0.00    +0.000 A 
ATOM     11  C   UNL     1       9.479  14.109  18.128  0.00  0.00    +0.000 A 
ATOM     12  C   UNL     1      10.658  14.103  17.380  0.00  0.00    +0.000 A 
ATOM     13 CL   UNL     1      11.239  15.570  16.694  0.00  0.00    +0.000 Cl
ATOM     14  C   UNL     1      11.369  12.920  17.192  0.00  0.00    +0.000 A 
ATOM     15  C   UNL     1      10.888  11.729  17.747  0.00  0.00    +0.000 A 
ENDBRANCH   6   9
ENDBRANCH   3   5
BRANCH   2  16
ATOM     16  C   UNL     1       7.332   6.035  18.680  0.00  0.00    +0.000 C 
BRANCH  16  17
ATOM     17  O   UNL     1       6.665   5.058  17.880  0.00  0.00    +0.000 OA
BRANCH  17  18
ATOM     18  C   UNL     1       5.307   5.099  17.943  0.00  0.00    +0.000 C 
ATOM     19  O   UNL     1       4.645   6.124  17.813  0.00  0.00    +0.000 OA
BRANCH  18  20
ATOM     20  C   UNL     1       4.716   3.732  18.187  0.00  0.00    +0.000 C 
BRANCH  20  21
ATOM     21  C   UNL     1       3.403   3.777  18.916  0.00  0.00    +0.000 A 
ATOM     22  C   UNL     1       3.237   4.550  20.075  0.00  0.00    +0.000 A 
ATOM     23  C   UNL     1       1.999   4.590  20.724  0.00  0.00    +0.000 A 
ATOM     24  C   UNL     1       0.916   3.868  20.221  0.00  0.00    +0.000 A 
ATOM     25  C   UNL     1       1.073   3.097  19.072  0.00  0.00    +0.000 A 
ATOM     26  C   UNL     1       2.308   3.057  18.433  0.00  0.00    +0.000 A 
ATOM     27  F   UNL     1       2.444   2.300  17.335  0.00  0.00    +0.000 F 
ENDBRANCH  20  21
ENDBRANCH  18  20
ENDBRANCH  17  18
ENDBRANCH  16  17
ENDBRANCH   2  16
TORSDOF 7
ENDMDL
MODEL 6
REMARK VINA RESULT:      -7.8      5.032      7.378
REMARK  Name = 
REMARK  7 active torsions:
REMARK  status: ('A' for Active; 'I' for Inactive)
REMARK    1  A    between atoms: C_2  and  C_3
REMARK    2  A    between atoms: C_3  and  O_4
REMARK    3  A    between atoms: O_4  and  C_5
REMARK    4  A    between atoms: C_5  and  C_7
REMARK    5  A    between atoms: C_7  and  C_8
REMARK    6  A    between atoms: N_15  and  N_16
REMARK    7  A    between atoms: C_17  and  C_19
REMARK                            x       y       z     vdW  Elec       q    Type
REMARK                         _______ _______ _______ _____ _____    ______ ____
ROOT
ATOM      1  O   UNL     1       0.686   4.252  20.456  0.00  0.00    +0.000 OA
ATOM      2  C   UNL     1       1.898   4.430  20.362  0.00  0.00    +0.000 C 
ATOM      3  N   UNL     1       2.513   5.634  20.658  0.00  0.00    +0.000 N 
ATOM      4  H   UNL     1       3.529   5.693  20.787  0.00  0.00    +0.000 HD
ENDROOT
BRANCH   3   5
ATOM      5  N   UNL     1       1.762   6.689  21.200  0.00  0.00    +0.000 N 
ATOM      6  C   UNL     1       1.590   7.808  20.403  0.00  0.00    +0.000 C 
ATOM      7  O   UNL     1       2.095   7.921  19.291  0.00  0.00    +0.000 OA
ATOM      8  H   UNL     1       1.185   6.476  22.008  0.00  0.00    +0.000 HD
BRANCH   6   9
ATOM      9  C   UNL     1       0.718   8.891  20.938  0.00  0.00    +0.000 A 
ATOM     10  C   UNL     1       0.424   8.995  22.302  0.00  0.00    +0.000 A 
ATOM     11  C   UNL     1      -0.389  10.035  22.764  0.00  0.00    +0.000 A 
ATOM     12  C   UNL     1      -0.903  10.972  21.865  0.00  0.00    +0.000 A 
ATOM     13 CL   UNL     1      -1.914  12.240  22.440  0.00  0.00    +0.000 Cl
ATOM     14  C   UNL     1      -0.596  10.890  20.508  0.00  0.00    +0.000 A 
ATOM     15  C   UNL     1       0.221   9.853  20.046  0.00  0.00    +0.000 A 
ENDBRANCH   6   9
ENDBRANCH   3   5
BRANCH   2  16
ATOM     16  C   UNL     1       2.877   3.356  19.870  0.00  0.00    +0.000 C 
BRANCH  16  17
ATOM     17  O   UNL     1       3.848   3.836  18.939  0.00  0.00    +0.000 OA
BRANCH  17  18
ATOM     18  C   UNL     1       3.895   3.159  17.761  0.00  0.00    +0.000 C 
ATOM     19  O   UNL     1       3.505   2.003  17.619  0.00  0.00    +0.000 OA
BRANCH  18  20
ATOM     20  C   UNL     1       4.478   4.000  16.652  0.00  0.00    +0.000 C 
BRANCH  20  21
ATOM     21  C   UNL     1       5.554   4.936  17.125  0.00  0.00    +0.000 A 
ATOM     22  C   UNL     1       6.711   4.460  17.759  0.00  0.00    +0.000 A 
ATOM     23  C   UNL     1       7.706   5.351  18.172  0.00  0.00    +0.000 A 
ATOM     24  C   UNL     1       7.561   6.721  17.952  0.00  0.00    +0.000 A 
ATOM     25  C   UNL     1       6.415   7.203  17.325  0.00  0.00    +0.000 A 
ATOM     26  C   UNL     1       5.426   6.312  16.919  0.00  0.00    +0.000 A 
ATOM     27  F   UNL     1       4.324   6.795  16.328  0.00  0.00    +0.000 F 
ENDBRANCH  20  21
ENDBRANCH  18  20
ENDBRANCH  17  18
ENDBRANCH  16  17
ENDBRANCH   2  16
TORSDOF 7
ENDMDL
MODEL 7
REMARK VINA RESULT:      -7.7      1.956      2.669
REMARK  Name = 
REMARK  7 active torsions:
REMARK  status: ('A' for Active; 'I' for Inactive)
REMARK    1  A    between atoms: C_2  and  C_3
REMARK    2  A    between atoms: C_3  and  O_4
REMARK    3  A    between atoms: O_4  and  C_5
REMARK    4  A    between atoms: C_5  and  C_7
REMARK    5  A    between atoms: C_7  and  C_8
REMARK    6  A    between atoms: N_15  and  N_16
REMARK    7  A    between atoms: C_17  and  C_19
REMARK                            x       y       z     vdW  Elec       q    Type
REMARK                         _______ _______ _______ _____ _____    ______ ____
ROOT
ATOM      1  O   UNL     1       7.364   7.599  16.833  0.00  0.00    +0.000 OA
ATOM      2  C   UNL     1       7.761   7.363  17.971  0.00  0.00    +0.000 C 
ATOM      3  N   UNL     1       8.569   8.230  18.688  0.00  0.00    +0.000 N 
ATOM      4  H   UNL     1       8.701   8.119  19.699  0.00  0.00    +0.000 HD
ENDROOT
BRANCH   3   5
ATOM      5  N   UNL     1       8.877   9.495  18.163  0.00  0.00    +0.000 N 
ATOM      6  C   UNL     1       9.252  10.474  19.068  0.00  0.00    +0.000 C 
ATOM      7  O   UNL     1       9.279  10.287  20.280  0.00  0.00    +0.000 OA
ATOM      8  H   UNL     1       9.059   9.548  17.165  0.00  0.00    +0.000 HD
BRANCH   6   9
ATOM      9  C   UNL     1       9.667  11.789  18.508  0.00  0.00    +0.000 A 
ATOM     10  C   UNL     1       8.957  12.964  18.780  0.00  0.00    +0.000 A 
ATOM     11  C   UNL     1       9.389  14.182  18.244  0.00  0.00    +0.000 A 
ATOM     12  C   UNL     1      10.531  14.225  17.442  0.00  0.00    +0.000 A 
ATOM     13 CL   UNL     1      11.048  15.724  16.774  0.00  0.00    +0.000 Cl
ATOM     14  C   UNL     1      11.258  13.065  17.184  0.00  0.00    +0.000 A 
ATOM     15  C   UNL     1      10.829  11.847  17.724  0.00  0.00    +0.000 A 
ENDBRANCH   6   9
ENDBRANCH   3   5
BRANCH   2  16
ATOM     16  C   UNL     1       7.445   6.067  18.728  0.00  0.00    +0.000 C 
BRANCH  16  17
ATOM     17  O   UNL     1       6.055   5.745  18.777  0.00  0.00    +0.000 OA
BRANCH  17  18
ATOM     18  C   UNL     1       5.722   4.558  18.202  0.00  0.00    +0.000 C 
ATOM     19  O   UNL     1       5.855   4.315  17.006  0.00  0.00    +0.000 OA
BRANCH  18  20
ATOM     20  C   UNL     1       5.174   3.580  19.212  0.00  0.00    +0.000 C 
BRANCH  20  21
ATOM     21  C   UNL     1       3.675   3.601  19.302  0.00  0.00    +0.000 A 
ATOM     22  C   UNL     1       2.893   4.240  18.330  0.00  0.00    +0.000 A 
ATOM     23  C   UNL     1       1.497   4.229  18.427  0.00  0.00    +0.000 A 
ATOM     24  C   UNL     1       0.870   3.576  19.488  0.00  0.00    +0.000 A 
ATOM     25  C   UNL     1       1.640   2.939  20.460  0.00  0.00    +0.000 A 
ATOM     26  C   UNL     1       3.027   2.957  20.360  0.00  0.00    +0.000 A 
ATOM     27  F   UNL     1       3.752   2.350  21.311  0.00  0.00    +0.000 F 
ENDBRANCH  20  21
ENDBRANCH  18  20
ENDBRANCH  17  18
ENDBRANCH  16  17
ENDBRANCH   2  16
TORSDOF 7
ENDMDL
MODEL 8
REMARK VINA RESULT:      -7.7      1.306      1.701
REMARK  Name = 
REMARK  7 active torsions:
REMARK  status: ('A' for Active; 'I' for Inactive)
REMARK    1  A    between atoms: C_2  and  C_3
REMARK    2  A    between atoms: C_3  and  O_4
REMARK    3  A    between atoms: O_4  and  C_5
REMARK    4  A    between atoms: C_5  and  C_7
REMARK    5  A    between atoms: C_7  and  C_8
REMARK    6  A    between atoms: N_15  and  N_16
REMARK    7  A    between atoms: C_17  and  C_19
REMARK                            x       y       z     vdW  Elec       q    Type
REMARK                         _______ _______ _______ _____ _____    ______ ____
ROOT
ATOM      1  O   UNL     1       7.883   5.720  20.355  0.00  0.00    +0.000 OA
ATOM      2  C   UNL     1       7.678   5.704  19.144  0.00  0.00    +0.000 C 
ATOM      3  N   UNL     1       7.953   6.777  18.314  0.00  0.00    +0.000 N 
ATOM      4  H   UNL     1       7.984   6.666  17.295  0.00  0.00    +0.000 HD
ENDROOT
BRANCH   3   5
ATOM      5  N   UNL     1       8.600   7.912  18.829  0.00  0.00    +0.000 N 
ATOM      6  C   UNL     1       8.365   9.114  18.181  0.00  0.00    +0.000 C 
ATOM      7  O   UNL     1       7.666   9.206  17.178  0.00  0.00    +0.000 OA
ATOM      8  H   UNL     1       8.977   7.840  19.769  0.00  0.00    +0.000 HD
BRANCH   6   9
ATOM      9  C   UNL     1       8.976  10.333  18.778  0.00  0.00    +0.000 A 
ATOM     10  C   UNL     1       9.242  11.475  18.013  0.00  0.00    +0.000 A 
ATOM     11  C   UNL     1       9.806  12.604  18.616  0.00  0.00    +0.000 A 
ATOM     12  C   UNL     1      10.097  12.595  19.981  0.00  0.00    +0.000 A 
ATOM     13 CL   UNL     1      10.803  13.983  20.712  0.00  0.00    +0.000 Cl
ATOM     14  C   UNL     1       9.813  11.472  20.756  0.00  0.00    +0.000 A 
ATOM     15  C   UNL     1       9.246  10.343  20.155  0.00  0.00    +0.000 A 
ENDBRANCH   6   9
ENDBRANCH   3   5
BRANCH   2  16
ATOM     16  C   UNL     1       7.058   4.512  18.404  0.00  0.00    +0.000 C 
BRANCH  16  17
ATOM     17  O   UNL     1       6.622   4.812  17.077  0.00  0.00    +0.000 OA
BRANCH  17  18
ATOM     18  C   UNL     1       5.287   4.661  16.866  0.00  0.00    +0.000 C 
ATOM     19  O   UNL     1       4.804   4.198  15.836  0.00  0.00    +0.000 OA
BRANCH  18  20
ATOM     20  C   UNL     1       4.475   5.127  18.049  0.00  0.00    +0.000 C 
BRANCH  20  21
ATOM     21  C   UNL     1       3.319   4.221  18.367  0.00  0.00    +0.000 A 
ATOM     22  C   UNL     1       2.037   4.465  17.854  0.00  0.00    +0.000 A 
ATOM     23  C   UNL     1       0.982   3.595  18.149  0.00  0.00    +0.000 A 
ATOM     24  C   UNL     1       1.196   2.473  18.950  0.00  0.00    +0.000 A 
ATOM     25  C   UNL     1       2.467   2.224  19.464  0.00  0.00    +0.000 A 
ATOM     26  C   UNL     1       3.512   3.095  19.171  0.00  0.00    +0.000 A 
ATOM     27  F   UNL     1       4.725   2.846  19.685  0.00  0.00    +0.000 F 
ENDBRANCH  20  21
ENDBRANCH  18  20
ENDBRANCH  17  18
ENDBRANCH  16  17
ENDBRANCH   2  16
TORSDOF 7
ENDMDL
MODEL 9
REMARK VINA RESULT:      -7.6      5.667      7.217
REMARK  Name = 
REMARK  7 active torsions:
REMARK  status: ('A' for Active; 'I' for Inactive)
REMARK    1  A    between atoms: C_2  and  C_3
REMARK    2  A    between atoms: C_3  and  O_4
REMARK    3  A    between atoms: O_4  and  C_5
REMARK    4  A    between atoms: C_5  and  C_7
REMARK    5  A    between atoms: C_7  and  C_8
REMARK    6  A    between atoms: N_15  and  N_16
REMARK    7  A    between atoms: C_17  and  C_19
REMARK                            x       y       z     vdW  Elec       q    Type
REMARK                         _______ _______ _______ _____ _____    ______ ____
ROOT
ATOM      1  O   UNL     1       2.232   5.946  17.819  0.00  0.00    +0.000 OA
ATOM      2  C   UNL     1       3.109   6.803  17.895  0.00  0.00    +0.000 C 
ATOM      3  N   UNL     1       2.841   8.154  18.033  0.00  0.00    +0.000 N 
ATOM      4  H   UNL     1       3.573   8.815  18.316  0.00  0.00    +0.000 HD
ENDROOT
BRANCH   3   5
ATOM      5  N   UNL     1       1.518   8.590  18.209  0.00  0.00    +0.000 N 
ATOM      6  C   UNL     1       1.303   9.958  18.193  0.00  0.00    +0.000 C 
ATOM      7  O   UNL     1       2.210  10.775  18.078  0.00  0.00    +0.000 OA
ATOM      8  H   UNL     1       0.784   7.901  18.077  0.00  0.00    +0.000 HD
BRANCH   6   9
ATOM      9  C   UNL     1      -0.109  10.421  18.288  0.00  0.00    +0.000 A 
ATOM     10  C   UNL     1      -1.135   9.812  17.557  0.00  0.00    +0.000 A 
ATOM     11  C   UNL     1      -2.451  10.271  17.685  0.00  0.00    +0.000 A 
ATOM     12  C   UNL     1      -2.740  11.332  18.546  0.00  0.00    +0.000 A 
ATOM     13 CL   UNL     1      -4.358  11.899  18.687  0.00  0.00    +0.000 Cl
ATOM     14  C   UNL     1      -1.728  11.929  19.295  0.00  0.00    +0.000 A 
ATOM     15  C   UNL     1      -0.413  11.468  19.171  0.00  0.00    +0.000 A 
ENDBRANCH   6   9
ENDBRANCH   3   5
BRANCH   2  16
ATOM     16  C   UNL     1       4.609   6.491  17.809  0.00  0.00    +0.000 C 
BRANCH  16  17
ATOM     17  O   UNL     1       4.912   5.096  17.762  0.00  0.00    +0.000 OA
BRANCH  17  18
ATOM     18  C   UNL     1       5.355   4.567  18.935  0.00  0.00    +0.000 C 
ATOM     19  O   UNL     1       6.120   5.146  19.702  0.00  0.00    +0.000 OA
BRANCH  18  20
ATOM     20  C   UNL     1       4.789   3.190  19.178  0.00  0.00    +0.000 C 
BRANCH  20  21
ATOM     21  C   UNL     1       3.317   3.200  19.478  0.00  0.00    +0.000 A 
ATOM     22  C   UNL     1       2.783   4.011  20.490  0.00  0.00    +0.000 A 
ATOM     23  C   UNL     1       1.406   4.016  20.737  0.00  0.00    +0.000 A 
ATOM     24  C   UNL     1       0.551   3.220  19.975  0.00  0.00    +0.000 A 
ATOM     25  C   UNL     1       1.073   2.410  18.969  0.00  0.00    +0.000 A 
ATOM     26  C   UNL     1       2.444   2.406  18.730  0.00  0.00    +0.000 A 
ATOM     27  F   UNL     1       2.930   1.611  17.767  0.00  0.00    +0.000 F 
ENDBRANCH  20  21
ENDBRANCH  18  20
ENDBRANCH  17  18
ENDBRANCH  16  17
ENDBRANCH   2  16
TORSDOF 7
ENDMDL
