MODEL 1
REMARK VINA RESULT:      -6.3      0.000      0.000
REMARK  Name = 
REMARK  9 active torsions:
REMARK  status: ('A' for Active; 'I' for Inactive)
REMARK    1  A    between atoms: C_1  and  C_2
REMARK    2  A    between atoms: C_2  and  O_3
REMARK    3  A    between atoms: O_3  and  C_4
REMARK    4  A    between atoms: C_4  and  C_5
REMARK    5  A    between atoms: N_17  and  C_18
REMARK    6  A    between atoms: C_18  and  C_19
REMARK    7  A    between atoms: C_19  and  N_20
REMARK    8  A    between atoms: N_20  and  C_21
REMARK    9  A    between atoms: N_20  and  C_22
REMARK                            x       y       z     vdW  Elec       q    Type
REMARK                         _______ _______ _______ _____ _____    ______ ____
ROOT
ATOM      1  C   UNL     1       7.032   5.590  17.371  0.00  0.00    +0.000 C 
ATOM      2  O   UNL     1       7.849   4.678  17.516  0.00  0.00    +0.000 OA
ATOM      3  N   UNL     1       5.666   5.409  17.574  0.00  0.00    +0.000 N 
ATOM      4  C   UNL     1       5.199   4.167  18.157  0.00  0.00    +0.000 C 
ATOM      5  C   UNL     1       4.312   4.461  19.365  0.00  0.00    +0.000 C 
ATOM      6  C   UNL     1       3.093   5.390  19.038  0.00  0.00    +0.000 C 
ATOM      7  C   UNL     1       3.650   6.649  18.309  0.00  0.00    +0.000 C 
ATOM      8  C   UNL     1       4.620   6.337  17.164  0.00  0.00    +0.000 C 
ATOM      9  C   UNL     1       2.091   4.627  18.115  0.00  0.00    +0.000 C 
ATOM     10  O   UNL     1       1.599   3.433  18.739  0.00  0.00    +0.000 OA
ATOM     11  C   UNL     1       0.935   3.725  19.974  0.00  0.00    +0.000 C 
ATOM     12  C   UNL     1       1.830   4.520  20.940  0.00  0.00    +0.000 C 
ATOM     13  N   UNL     1       2.401   5.757  20.345  0.00  0.00    +0.000 NA
ENDROOT
BRANCH   1  14
ATOM     14  C   UNL     1       7.516   7.003  17.033  0.00  0.00    +0.000 C 
BRANCH  14  15
ATOM     15  O   UNL     1       8.016   7.745  18.139  0.00  0.00    +0.000 OA
BRANCH  15  17
ATOM     16  C   UNL     1       9.033   9.786  18.846  0.00  0.00    +0.000 C 
ATOM     17  C   UNL     1       8.069   9.146  17.868  0.00  0.00    +0.000 C 
ENDBRANCH  15  17
ENDBRANCH  14  15
ENDBRANCH   1  14
BRANCH  13  18
ATOM     18  C   UNL     1       1.351   6.807  20.196  0.00  0.00    +0.000 C 
BRANCH  18  19
ATOM     19  C   UNL     1       1.417   7.969  21.233  0.00  0.00    +0.000 C 
BRANCH  19  20
ATOM     20  N   UNL     1       1.082   9.312  20.698  0.00  0.00    +0.000 NA
ATOM     21  C   UNL     1       1.201   9.371  19.238  0.00  0.00    +0.000 C 
ATOM     22  C   UNL     1      -0.294   9.656  21.081  0.00  0.00    +0.000 C 
ENDBRANCH  19  20
ENDBRANCH  18  19
ENDBRANCH  13  18
TORSDOF 6
ENDMDL
MODEL 2
REMARK VINA RESULT:      -6.2      3.257      5.231
REMARK  Name = 
REMARK  9 active torsions:
REMARK  status: ('A' for Active; 'I' for Inactive)
REMARK    1  A    between atoms: C_1  and  C_2
REMARK    2  A    between atoms: C_2  and  O_3
REMARK    3  A    between atoms: O_3  and  C_4
REMARK    4  A    between atoms: C_4  and  C_5
REMARK    5  A    between atoms: N_17  and  C_18
REMARK    6  A    between atoms: C_18  and  C_19
REMARK    7  A    between atoms: C_19  and  N_20
REMARK    8  A    between atoms: N_20  and  C_21
REMARK    9  A    between atoms: N_20  and  C_22
REMARK                            x       y       z     vdW  Elec       q    Type
REMARK                         _______ _______ _______ _____ _____    ______ ____
ROOT
ATOM      1  C   UNL     1       6.999   4.699  14.168  0.00  0.00    +0.000 C 
ATOM      2  O   UNL     1       7.796   5.618  13.960  0.00  0.00    +0.000 OA
ATOM      3  N   UNL     1       6.350   4.535  15.388  0.00  0.00    +0.000 N 
ATOM      4  C   UNL     1       6.460   5.577  16.391  0.00  0.00    +0.000 C 
ATOM      5  C   UNL     1       5.068   5.997  16.857  0.00  0.00    +0.000 C 
ATOM      6  C   UNL     1       4.205   4.813  17.409  0.00  0.00    +0.000 C 
ATOM      7  C   UNL     1       4.224   3.683  16.336  0.00  0.00    +0.000 C 
ATOM      8  C   UNL     1       5.621   3.344  15.805  0.00  0.00    +0.000 C 
ATOM      9  C   UNL     1       4.821   4.300  18.750  0.00  0.00    +0.000 C 
ATOM     10  O   UNL     1       4.863   5.334  19.742  0.00  0.00    +0.000 OA
ATOM     11  C   UNL     1       3.555   5.846  20.020  0.00  0.00    +0.000 C 
ATOM     12  C   UNL     1       2.843   6.337  18.748  0.00  0.00    +0.000 C 
ATOM     13  N   UNL     1       2.790   5.322  17.662  0.00  0.00    +0.000 NA
ENDROOT
BRANCH   1  14
ATOM     14  C   UNL     1       6.632   3.736  13.035  0.00  0.00    +0.000 C 
BRANCH  14  15
ATOM     15  O   UNL     1       5.253   3.718  12.689  0.00  0.00    +0.000 OA
BRANCH  15  17
ATOM     16  C   UNL     1       3.776   3.359  10.848  0.00  0.00    +0.000 C 
ATOM     17  C   UNL     1       4.983   2.835  11.599  0.00  0.00    +0.000 C 
ENDBRANCH  15  17
ENDBRANCH  14  15
ENDBRANCH   1  14
BRANCH  13  18
ATOM     18  C   UNL     1       1.812   4.244  17.991  0.00  0.00    +0.000 C 
BRANCH  18  19
ATOM     19  C   UNL     1       1.238   4.282  19.440  0.00  0.00    +0.000 C 
BRANCH  19  20
ATOM     20  N   UNL     1       1.110   2.960  20.102  0.00  0.00    +0.000 NA
ATOM     21  C   UNL     1       1.846   1.911  19.390  0.00  0.00    +0.000 C 
ATOM     22  C   UNL     1       1.621   3.057  21.476  0.00  0.00    +0.000 C 
ENDBRANCH  19  20
ENDBRANCH  18  19
ENDBRANCH  13  18
TORSDOF 6
ENDMDL
MODEL 3
REMARK VINA RESULT:      -6.0      0.971      1.163
REMARK  Name = 
REMARK  9 active torsions:
REMARK  status: ('A' for Active; 'I' for Inactive)
REMARK    1  A    between atoms: C_1  and  C_2
REMARK    2  A    between atoms: C_2  and  O_3
REMARK    3  A    between atoms: O_3  and  C_4
REMARK    4  A    between atoms: C_4  and  C_5
REMARK    5  A    between atoms: N_17  and  C_18
REMARK    6  A    between atoms: C_18  and  C_19
REMARK    7  A    between atoms: C_19  and  N_20
REMARK    8  A    between atoms: N_20  and  C_21
REMARK    9  A    between atoms: N_20  and  C_22
REMARK                            x       y       z     vdW  Elec       q    Type
REMARK                         _______ _______ _______ _____ _____    ______ ____
ROOT
ATOM      1  C   UNL     1       6.467   5.214  16.937  0.00  0.00    +0.000 C 
ATOM      2  O   UNL     1       7.387   4.392  16.972  0.00  0.00    +0.000 OA
ATOM      3  N   UNL     1       5.189   4.925  17.408  0.00  0.00    +0.000 N 
ATOM      4  C   UNL     1       4.969   3.691  18.137  0.00  0.00    +0.000 C 
ATOM      5  C   UNL     1       4.296   3.992  19.474  0.00  0.00    +0.000 C 
ATOM      6  C   UNL     1       2.949   4.780  19.338  0.00  0.00    +0.000 C 
ATOM      7  C   UNL     1       3.229   6.028  18.449  0.00  0.00    +0.000 C 
ATOM      8  C   UNL     1       3.996   5.722  17.157  0.00  0.00    +0.000 C 
ATOM      9  C   UNL     1       1.876   3.864  18.667  0.00  0.00    +0.000 C 
ATOM     10  O   UNL     1       1.634   2.680  19.439  0.00  0.00    +0.000 OA
ATOM     11  C   UNL     1       1.184   3.000  20.760  0.00  0.00    +0.000 C 
ATOM     12  C   UNL     1       2.158   3.941  21.491  0.00  0.00    +0.000 C 
ATOM     13  N   UNL     1       2.478   5.178  20.732  0.00  0.00    +0.000 NA
ENDROOT
BRANCH   1  14
ATOM     14  C   UNL     1       6.733   6.636  16.436  0.00  0.00    +0.000 C 
BRANCH  14  15
ATOM     15  O   UNL     1       7.999   7.172  16.801  0.00  0.00    +0.000 OA
BRANCH  15  17
ATOM     16  C   UNL     1       8.296   9.188  18.045  0.00  0.00    +0.000 C 
ATOM     17  C   UNL     1       7.995   7.706  18.127  0.00  0.00    +0.000 C 
ENDBRANCH  15  17
ENDBRANCH  14  15
ENDBRANCH   1  14
BRANCH  13  18
ATOM     18  C   UNL     1       1.316   6.115  20.730  0.00  0.00    +0.000 C 
BRANCH  18  19
ATOM     19  C   UNL     1       1.681   7.630  20.794  0.00  0.00    +0.000 C 
BRANCH  19  20
ATOM     20  N   UNL     1       0.567   8.530  21.182  0.00  0.00    +0.000 NA
ATOM     21  C   UNL     1       0.796   9.167  22.482  0.00  0.00    +0.000 C 
ATOM     22  C   UNL     1       0.409   9.572  20.158  0.00  0.00    +0.000 C 
ENDBRANCH  19  20
ENDBRANCH  18  19
ENDBRANCH  13  18
TORSDOF 6
ENDMDL
MODEL 4
REMARK VINA RESULT:      -5.9      0.910      1.127
REMARK  Name = 
REMARK  9 active torsions:
REMARK  status: ('A' for Active; 'I' for Inactive)
REMARK    1  A    between atoms: C_1  and  C_2
REMARK    2  A    between atoms: C_2  and  O_3
REMARK    3  A    between atoms: O_3  and  C_4
REMARK    4  A    between atoms: C_4  and  C_5
REMARK    5  A    between atoms: N_17  and  C_18
REMARK    6  A    between atoms: C_18  and  C_19
REMARK    7  A    between atoms: C_19  and  N_20
REMARK    8  A    between atoms: N_20  and  C_21
REMARK    9  A    between atoms: N_20  and  C_22
REMARK                            x       y       z     vdW  Elec       q    Type
REMARK                         _______ _______ _______ _____ _____    ______ ____
ROOT
ATOM      1  C   UNL     1       7.204   5.282  18.051  0.00  0.00    +0.000 C 
ATOM      2  O   UNL     1       7.970   4.320  17.950  0.00  0.00    +0.000 OA
ATOM      3  N   UNL     1       5.820   5.142  18.012  0.00  0.00    +0.000 N 
ATOM      4  C   UNL     1       5.245   3.811  18.045  0.00  0.00    +0.000 C 
ATOM      5  C   UNL     1       4.209   3.721  19.163  0.00  0.00    +0.000 C 
ATOM      6  C   UNL     1       3.072   4.792  19.056  0.00  0.00    +0.000 C 
ATOM      7  C   UNL     1       3.756   6.184  18.906  0.00  0.00    +0.000 C 
ATOM      8  C   UNL     1       4.864   6.230  17.848  0.00  0.00    +0.000 C 
ATOM      9  C   UNL     1       2.184   4.485  17.807  0.00  0.00    +0.000 C 
ATOM     10  O   UNL     1       1.581   3.188  17.892  0.00  0.00    +0.000 OA
ATOM     11  C   UNL     1       0.762   3.068  19.061  0.00  0.00    +0.000 C 
ATOM     12  C   UNL     1       1.538   3.397  20.348  0.00  0.00    +0.000 C 
ATOM     13  N   UNL     1       2.218   4.719  20.316  0.00  0.00    +0.000 NA
ENDROOT
BRANCH   1  14
ATOM     14  C   UNL     1       7.768   6.683  18.309  0.00  0.00    +0.000 C 
BRANCH  14  15
ATOM     15  O   UNL     1       7.792   7.537  17.172  0.00  0.00    +0.000 OA
BRANCH  15  17
ATOM     16  C   UNL     1       8.717   9.255  18.547  0.00  0.00    +0.000 C 
ATOM     17  C   UNL     1       7.649   8.913  17.529  0.00  0.00    +0.000 C 
ENDBRANCH  15  17
ENDBRANCH  14  15
ENDBRANCH   1  14
BRANCH  13  18
ATOM     18  C   UNL     1       1.226   5.828  20.436  0.00  0.00    +0.000 C 
BRANCH  18  19
ATOM     19  C   UNL     1       1.788   7.167  21.004  0.00  0.00    +0.000 C 
BRANCH  19  20
ATOM     20  N   UNL     1       0.818   8.289  21.047  0.00  0.00    +0.000 NA
ATOM     21  C   UNL     1       0.952   9.089  22.268  0.00  0.00    +0.000 C 
ATOM     22  C   UNL     1       1.028   9.156  19.880  0.00  0.00    +0.000 C 
ENDBRANCH  19  20
ENDBRANCH  18  19
ENDBRANCH  13  18
TORSDOF 6
ENDMDL
MODEL 5
REMARK VINA RESULT:      -5.8      3.524      5.572
REMARK  Name = 
REMARK  9 active torsions:
REMARK  status: ('A' for Active; 'I' for Inactive)
REMARK    1  A    between atoms: C_1  and  C_2
REMARK    2  A    between atoms: C_2  and  O_3
REMARK    3  A    between atoms: O_3  and  C_4
REMARK    4  A    between atoms: C_4  and  C_5
REMARK    5  A    between atoms: N_17  and  C_18
REMARK    6  A    between atoms: C_18  and  C_19
REMARK    7  A    between atoms: C_19  and  N_20
REMARK    8  A    between atoms: N_20  and  C_21
REMARK    9  A    between atoms: N_20  and  C_22
REMARK                            x       y       z     vdW  Elec       q    Type
REMARK                         _______ _______ _______ _____ _____    ______ ____
ROOT
ATOM      1  C   UNL     1       7.355   4.905  13.262  0.00  0.00    +0.000 C 
ATOM      2  O   UNL     1       7.980   5.920  12.941  0.00  0.00    +0.000 OA
ATOM      3  N   UNL     1       6.882   4.696  14.554  0.00  0.00    +0.000 N 
ATOM      4  C   UNL     1       6.953   5.781  15.515  0.00  0.00    +0.000 C 
ATOM      5  C   UNL     1       5.578   6.016  16.134  0.00  0.00    +0.000 C 
ATOM      6  C   UNL     1       4.967   4.742  16.811  0.00  0.00    +0.000 C 
ATOM      7  C   UNL     1       5.027   3.587  15.767  0.00  0.00    +0.000 C 
ATOM      8  C   UNL     1       6.388   3.430  15.080  0.00  0.00    +0.000 C 
ATOM      9  C   UNL     1       5.802   4.374  18.078  0.00  0.00    +0.000 C 
ATOM     10  O   UNL     1       5.807   5.440  19.037  0.00  0.00    +0.000 OA
ATOM     11  C   UNL     1       4.479   5.770  19.459  0.00  0.00    +0.000 C 
ATOM     12  C   UNL     1       3.560   6.106  18.271  0.00  0.00    +0.000 C 
ATOM     13  N   UNL     1       3.532   5.054  17.221  0.00  0.00    +0.000 NA
ENDROOT
BRANCH   1  14
ATOM     14  C   UNL     1       7.005   3.858  12.201  0.00  0.00    +0.000 C 
BRANCH  14  15
ATOM     15  O   UNL     1       5.631   3.490  12.155  0.00  0.00    +0.000 OA
BRANCH  15  17
ATOM     16  C   UNL     1       6.743   1.610  11.190  0.00  0.00    +0.000 C 
ATOM     17  C   UNL     1       5.414   2.316  11.370  0.00  0.00    +0.000 C 
ENDBRANCH  15  17
ENDBRANCH  14  15
ENDBRANCH   1  14
BRANCH  13  18
ATOM     18  C   UNL     1       2.766   3.860  17.686  0.00  0.00    +0.000 C 
BRANCH  18  19
ATOM     19  C   UNL     1       1.337   4.157  18.235  0.00  0.00    +0.000 C 
BRANCH  19  20
ATOM     20  N   UNL     1       0.916   3.314  19.382  0.00  0.00    +0.000 NA
ATOM     21  C   UNL     1       1.649   2.046  19.436  0.00  0.00    +0.000 C 
ATOM     22  C   UNL     1       1.141   4.052  20.633  0.00  0.00    +0.000 C 
ENDBRANCH  19  20
ENDBRANCH  18  19
ENDBRANCH  13  18
TORSDOF 6
ENDMDL
MODEL 6
REMARK VINA RESULT:      -5.7      2.714      7.393
REMARK  Name = 
REMARK  9 active torsions:
REMARK  status: ('A' for Active; 'I' for Inactive)
REMARK    1  A    between atoms: C_1  and  C_2
REMARK    2  A    between atoms: C_2  and  O_3
REMARK    3  A    between atoms: O_3  and  C_4
REMARK    4  A    between atoms: C_4  and  C_5
REMARK    5  A    between atoms: N_17  and  C_18
REMARK    6  A    between atoms: C_18  and  C_19
REMARK    7  A    between atoms: C_19  and  N_20
REMARK    8  A    between atoms: N_20  and  C_21
REMARK    9  A    between atoms: N_20  and  C_22
REMARK                            x       y       z     vdW  Elec       q    Type
REMARK                         _______ _______ _______ _____ _____    ______ ____
ROOT
ATOM      1  C   UNL     1       2.114   4.458  20.578  0.00  0.00    +0.000 C 
ATOM      2  O   UNL     1       2.494   4.365  21.748  0.00  0.00    +0.000 OA
ATOM      3  N   UNL     1       2.897   5.034  19.582  0.00  0.00    +0.000 N 
ATOM      4  C   UNL     1       4.278   5.367  19.874  0.00  0.00    +0.000 C 
ATOM      5  C   UNL     1       5.196   4.742  18.826  0.00  0.00    +0.000 C 
ATOM      6  C   UNL     1       4.846   5.155  17.356  0.00  0.00    +0.000 C 
ATOM      7  C   UNL     1       3.327   4.882  17.145  0.00  0.00    +0.000 C 
ATOM      8  C   UNL     1       2.428   5.429  18.260  0.00  0.00    +0.000 C 
ATOM      9  C   UNL     1       5.158   6.672  17.154  0.00  0.00    +0.000 C 
ATOM     10  O   UNL     1       6.542   6.964  17.392  0.00  0.00    +0.000 OA
ATOM     11  C   UNL     1       7.392   6.213  16.517  0.00  0.00    +0.000 C 
ATOM     12  C   UNL     1       7.127   4.701  16.610  0.00  0.00    +0.000 C 
ATOM     13  N   UNL     1       5.702   4.329  16.404  0.00  0.00    +0.000 NA
ENDROOT
BRANCH   1  14
ATOM     14  C   UNL     1       0.769   3.855  20.163  0.00  0.00    +0.000 C 
BRANCH  14  15
ATOM     15  O   UNL     1       0.786   2.449  19.945  0.00  0.00    +0.000 OA
BRANCH  15  17
ATOM     16  C   UNL     1       2.580   1.623  18.603  0.00  0.00    +0.000 C 
ATOM     17  C   UNL     1       1.148   2.116  18.603  0.00  0.00    +0.000 C 
ENDBRANCH  15  17
ENDBRANCH  14  15
ENDBRANCH   1  14
BRANCH  13  18
ATOM     18  C   UNL     1       5.318   4.474  14.969  0.00  0.00    +0.000 C 
BRANCH  18  19
ATOM     19  C   UNL     1       6.458   4.193  13.942  0.00  0.00    +0.000 C 
BRANCH  19  20
ATOM     20  N   UNL     1       6.102   3.256  12.848  0.00  0.00    +0.000 NA
ATOM     21  C   UNL     1       4.776   3.535  12.289  0.00  0.00    +0.000 C 
ATOM     22  C   UNL     1       7.105   3.358  11.779  0.00  0.00    +0.000 C 
ENDBRANCH  19  20
ENDBRANCH  18  19
ENDBRANCH  13  18
TORSDOF 6
ENDMDL
MODEL 7
REMARK VINA RESULT:      -5.5      2.736      6.287
REMARK  Name = 
REMARK  9 active torsions:
REMARK  status: ('A' for Active; 'I' for Inactive)
REMARK    1  A    between atoms: C_1  and  C_2
REMARK    2  A    between atoms: C_2  and  O_3
REMARK    3  A    between atoms: O_3  and  C_4
REMARK    4  A    between atoms: C_4  and  C_5
REMARK    5  A    between atoms: N_17  and  C_18
REMARK    6  A    between atoms: C_18  and  C_19
REMARK    7  A    between atoms: C_19  and  N_20
REMARK    8  A    between atoms: N_20  and  C_21
REMARK    9  A    between atoms: N_20  and  C_22
REMARK                            x       y       z     vdW  Elec       q    Type
REMARK                         _______ _______ _______ _____ _____    ______ ____
ROOT
ATOM      1  C   UNL     1       1.882   2.552  19.511  0.00  0.00    +0.000 C 
ATOM      2  O   UNL     1       0.807   2.212  19.010  0.00  0.00    +0.000 OA
ATOM      3  N   UNL     1       3.009   2.829  18.743  0.00  0.00    +0.000 N 
ATOM      4  C   UNL     1       2.878   2.908  17.301  0.00  0.00    +0.000 C 
ATOM      5  C   UNL     1       3.455   4.229  16.798  0.00  0.00    +0.000 C 
ATOM      6  C   UNL     1       4.948   4.462  17.213  0.00  0.00    +0.000 C 
ATOM      7  C   UNL     1       5.042   4.248  18.753  0.00  0.00    +0.000 C 
ATOM      8  C   UNL     1       4.368   2.966  19.253  0.00  0.00    +0.000 C 
ATOM      9  C   UNL     1       5.861   3.438  16.465  0.00  0.00    +0.000 C 
ATOM     10  O   UNL     1       5.757   3.577  15.042  0.00  0.00    +0.000 OA
ATOM     11  C   UNL     1       6.123   4.894  14.617  0.00  0.00    +0.000 C 
ATOM     12  C   UNL     1       5.306   5.983  15.334  0.00  0.00    +0.000 C 
ATOM     13  N   UNL     1       5.344   5.879  16.817  0.00  0.00    +0.000 NA
ENDROOT
BRANCH   1  14
ATOM     14  C   UNL     1       1.986   2.763  21.024  0.00  0.00    +0.000 C 
BRANCH  14  15
ATOM     15  O   UNL     1       2.159   4.116  21.429  0.00  0.00    +0.000 OA
BRANCH  15  17
ATOM     16  C   UNL     1       2.220   6.134  20.155  0.00  0.00    +0.000 C 
ATOM     17  C   UNL     1       1.343   5.013  20.672  0.00  0.00    +0.000 C 
ENDBRANCH  15  17
ENDBRANCH  14  15
ENDBRANCH   1  14
BRANCH  13  18
ATOM     18  C   UNL     1       6.675   6.301  17.344  0.00  0.00    +0.000 C 
BRANCH  18  19
ATOM     19  C   UNL     1       6.964   7.832  17.278  0.00  0.00    +0.000 C 
BRANCH  19  20
ATOM     20  N   UNL     1       8.269   8.252  17.848  0.00  0.00    +0.000 NA
ATOM     21  C   UNL     1       8.303   9.685  18.154  0.00  0.00    +0.000 C 
ATOM     22  C   UNL     1       8.525   7.492  19.079  0.00  0.00    +0.000 C 
ENDBRANCH  19  20
ENDBRANCH  18  19
ENDBRANCH  13  18
TORSDOF 6
ENDMDL
MODEL 8
REMARK VINA RESULT:      -5.2      1.887      2.595
REMARK  Name = 
REMARK  9 active torsions:
REMARK  status: ('A' for Active; 'I' for Inactive)
REMARK    1  A    between atoms: C_1  and  C_2
REMARK    2  A    between atoms: C_2  and  O_3
REMARK    3  A    between atoms: O_3  and  C_4
REMARK    4  A    between atoms: C_4  and  C_5
REMARK    5  A    between atoms: N_17  and  C_18
REMARK    6  A    between atoms: C_18  and  C_19
REMARK    7  A    between atoms: C_19  and  N_20
REMARK    8  A    between atoms: N_20  and  C_21
REMARK    9  A    between atoms: N_20  and  C_22
REMARK                            x       y       z     vdW  Elec       q    Type
REMARK                         _______ _______ _______ _____ _____    ______ ____
ROOT
ATOM      1  C   UNL     1       7.087   4.785  16.829  0.00  0.00    +0.000 C 
ATOM      2  O   UNL     1       7.954   4.055  17.316  0.00  0.00    +0.000 OA
ATOM      3  N   UNL     1       5.756   4.737  17.233  0.00  0.00    +0.000 N 
ATOM      4  C   UNL     1       5.400   3.942  18.393  0.00  0.00    +0.000 C 
ATOM      5  C   UNL     1       4.617   4.796  19.387  0.00  0.00    +0.000 C 
ATOM      6  C   UNL     1       3.334   5.455  18.776  0.00  0.00    +0.000 C 
ATOM      7  C   UNL     1       3.765   6.193  17.474  0.00  0.00    +0.000 C 
ATOM      8  C   UNL     1       4.637   5.353  16.534  0.00  0.00    +0.000 C 
ATOM      9  C   UNL     1       2.284   4.345  18.450  0.00  0.00    +0.000 C 
ATOM     10  O   UNL     1       1.905   3.614  19.624  0.00  0.00    +0.000 OA
ATOM     11  C   UNL     1       1.347   4.477  20.620  0.00  0.00    +0.000 C 
ATOM     12  C   UNL     1       2.293   5.637  20.979  0.00  0.00    +0.000 C 
ATOM     13  N   UNL     1       2.751   6.420  19.802  0.00  0.00    +0.000 NA
ENDROOT
BRANCH   1  14
ATOM     14  C   UNL     1       7.476   5.848  15.798  0.00  0.00    +0.000 C 
BRANCH  14  15
ATOM     15  O   UNL     1       7.912   5.335  14.545  0.00  0.00    +0.000 OA
BRANCH  15  17
ATOM     16  C   UNL     1       6.347   3.826  13.559  0.00  0.00    +0.000 C 
ATOM     17  C   UNL     1       6.847   5.255  13.596  0.00  0.00    +0.000 C 
ENDBRANCH  15  17
ENDBRANCH  14  15
ENDBRANCH   1  14
BRANCH  13  18
ATOM     18  C   UNL     1       1.647   7.271  19.268  0.00  0.00    +0.000 C 
BRANCH  18  19
ATOM     19  C   UNL     1       1.363   8.577  20.071  0.00  0.00    +0.000 C 
BRANCH  19  20
ATOM     20  N   UNL     1       1.234   9.806  19.250  0.00  0.00    +0.000 NA
ATOM     21  C   UNL     1       1.834   9.649  17.921  0.00  0.00    +0.000 C 
ATOM     22  C   UNL     1      -0.189  10.139  19.098  0.00  0.00    +0.000 C 
ENDBRANCH  19  20
ENDBRANCH  18  19
ENDBRANCH  13  18
TORSDOF 6
ENDMDL
MODEL 9
REMARK VINA RESULT:      -5.2      1.663      2.314
REMARK  Name = 
REMARK  9 active torsions:
REMARK  status: ('A' for Active; 'I' for Inactive)
REMARK    1  A    between atoms: C_1  and  C_2
REMARK    2  A    between atoms: C_2  and  O_3
REMARK    3  A    between atoms: O_3  and  C_4
REMARK    4  A    between atoms: C_4  and  C_5
REMARK    5  A    between atoms: N_17  and  C_18
REMARK    6  A    between atoms: C_18  and  C_19
REMARK    7  A    between atoms: C_19  and  N_20
REMARK    8  A    between atoms: N_20  and  C_21
REMARK    9  A    between atoms: N_20  and  C_22
REMARK                            x       y       z     vdW  Elec       q    Type
REMARK                         _______ _______ _______ _____ _____    ______ ____
ROOT
ATOM      1  C   UNL     1       7.029   4.775  17.325  0.00  0.00    +0.000 C 
ATOM      2  O   UNL     1       7.949   4.033  17.679  0.00  0.00    +0.000 OA
ATOM      3  N   UNL     1       5.703   4.540  17.675  0.00  0.00    +0.000 N 
ATOM      4  C   UNL     1       5.402   3.502  18.642  0.00  0.00    +0.000 C 
ATOM      5  C   UNL     1       4.540   4.073  19.765  0.00  0.00    +0.000 C 
ATOM      6  C   UNL     1       3.213   4.738  19.264  0.00  0.00    +0.000 C 
ATOM      7  C   UNL     1       3.594   5.755  18.148  0.00  0.00    +0.000 C 
ATOM      8  C   UNL     1       4.543   5.194  17.083  0.00  0.00    +0.000 C 
ATOM      9  C   UNL     1       2.262   3.637  18.694  0.00  0.00    +0.000 C 
ATOM     10  O   UNL     1       1.933   2.656  19.687  0.00  0.00    +0.000 OA
ATOM     11  C   UNL     1       1.294   3.253  20.821  0.00  0.00    +0.000 C 
ATOM     12  C   UNL     1       2.136   4.388  21.430  0.00  0.00    +0.000 C 
ATOM     13  N   UNL     1       2.540   5.427  20.446  0.00  0.00    +0.000 NA
ENDROOT
BRANCH   1  14
ATOM     14  C   UNL     1       7.339   6.052  16.538  0.00  0.00    +0.000 C 
BRANCH  14  15
ATOM     15  O   UNL     1       7.767   5.840  15.198  0.00  0.00    +0.000 OA
BRANCH  15  17
ATOM     16  C   UNL     1       7.451   4.738  13.104  0.00  0.00    +0.000 C 
ATOM     17  C   UNL     1       6.848   5.031  14.462  0.00  0.00    +0.000 C 
ENDBRANCH  15  17
ENDBRANCH  14  15
ENDBRANCH   1  14
BRANCH  13  18
ATOM     18  C   UNL     1       1.375   6.277  20.063  0.00  0.00    +0.000 C 
BRANCH  18  19
ATOM     19  C   UNL     1       1.176   7.562  20.924  0.00  0.00    +0.000 C 
BRANCH  19  20
ATOM     20  N   UNL     1       1.588   8.829  20.270  0.00  0.00    +0.000 NA
ATOM     21  C   UNL     1       1.571   8.727  18.807  0.00  0.00    +0.000 C 
ATOM     22  C   UNL     1       0.682   9.907  20.687  0.00  0.00    +0.000 C 
ENDBRANCH  19  20
ENDBRANCH  18  19
ENDBRANCH  13  18
TORSDOF 6
ENDMDL
