MODEL 1
REMARK VINA RESULT:      -7.1      0.000      0.000
REMARK  Name = 
REMARK  11 active torsions:
REMARK  status: ('A' for Active; 'I' for Inactive)
REMARK    1  A    between atoms: CD1_1  and  CG1_2
REMARK    2  A    between atoms: CG1_2  and  CB_3
REMARK    3  A    between atoms: CB_3  and  CG2_4
REMARK    4  A    between atoms: CB_3  and  CA_5
REMARK    5  A    between atoms: CA_5  and  N_6
REMARK    6  A    between atoms: CA_5  and  C_18
REMARK    7  A    between atoms: C_7  and  C_8
REMARK    8  A    between atoms: C_9  and  O_10
REMARK    9  A    between atoms: C_12  and  C_13
REMARK   10  A    between atoms: C_12  and  C_14
REMARK   11  A    between atoms: C_18  and  OXT_20
REMARK                            x       y       z     vdW  Elec       q    Type
REMARK                         _______ _______ _______ _____ _____    ______ ____
ROOT
ATOM      1  N   ILE A   1       5.130   4.238  16.176  0.00  0.00    +0.000 NA
ATOM      2  C   UNK A   0       4.586   4.957  17.109  0.00  0.00    +0.000 C 
ENDROOT
BRANCH   2   3
ATOM      3  C   UNK A   0       3.582   4.436  18.077  0.00  0.00    +0.000 C 
ATOM      4  C   UNK A   0       3.544   3.137  18.411  0.00  0.00    +0.000 C 
ATOM      5  O   UNK A   0       2.608   2.607  19.251  0.00  0.00    +0.000 OA
ATOM      6  C   UNK A   0       1.757   3.506  19.950  0.00  0.00    +0.000 C 
ATOM      7  C   UNK A   0       2.210   3.553  21.411  0.00  0.00    +0.000 C 
ATOM      8  C   UNK A   0       0.344   2.932  19.856  0.00  0.00    +0.000 C 
ATOM      9  O   UNK A   0       1.669   4.851  19.468  0.00  0.00    +0.000 OA
ATOM     10  C   UNK A   0       2.582   5.352  18.628  0.00  0.00    +0.000 C 
ATOM     11  O   UNK A   0       2.576   6.537  18.314  0.00  0.00    +0.000 OA
BRANCH   4  12
ATOM     12  O   UNK A   0       4.452   2.217  17.920  0.00  0.00    +0.000 OA
ATOM     13  H   UNK A   0       4.051   1.761  17.150  0.00  0.00    +0.000 HD
ENDBRANCH   4  12
ENDBRANCH   2   3
BRANCH   1  14
ATOM     14  CA  ILE A   1       6.098   4.988  15.305  0.00  0.00    +0.000 C 
BRANCH  14  15
ATOM     15  CB  ILE A   1       6.518   4.183  14.048  0.00  0.00    +0.000 C 
ATOM     16  CG2 ILE A   1       7.469   5.007  13.164  0.00  0.00    +0.000 C 
BRANCH  15  18
ATOM     17  CD1 ILE A   1       5.611   3.028  11.930  0.00  0.00    +0.000 C 
ATOM     18  CG1 ILE A   1       5.275   3.754  13.227  0.00  0.00    +0.000 C 
ENDBRANCH  15  18
ENDBRANCH  14  15
BRANCH  14  19
ATOM     19  C   ILE A   1       7.250   5.481  16.207  0.00  0.00    +0.000 C 
ATOM     20  O   ILE A   1       7.561   6.642  16.412  0.00  0.00    +0.000 OA
BRANCH  19  21
ATOM     21  OXT ILE A   1       7.948   4.440  16.733  0.00  0.00    +0.000 OA
ATOM     22  HXT ILE A   1       8.811   4.343  16.280  0.00  0.00    +0.000 HD
ENDBRANCH  19  21
ENDBRANCH  14  19
ENDBRANCH   1  14
TORSDOF 7
ENDMDL
MODEL 2
REMARK VINA RESULT:      -6.8      1.745      3.600
REMARK  Name = 
REMARK  11 active torsions:
REMARK  status: ('A' for Active; 'I' for Inactive)
REMARK    1  A    between atoms: CD1_1  and  CG1_2
REMARK    2  A    between atoms: CG1_2  and  CB_3
REMARK    3  A    between atoms: CB_3  and  CG2_4
REMARK    4  A    between atoms: CB_3  and  CA_5
REMARK    5  A    between atoms: CA_5  and  N_6
REMARK    6  A    between atoms: CA_5  and  C_18
REMARK    7  A    between atoms: C_7  and  C_8
REMARK    8  A    between atoms: C_9  and  O_10
REMARK    9  A    between atoms: C_12  and  C_13
REMARK   10  A    between atoms: C_12  and  C_14
REMARK   11  A    between atoms: C_18  and  OXT_20
REMARK                            x       y       z     vdW  Elec       q    Type
REMARK                         _______ _______ _______ _____ _____    ______ ____
ROOT
ATOM      1  N   ILE A   1       5.345   4.683  17.266  0.00  0.00    +0.000 NA
ATOM      2  C   UNK A   0       5.262   3.879  18.282  0.00  0.00    +0.000 C 
ENDROOT
BRANCH   2   3
ATOM      3  C   UNK A   0       4.004   3.628  19.037  0.00  0.00    +0.000 C 
ATOM      4  C   UNK A   0       3.419   4.595  19.760  0.00  0.00    +0.000 C 
ATOM      5  O   UNK A   0       2.296   4.395  20.509  0.00  0.00    +0.000 OA
ATOM      6  C   UNK A   0       1.611   3.157  20.365  0.00  0.00    +0.000 C 
ATOM      7  C   UNK A   0       0.335   3.410  19.560  0.00  0.00    +0.000 C 
ATOM      8  C   UNK A   0       1.259   2.684  21.774  0.00  0.00    +0.000 C 
ATOM      9  O   UNK A   0       2.317   2.074  19.750  0.00  0.00    +0.000 OA
ATOM     10  C   UNK A   0       3.428   2.282  19.034  0.00  0.00    +0.000 C 
ATOM     11  O   UNK A   0       3.962   1.373  18.407  0.00  0.00    +0.000 OA
BRANCH   4  12
ATOM     12  O   UNK A   0       3.914   5.885  19.813  0.00  0.00    +0.000 OA
ATOM     13  H   UNK A   0       4.719   5.936  19.254  0.00  0.00    +0.000 HD
ENDBRANCH   4  12
ENDBRANCH   2   3
BRANCH   1  14
ATOM     14  CA  ILE A   1       6.724   4.793  16.679  0.00  0.00    +0.000 C 
BRANCH  14  15
ATOM     15  CB  ILE A   1       7.573   5.903  17.351  0.00  0.00    +0.000 C 
ATOM     16  CG2 ILE A   1       7.909   5.528  18.804  0.00  0.00    +0.000 C 
BRANCH  15  18
ATOM     17  CD1 ILE A   1       7.689   8.448  17.738  0.00  0.00    +0.000 C 
ATOM     18  CG1 ILE A   1       6.829   7.262  17.316  0.00  0.00    +0.000 C 
ENDBRANCH  15  18
ENDBRANCH  14  15
BRANCH  14  19
ATOM     19  C   ILE A   1       6.571   4.895  15.147  0.00  0.00    +0.000 C 
ATOM     20  O   ILE A   1       5.596   4.562  14.493  0.00  0.00    +0.000 OA
BRANCH  19  21
ATOM     21  OXT ILE A   1       7.706   5.367  14.566  0.00  0.00    +0.000 OA
ATOM     22  HXT ILE A   1       8.080   4.699  13.953  0.00  0.00    +0.000 HD
ENDBRANCH  19  21
ENDBRANCH  14  19
ENDBRANCH   1  14
TORSDOF 7
ENDMDL
MODEL 3
REMARK VINA RESULT:      -6.7      1.934      3.785
REMARK  Name = 
REMARK  11 active torsions:
REMARK  status: ('A' for Active; 'I' for Inactive)
REMARK    1  A    between atoms: CD1_1  and  CG1_2
REMARK    2  A    between atoms: CG1_2  and  CB_3
REMARK    3  A    between atoms: CB_3  and  CG2_4
REMARK    4  A    between atoms: CB_3  and  CA_5
REMARK    5  A    between atoms: CA_5  and  N_6
REMARK    6  A    between atoms: CA_5  and  C_18
REMARK    7  A    between atoms: C_7  and  C_8
REMARK    8  A    between atoms: C_9  and  O_10
REMARK    9  A    between atoms: C_12  and  C_13
REMARK   10  A    between atoms: C_12  and  C_14
REMARK   11  A    between atoms: C_18  and  OXT_20
REMARK                            x       y       z     vdW  Elec       q    Type
REMARK                         _______ _______ _______ _____ _____    ______ ____
ROOT
ATOM      1  N   ILE A   1       5.639   5.342  17.905  0.00  0.00    +0.000 NA
ATOM      2  C   UNK A   0       5.148   4.141  17.885  0.00  0.00    +0.000 C 
ENDROOT
BRANCH   2   3
ATOM      3  C   UNK A   0       3.905   3.744  18.601  0.00  0.00    +0.000 C 
ATOM      4  C   UNK A   0       2.784   4.475  18.512  0.00  0.00    +0.000 C 
ATOM      5  O   UNK A   0       1.639   4.178  19.192  0.00  0.00    +0.000 OA
ATOM      6  C   UNK A   0       1.575   2.932  19.875  0.00  0.00    +0.000 C 
ATOM      7  C   UNK A   0       0.664   1.998  19.077  0.00  0.00    +0.000 C 
ATOM      8  C   UNK A   0       0.967   3.216  21.247  0.00  0.00    +0.000 C 
ATOM      9  O   UNK A   0       2.807   2.246  20.124  0.00  0.00    +0.000 OA
ATOM     10  C   UNK A   0       3.927   2.561  19.464  0.00  0.00    +0.000 C 
ATOM     11  O   UNK A   0       4.949   1.894  19.587  0.00  0.00    +0.000 OA
BRANCH   4  12
ATOM     12  O   UNK A   0       2.697   5.608  17.723  0.00  0.00    +0.000 OA
ATOM     13  H   UNK A   0       3.161   5.436  16.876  0.00  0.00    +0.000 HD
ENDBRANCH   4  12
ENDBRANCH   2   3
BRANCH   1  14
ATOM     14  CA  ILE A   1       6.915   5.499  17.127  0.00  0.00    +0.000 C 
BRANCH  14  15
ATOM     15  CB  ILE A   1       7.884   6.526  17.770  0.00  0.00    +0.000 C 
ATOM     16  CG2 ILE A   1       8.047   6.255  19.274  0.00  0.00    +0.000 C 
BRANCH  15  18
ATOM     17  CD1 ILE A   1       8.314   9.046  18.096  0.00  0.00    +0.000 C 
ATOM     18  CG1 ILE A   1       7.380   7.974  17.546  0.00  0.00    +0.000 C 
ENDBRANCH  15  18
ENDBRANCH  14  15
BRANCH  14  19
ATOM     19  C   ILE A   1       6.534   5.761  15.654  0.00  0.00    +0.000 C 
ATOM     20  O   ILE A   1       5.486   6.238  15.252  0.00  0.00    +0.000 OA
BRANCH  19  21
ATOM     21  OXT ILE A   1       7.510   5.339  14.807  0.00  0.00    +0.000 OA
ATOM     22  HXT ILE A   1       8.369   5.282  15.276  0.00  0.00    +0.000 HD
ENDBRANCH  19  21
ENDBRANCH  14  19
ENDBRANCH   1  14
TORSDOF 7
ENDMDL
MODEL 4
REMARK VINA RESULT:      -6.6      1.681      3.029
REMARK  Name = 
REMARK  11 active torsions:
REMARK  status: ('A' for Active; 'I' for Inactive)
REMARK    1  A    between atoms: CD1_1  and  CG1_2
REMARK    2  A    between atoms: CG1_2  and  CB_3
REMARK    3  A    between atoms: CB_3  and  CG2_4
REMARK    4  A    between atoms: CB_3  and  CA_5
REMARK    5  A    between atoms: CA_5  and  N_6
REMARK    6  A    between atoms: CA_5  and  C_18
REMARK    7  A    between atoms: C_7  and  C_8
REMARK    8  A    between atoms: C_9  and  O_10
REMARK    9  A    between atoms: C_12  and  C_13
REMARK   10  A    between atoms: C_12  and  C_14
REMARK   11  A    between atoms: C_18  and  OXT_20
REMARK                            x       y       z     vdW  Elec       q    Type
REMARK                         _______ _______ _______ _____ _____    ______ ____
ROOT
ATOM      1  N   ILE A   1       5.469   4.570  17.128  0.00  0.00    +0.000 NA
ATOM      2  C   UNK A   0       5.384   3.889  18.230  0.00  0.00    +0.000 C 
ENDROOT
BRANCH   2   3
ATOM      3  C   UNK A   0       4.100   3.592  18.922  0.00  0.00    +0.000 C 
ATOM      4  C   UNK A   0       3.542   2.373  18.865  0.00  0.00    +0.000 C 
ATOM      5  O   UNK A   0       2.341   2.072  19.439  0.00  0.00    +0.000 OA
ATOM      6  C   UNK A   0       1.750   3.042  20.294  0.00  0.00    +0.000 C 
ATOM      7  C   UNK A   0       1.912   2.565  21.739  0.00  0.00    +0.000 C 
ATOM      8  C   UNK A   0       0.269   3.108  19.924  0.00  0.00    +0.000 C 
ATOM      9  O   UNK A   0       2.237   4.386  20.213  0.00  0.00    +0.000 OA
ATOM     10  C   UNK A   0       3.407   4.670  19.630  0.00  0.00    +0.000 C 
ATOM     11  O   UNK A   0       3.881   5.801  19.669  0.00  0.00    +0.000 OA
BRANCH   4  12
ATOM     12  O   UNK A   0       4.138   1.313  18.207  0.00  0.00    +0.000 OA
ATOM     13  H   UNK A   0       3.549   0.531  18.275  0.00  0.00    +0.000 HD
ENDBRANCH   4  12
ENDBRANCH   2   3
BRANCH   1  14
ATOM     14  CA  ILE A   1       6.874   4.761  16.629  0.00  0.00    +0.000 C 
BRANCH  14  15
ATOM     15  CB  ILE A   1       7.619   5.904  17.366  0.00  0.00    +0.000 C 
ATOM     16  CG2 ILE A   1       7.853   5.540  18.842  0.00  0.00    +0.000 C 
BRANCH  15  18
ATOM     17  CD1 ILE A   1       7.637   8.466  17.645  0.00  0.00    +0.000 C 
ATOM     18  CG1 ILE A   1       6.825   7.232  17.270  0.00  0.00    +0.000 C 
ENDBRANCH  15  18
ENDBRANCH  14  15
BRANCH  14  19
ATOM     19  C   ILE A   1       6.810   4.878  15.092  0.00  0.00    +0.000 C 
ATOM     20  O   ILE A   1       5.927   4.446  14.370  0.00  0.00    +0.000 OA
BRANCH  19  21
ATOM     21  OXT ILE A   1       7.915   5.495  14.595  0.00  0.00    +0.000 OA
ATOM     22  HXT ILE A   1       7.697   5.973  13.768  0.00  0.00    +0.000 HD
ENDBRANCH  19  21
ENDBRANCH  14  19
ENDBRANCH   1  14
TORSDOF 7
ENDMDL
MODEL 5
REMARK VINA RESULT:      -6.6      1.834      3.168
REMARK  Name = 
REMARK  11 active torsions:
REMARK  status: ('A' for Active; 'I' for Inactive)
REMARK    1  A    between atoms: CD1_1  and  CG1_2
REMARK    2  A    between atoms: CG1_2  and  CB_3
REMARK    3  A    between atoms: CB_3  and  CG2_4
REMARK    4  A    between atoms: CB_3  and  CA_5
REMARK    5  A    between atoms: CA_5  and  N_6
REMARK    6  A    between atoms: CA_5  and  C_18
REMARK    7  A    between atoms: C_7  and  C_8
REMARK    8  A    between atoms: C_9  and  O_10
REMARK    9  A    between atoms: C_12  and  C_13
REMARK   10  A    between atoms: C_12  and  C_14
REMARK   11  A    between atoms: C_18  and  OXT_20
REMARK                            x       y       z     vdW  Elec       q    Type
REMARK                         _______ _______ _______ _____ _____    ______ ____
ROOT
ATOM      1  N   ILE A   1       5.949   4.443  17.478  0.00  0.00    +0.000 NA
ATOM      2  C   UNK A   0       4.968   5.016  18.106  0.00  0.00    +0.000 C 
ENDROOT
BRANCH   2   3
ATOM      3  C   UNK A   0       3.777   4.285  18.621  0.00  0.00    +0.000 C 
ATOM      4  C   UNK A   0       3.888   3.064  19.165  0.00  0.00    +0.000 C 
ATOM      5  O   UNK A   0       2.818   2.338  19.600  0.00  0.00    +0.000 OA
ATOM      6  C   UNK A   0       1.552   2.984  19.653  0.00  0.00    +0.000 C 
ATOM      7  C   UNK A   0       1.225   3.272  21.119  0.00  0.00    +0.000 C 
ATOM      8  C   UNK A   0       0.536   2.004  19.070  0.00  0.00    +0.000 C 
ATOM      9  O   UNK A   0       1.395   4.200  18.915  0.00  0.00    +0.000 OA
ATOM     10  C   UNK A   0       2.452   4.892  18.476  0.00  0.00    +0.000 C 
ATOM     11  O   UNK A   0       2.321   5.994  17.953  0.00  0.00    +0.000 OA
BRANCH   4  12
ATOM     12  O   UNK A   0       5.106   2.430  19.323  0.00  0.00    +0.000 OA
ATOM     13  H   UNK A   0       4.985   1.471  19.154  0.00  0.00    +0.000 HD
ENDBRANCH   4  12
ENDBRANCH   2   3
BRANCH   1  14
ATOM     14  CA  ILE A   1       7.030   5.387  17.033  0.00  0.00    +0.000 C 
BRANCH  14  15
ATOM     15  CB  ILE A   1       7.192   6.601  17.985  0.00  0.00    +0.000 C 
ATOM     16  CG2 ILE A   1       7.519   7.877  17.192  0.00  0.00    +0.000 C 
BRANCH  15  18
ATOM     17  CD1 ILE A   1       7.883   5.378  20.145  0.00  0.00    +0.000 C 
ATOM     18  CG1 ILE A   1       8.301   6.334  19.034  0.00  0.00    +0.000 C 
ENDBRANCH  15  18
ENDBRANCH  14  15
BRANCH  14  19
ATOM     19  C   ILE A   1       6.773   5.723  15.549  0.00  0.00    +0.000 C 
ATOM     20  O   ILE A   1       5.735   6.152  15.074  0.00  0.00    +0.000 OA
BRANCH  19  21
ATOM     21  OXT ILE A   1       7.855   5.431  14.780  0.00  0.00    +0.000 OA
ATOM     22  HXT ILE A   1       7.733   4.568  14.331  0.00  0.00    +0.000 HD
ENDBRANCH  19  21
ENDBRANCH  14  19
ENDBRANCH   1  14
TORSDOF 7
ENDMDL
MODEL 6
REMARK VINA RESULT:      -6.6      1.225      1.611
REMARK  Name = 
REMARK  11 active torsions:
REMARK  status: ('A' for Active; 'I' for Inactive)
REMARK    1  A    between atoms: CD1_1  and  CG1_2
REMARK    2  A    between atoms: CG1_2  and  CB_3
REMARK    3  A    between atoms: CB_3  and  CG2_4
REMARK    4  A    between atoms: CB_3  and  CA_5
REMARK    5  A    between atoms: CA_5  and  N_6
REMARK    6  A    between atoms: CA_5  and  C_18
REMARK    7  A    between atoms: C_7  and  C_8
REMARK    8  A    between atoms: C_9  and  O_10
REMARK    9  A    between atoms: C_12  and  C_13
REMARK   10  A    between atoms: C_12  and  C_14
REMARK   11  A    between atoms: C_18  and  OXT_20
REMARK                            x       y       z     vdW  Elec       q    Type
REMARK                         _______ _______ _______ _____ _____    ______ ____
ROOT
ATOM      1  N   ILE A   1       5.207   4.186  16.414  0.00  0.00    +0.000 NA
ATOM      2  C   UNK A   0       4.501   4.966  17.174  0.00  0.00    +0.000 C 
ENDROOT
BRANCH   2   3
ATOM      3  C   UNK A   0       3.561   4.474  18.218  0.00  0.00    +0.000 C 
ATOM      4  C   UNK A   0       3.760   4.741  19.518  0.00  0.00    +0.000 C 
ATOM      5  O   UNK A   0       2.955   4.265  20.511  0.00  0.00    +0.000 OA
ATOM      6  C   UNK A   0       1.745   3.619  20.136  0.00  0.00    +0.000 C 
ATOM      7  C   UNK A   0       0.584   4.569  20.433  0.00  0.00    +0.000 C 
ATOM      8  C   UNK A   0       1.633   2.364  21.000  0.00  0.00    +0.000 C 
ATOM      9  O   UNK A   0       1.621   3.175  18.780  0.00  0.00    +0.000 OA
ATOM     10  C   UNK A   0       2.430   3.634  17.819  0.00  0.00    +0.000 C 
ATOM     11  O   UNK A   0       2.245   3.350  16.640  0.00  0.00    +0.000 OA
BRANCH   4  12
ATOM     12  O   UNK A   0       4.812   5.519  19.964  0.00  0.00    +0.000 OA
ATOM     13  H   UNK A   0       4.589   5.867  20.854  0.00  0.00    +0.000 HD
ENDBRANCH   4  12
ENDBRANCH   2   3
BRANCH   1  14
ATOM     14  CA  ILE A   1       6.068   4.911  15.417  0.00  0.00    +0.000 C 
BRANCH  14  15
ATOM     15  CB  ILE A   1       6.379   4.054  14.162  0.00  0.00    +0.000 C 
ATOM     16  CG2 ILE A   1       7.433   4.742  13.279  0.00  0.00    +0.000 C 
BRANCH  15  18
ATOM     17  CD1 ILE A   1       5.346   3.158  11.978  0.00  0.00    +0.000 C 
ATOM     18  CG1 ILE A   1       5.092   3.793  13.340  0.00  0.00    +0.000 C 
ENDBRANCH  15  18
ENDBRANCH  14  15
BRANCH  14  19
ATOM     19  C   ILE A   1       7.291   5.468  16.175  0.00  0.00    +0.000 C 
ATOM     20  O   ILE A   1       7.611   6.641  16.270  0.00  0.00    +0.000 OA
BRANCH  19  21
ATOM     21  OXT ILE A   1       8.041   4.467  16.709  0.00  0.00    +0.000 OA
ATOM     22  HXT ILE A   1       8.945   4.479  16.331  0.00  0.00    +0.000 HD
ENDBRANCH  19  21
ENDBRANCH  14  19
ENDBRANCH   1  14
TORSDOF 7
ENDMDL
MODEL 7
REMARK VINA RESULT:      -6.6      0.588      1.973
REMARK  Name = 
REMARK  11 active torsions:
REMARK  status: ('A' for Active; 'I' for Inactive)
REMARK    1  A    between atoms: CD1_1  and  CG1_2
REMARK    2  A    between atoms: CG1_2  and  CB_3
REMARK    3  A    between atoms: CB_3  and  CG2_4
REMARK    4  A    between atoms: CB_3  and  CA_5
REMARK    5  A    between atoms: CA_5  and  N_6
REMARK    6  A    between atoms: CA_5  and  C_18
REMARK    7  A    between atoms: C_7  and  C_8
REMARK    8  A    between atoms: C_9  and  O_10
REMARK    9  A    between atoms: C_12  and  C_13
REMARK   10  A    between atoms: C_12  and  C_14
REMARK   11  A    between atoms: C_18  and  OXT_20
REMARK                            x       y       z     vdW  Elec       q    Type
REMARK                         _______ _______ _______ _____ _____    ______ ____
ROOT
ATOM      1  N   ILE A   1       5.064   4.410  16.174  0.00  0.00    +0.000 NA
ATOM      2  C   UNK A   0       4.853   4.896  17.358  0.00  0.00    +0.000 C 
ENDROOT
BRANCH   2   3
ATOM      3  C   UNK A   0       3.815   4.380  18.292  0.00  0.00    +0.000 C 
ATOM      4  C   UNK A   0       2.628   4.990  18.422  0.00  0.00    +0.000 C 
ATOM      5  O   UNK A   0       1.669   4.583  19.304  0.00  0.00    +0.000 OA
ATOM      6  C   UNK A   0       1.864   3.344  19.974  0.00  0.00    +0.000 C 
ATOM      7  C   UNK A   0       0.921   2.312  19.353  0.00  0.00    +0.000 C 
ATOM      8  C   UNK A   0       1.499   3.576  21.439  0.00  0.00    +0.000 C 
ATOM      9  O   UNK A   0       3.185   2.791  19.979  0.00  0.00    +0.000 OA
ATOM     10  C   UNK A   0       4.122   3.214  19.123  0.00  0.00    +0.000 C 
ATOM     11  O   UNK A   0       5.212   2.658  19.045  0.00  0.00    +0.000 OA
BRANCH   4  12
ATOM     12  O   UNK A   0       2.276   6.099  17.675  0.00  0.00    +0.000 OA
ATOM     13  H   UNK A   0       1.298   6.163  17.649  0.00  0.00    +0.000 HD
ENDBRANCH   4  12
ENDBRANCH   2   3
BRANCH   1  14
ATOM     14  CA  ILE A   1       6.149   5.110  15.405  0.00  0.00    +0.000 C 
BRANCH  14  15
ATOM     15  CB  ILE A   1       6.619   4.303  14.166  0.00  0.00    +0.000 C 
ATOM     16  CG2 ILE A   1       7.603   5.127  13.319  0.00  0.00    +0.000 C 
BRANCH  15  18
ATOM     17  CD1 ILE A   1       5.794   3.119  12.031  0.00  0.00    +0.000 C 
ATOM     18  CG1 ILE A   1       5.409   3.872  13.298  0.00  0.00    +0.000 C 
ENDBRANCH  15  18
ENDBRANCH  14  15
BRANCH  14  19
ATOM     19  C   ILE A   1       7.251   5.506  16.410  0.00  0.00    +0.000 C 
ATOM     20  O   ILE A   1       7.542   6.639  16.755  0.00  0.00    +0.000 OA
BRANCH  19  21
ATOM     21  OXT ILE A   1       7.932   4.416  16.854  0.00  0.00    +0.000 OA
ATOM     22  HXT ILE A   1       8.897   4.551  16.753  0.00  0.00    +0.000 HD
ENDBRANCH  19  21
ENDBRANCH  14  19
ENDBRANCH   1  14
TORSDOF 7
ENDMDL
MODEL 8
REMARK VINA RESULT:      -6.5      1.277      2.344
REMARK  Name = 
REMARK  11 active torsions:
REMARK  status: ('A' for Active; 'I' for Inactive)
REMARK    1  A    between atoms: CD1_1  and  CG1_2
REMARK    2  A    between atoms: CG1_2  and  CB_3
REMARK    3  A    between atoms: CB_3  and  CG2_4
REMARK    4  A    between atoms: CB_3  and  CA_5
REMARK    5  A    between atoms: CA_5  and  N_6
REMARK    6  A    between atoms: CA_5  and  C_18
REMARK    7  A    between atoms: C_7  and  C_8
REMARK    8  A    between atoms: C_9  and  O_10
REMARK    9  A    between atoms: C_12  and  C_13
REMARK   10  A    between atoms: C_12  and  C_14
REMARK   11  A    between atoms: C_18  and  OXT_20
REMARK                            x       y       z     vdW  Elec       q    Type
REMARK                         _______ _______ _______ _____ _____    ______ ____
ROOT
ATOM      1  N   ILE A   1       5.138   5.118  17.353  0.00  0.00    +0.000 NA
ATOM      2  C   UNK A   0       5.117   4.128  18.192  0.00  0.00    +0.000 C 
ENDROOT
BRANCH   2   3
ATOM      3  C   UNK A   0       3.922   3.752  18.997  0.00  0.00    +0.000 C 
ATOM      4  C   UNK A   0       3.325   4.633  19.813  0.00  0.00    +0.000 C 
ATOM      5  O   UNK A   0       2.262   4.317  20.609  0.00  0.00    +0.000 OA
ATOM      6  C   UNK A   0       1.643   3.051  20.420  0.00  0.00    +0.000 C 
ATOM      7  C   UNK A   0       0.309   3.274  19.705  0.00  0.00    +0.000 C 
ATOM      8  C   UNK A   0       1.403   2.469  21.812  0.00  0.00    +0.000 C 
ATOM      9  O   UNK A   0       2.374   2.055  19.697  0.00  0.00    +0.000 OA
ATOM     10  C   UNK A   0       3.427   2.376  18.937  0.00  0.00    +0.000 C 
ATOM     11  O   UNK A   0       3.975   1.542  18.222  0.00  0.00    +0.000 OA
BRANCH   4  12
ATOM     12  O   UNK A   0       3.746   5.946  19.925  0.00  0.00    +0.000 OA
ATOM     13  H   UNK A   0       3.185   6.400  20.589  0.00  0.00    +0.000 HD
ENDBRANCH   4  12
ENDBRANCH   2   3
BRANCH   1  14
ATOM     14  CA  ILE A   1       6.463   5.319  16.673  0.00  0.00    +0.000 C 
BRANCH  14  15
ATOM     15  CB  ILE A   1       6.640   4.410  15.429  0.00  0.00    +0.000 C 
ATOM     16  CG2 ILE A   1       7.585   5.061  14.406  0.00  0.00    +0.000 C 
BRANCH  15  18
ATOM     17  CD1 ILE A   1       5.352   3.862  13.265  0.00  0.00    +0.000 C 
ATOM     18  CG1 ILE A   1       5.271   4.111  14.766  0.00  0.00    +0.000 C 
ENDBRANCH  15  18
ENDBRANCH  14  15
BRANCH  14  19
ATOM     19  C   ILE A   1       7.562   5.210  17.750  0.00  0.00    +0.000 C 
ATOM     20  O   ILE A   1       7.840   6.052  18.588  0.00  0.00    +0.000 OA
BRANCH  19  21
ATOM     21  OXT ILE A   1       8.257   4.047  17.634  0.00  0.00    +0.000 OA
ATOM     22  HXT ILE A   1       7.943   3.538  16.857  0.00  0.00    +0.000 HD
ENDBRANCH  19  21
ENDBRANCH  14  19
ENDBRANCH   1  14
TORSDOF 7
ENDMDL
MODEL 9
REMARK VINA RESULT:      -6.5      1.928      3.306
REMARK  Name = 
REMARK  11 active torsions:
REMARK  status: ('A' for Active; 'I' for Inactive)
REMARK    1  A    between atoms: CD1_1  and  CG1_2
REMARK    2  A    between atoms: CG1_2  and  CB_3
REMARK    3  A    between atoms: CB_3  and  CG2_4
REMARK    4  A    between atoms: CB_3  and  CA_5
REMARK    5  A    between atoms: CA_5  and  N_6
REMARK    6  A    between atoms: CA_5  and  C_18
REMARK    7  A    between atoms: C_7  and  C_8
REMARK    8  A    between atoms: C_9  and  O_10
REMARK    9  A    between atoms: C_12  and  C_13
REMARK   10  A    between atoms: C_12  and  C_14
REMARK   11  A    between atoms: C_18  and  OXT_20
REMARK                            x       y       z     vdW  Elec       q    Type
REMARK                         _______ _______ _______ _____ _____    ______ ____
ROOT
ATOM      1  N   ILE A   1       5.730   5.351  17.915  0.00  0.00    +0.000 NA
ATOM      2  C   UNK A   0       5.203   4.172  17.790  0.00  0.00    +0.000 C 
ENDROOT
BRANCH   2   3
ATOM      3  C   UNK A   0       3.938   3.757  18.457  0.00  0.00    +0.000 C 
ATOM      4  C   UNK A   0       3.888   2.672  19.244  0.00  0.00    +0.000 C 
ATOM      5  O   UNK A   0       2.740   2.225  19.831  0.00  0.00    +0.000 OA
ATOM      6  C   UNK A   0       1.589   3.056  19.759  0.00  0.00    +0.000 C 
ATOM      7  C   UNK A   0       1.370   3.686  21.136  0.00  0.00    +0.000 C 
ATOM      8  C   UNK A   0       0.414   2.147  19.404  0.00  0.00    +0.000 C 
ATOM      9  O   UNK A   0       1.585   4.104  18.785  0.00  0.00    +0.000 OA
ATOM     10  C   UNK A   0       2.715   4.519  18.201  0.00  0.00    +0.000 C 
ATOM     11  O   UNK A   0       2.728   5.497  17.460  0.00  0.00    +0.000 OA
BRANCH   4  12
ATOM     12  O   UNK A   0       5.003   1.902  19.520  0.00  0.00    +0.000 OA
ATOM     13  H   UNK A   0       5.181   1.942  20.485  0.00  0.00    +0.000 HD
ENDBRANCH   4  12
ENDBRANCH   2   3
BRANCH   1  14
ATOM     14  CA  ILE A   1       7.021   5.531  17.166  0.00  0.00    +0.000 C 
BRANCH  14  15
ATOM     15  CB  ILE A   1       7.952   6.583  17.824  0.00  0.00    +0.000 C 
ATOM     16  CG2 ILE A   1       8.076   6.332  19.335  0.00  0.00    +0.000 C 
BRANCH  15  18
ATOM     17  CD1 ILE A   1       8.333   9.115  18.116  0.00  0.00    +0.000 C 
ATOM     18  CG1 ILE A   1       7.427   8.019  17.569  0.00  0.00    +0.000 C 
ENDBRANCH  15  18
ENDBRANCH  14  15
BRANCH  14  19
ATOM     19  C   ILE A   1       6.669   5.774  15.683  0.00  0.00    +0.000 C 
ATOM     20  O   ILE A   1       5.630   6.247  15.255  0.00  0.00    +0.000 OA
BRANCH  19  21
ATOM     21  OXT ILE A   1       7.661   5.340  14.861  0.00  0.00    +0.000 OA
ATOM     22  HXT ILE A   1       8.194   4.647  15.304  0.00  0.00    +0.000 HD
ENDBRANCH  19  21
ENDBRANCH  14  19
ENDBRANCH   1  14
TORSDOF 7
ENDMDL
