MODEL 1
REMARK VINA RESULT:      -7.4      0.000      0.000
REMARK  Name = 
REMARK  14 active torsions:
REMARK  status: ('A' for Active; 'I' for Inactive)
REMARK    1  A    between atoms: C_2  and  C_4
REMARK    2  A    between atoms: N_7  and  C_8
REMARK    3  A    between atoms: C_8  and  C_9
REMARK    4  A    between atoms: C_9  and  O_10
REMARK    5  A    between atoms: C_9  and  C_11
REMARK    6  A    between atoms: C_11  and  O_12
REMARK    7  A    between atoms: O_12  and  C_13
REMARK    8  A    between atoms: C_16  and  O_17
REMARK    9  A    between atoms: O_17  and  C_18
REMARK   10  A    between atoms: C_18  and  C_19
REMARK   11  A    between atoms: C_19  and  O_20
REMARK   12  A    between atoms: C_19  and  C_21
REMARK   13  A    between atoms: C_21  and  N_22
REMARK   14  A    between atoms: C_25  and  C_26
REMARK                            x       y       z     vdW  Elec       q    Type
REMARK                         _______ _______ _______ _____ _____    ______ ____
ROOT
ATOM      1  C   UNL     1       2.451   7.567  18.877  0.00  0.00    +0.000 A 
ATOM      2  C   UNL     1       1.921   7.663  20.161  0.00  0.00    +0.000 A 
ATOM      3  C   UNL     1       1.023   8.664  20.491  0.00  0.00    +0.000 A 
ATOM      4  C   UNL     1       0.615   9.596  19.544  0.00  0.00    +0.000 A 
ATOM      5  C   UNL     1       1.146   9.521  18.253  0.00  0.00    +0.000 A 
ATOM      6  C   UNL     1       2.068   8.509  17.916  0.00  0.00    +0.000 A 
ENDROOT
BRANCH   1   7
ATOM      7  O   UNL     1       3.339   6.588  18.495  0.00  0.00    +0.000 OA
BRANCH   7   8
ATOM      8  C   UNL     1       4.268   7.024  17.480  0.00  0.00    +0.000 C 
BRANCH   8   9
ATOM      9  C   UNL     1       4.656   5.892  16.538  0.00  0.00    +0.000 C 
BRANCH   9  10
ATOM     10  O   UNL     1       5.274   6.429  15.366  0.00  0.00    +0.000 OA
ATOM     11  H   UNL     1       4.980   7.358  15.303  0.00  0.00    +0.000 HD
ENDBRANCH   9  10
BRANCH   9  12
ATOM     12  C   UNL     1       5.589   4.867  17.205  0.00  0.00    +0.000 C 
BRANCH  12  16
ATOM     13  C   UNL     1       2.788   2.322  19.294  0.00  0.00    +0.000 C 
ATOM     14  C   UNL     1       4.216   2.460  19.823  0.00  0.00    +0.000 C 
ATOM     15  C   UNL     1       4.923   3.688  19.244  0.00  0.00    +0.000 C 
ATOM     16  N   UNL     1       4.947   3.657  17.773  0.00  0.00    +0.000 NA
ATOM     17  C   UNL     1       3.593   3.537  17.210  0.00  0.00    +0.000 C 
ATOM     18  C   UNL     1       2.818   2.340  17.763  0.00  0.00    +0.000 C 
BRANCH  13  20
ATOM     19  N   UNL     1       1.937   3.532  21.246  0.00  0.00    +0.000 N 
ATOM     20  C   UNL     1       1.875   3.390  19.893  0.00  0.00    +0.000 C 
ATOM     21  O   UNL     1       1.146   4.129  19.242  0.00  0.00    +0.000 OA
ATOM     22  H   UNL     1       1.416   4.311  21.630  0.00  0.00    +0.000 HD
ATOM     23  H   UNL     1       2.710   3.171  21.786  0.00  0.00    +0.000 HD
ENDBRANCH  13  20
ENDBRANCH  12  16
ENDBRANCH   9  12
ENDBRANCH   8   9
ENDBRANCH   7   8
ENDBRANCH   1   7
BRANCH   4  24
ATOM     24  O   UNL     1      -0.294  10.592  19.807  0.00  0.00    +0.000 OA
BRANCH  24  25
ATOM     25  C   UNL     1       0.023  11.844  19.168  0.00  0.00    +0.000 C 
BRANCH  25  26
ATOM     26  C   UNL     1      -1.203  12.443  18.489  0.00  0.00    +0.000 C 
BRANCH  26  27
ATOM     27  O   UNL     1      -0.787  13.325  17.439  0.00  0.00    +0.000 OA
ATOM     28  H   UNL     1      -0.576  14.175  17.871  0.00  0.00    +0.000 HD
ENDBRANCH  26  27
BRANCH  26  29
ATOM     29  C   UNL     1      -2.138  11.362  17.919  0.00  0.00    +0.000 C 
BRANCH  29  30
ATOM     30  N   UNL     1      -3.459  11.232  18.582  0.00  0.00    +0.000 NA
ATOM     31  C   UNL     1      -3.763  12.411  19.406  0.00  0.00    +0.000 C 
ATOM     32  C   UNL     1      -5.166  12.351  20.011  0.00  0.00    +0.000 C 
ATOM     33  C   UNL     1      -6.232  12.209  18.924  0.00  0.00    +0.000 C 
ATOM     34  C   UNL     1      -5.906  10.972  18.081  0.00  0.00    +0.000 C 
ATOM     35  C   UNL     1      -4.477  11.005  17.539  0.00  0.00    +0.000 C 
BRANCH  33  36
ATOM     36  C   UNL     1      -6.349  13.471  18.073  0.00  0.00    +0.000 C 
ATOM     37  N   UNL     1      -6.170  14.647  18.741  0.00  0.00    +0.000 N 
ATOM     38  O   UNL     1      -6.606  13.485  16.875  0.00  0.00    +0.000 OA
ATOM     39  H   UNL     1      -6.189  14.707  19.749  0.00  0.00    +0.000 HD
ATOM     40  H   UNL     1      -6.308  15.497  18.209  0.00  0.00    +0.000 HD
ENDBRANCH  33  36
ENDBRANCH  29  30
ENDBRANCH  26  29
ENDBRANCH  25  26
ENDBRANCH  24  25
ENDBRANCH   4  24
TORSDOF 14
ENDMDL
MODEL 2
REMARK VINA RESULT:      -7.3      1.552      1.806
REMARK  Name = 
REMARK  14 active torsions:
REMARK  status: ('A' for Active; 'I' for Inactive)
REMARK    1  A    between atoms: C_2  and  C_4
REMARK    2  A    between atoms: N_7  and  C_8
REMARK    3  A    between atoms: C_8  and  C_9
REMARK    4  A    between atoms: C_9  and  O_10
REMARK    5  A    between atoms: C_9  and  C_11
REMARK    6  A    between atoms: C_11  and  O_12
REMARK    7  A    between atoms: O_12  and  C_13
REMARK    8  A    between atoms: C_16  and  O_17
REMARK    9  A    between atoms: O_17  and  C_18
REMARK   10  A    between atoms: C_18  and  C_19
REMARK   11  A    between atoms: C_19  and  O_20
REMARK   12  A    between atoms: C_19  and  C_21
REMARK   13  A    between atoms: C_21  and  N_22
REMARK   14  A    between atoms: C_25  and  C_26
REMARK                            x       y       z     vdW  Elec       q    Type
REMARK                         _______ _______ _______ _____ _____    ______ ____
ROOT
ATOM      1  C   UNL     1       2.416   7.318  18.539  0.00  0.00    +0.000 A 
ATOM      2  C   UNL     1       2.139   7.116  19.889  0.00  0.00    +0.000 A 
ATOM      3  C   UNL     1       1.495   8.085  20.640  0.00  0.00    +0.000 A 
ATOM      4  C   UNL     1       1.092   9.284  20.062  0.00  0.00    +0.000 A 
ATOM      5  C   UNL     1       1.373   9.507  18.711  0.00  0.00    +0.000 A 
ATOM      6  C   UNL     1       2.038   8.527  17.946  0.00  0.00    +0.000 A 
ENDROOT
BRANCH   1   7
ATOM      7  O   UNL     1       3.045   6.385  17.748  0.00  0.00    +0.000 OA
BRANCH   7   8
ATOM      8  C   UNL     1       4.350   6.806  17.298  0.00  0.00    +0.000 C 
BRANCH   8   9
ATOM      9  C   UNL     1       5.216   5.627  16.875  0.00  0.00    +0.000 C 
BRANCH   9  10
ATOM     10  O   UNL     1       6.280   6.084  16.035  0.00  0.00    +0.000 OA
ATOM     11  H   UNL     1       6.255   5.526  15.234  0.00  0.00    +0.000 HD
ENDBRANCH   9  10
BRANCH   9  12
ATOM     12  C   UNL     1       5.786   4.856  18.078  0.00  0.00    +0.000 C 
BRANCH  12  16
ATOM     13  C   UNL     1       2.458   2.294  19.097  0.00  0.00    +0.000 C 
ATOM     14  C   UNL     1       3.409   2.762  20.199  0.00  0.00    +0.000 C 
ATOM     15  C   UNL     1       4.243   3.968  19.757  0.00  0.00    +0.000 C 
ATOM     16  N   UNL     1       5.012   3.678  18.537  0.00  0.00    +0.000 NA
ATOM     17  C   UNL     1       4.141   3.232  17.438  0.00  0.00    +0.000 C 
ATOM     18  C   UNL     1       3.259   2.041  17.818  0.00  0.00    +0.000 C 
BRANCH  13  20
ATOM     19  N   UNL     1       0.656   3.660  20.040  0.00  0.00    +0.000 N 
ATOM     20  C   UNL     1       1.309   3.283  18.906  0.00  0.00    +0.000 C 
ATOM     21  O   UNL     1       0.981   3.771  17.831  0.00  0.00    +0.000 OA
ATOM     22  H   UNL     1      -0.030   4.396  19.927  0.00  0.00    +0.000 HD
ATOM     23  H   UNL     1       1.058   3.527  20.957  0.00  0.00    +0.000 HD
ENDBRANCH  13  20
ENDBRANCH  12  16
ENDBRANCH   9  12
ENDBRANCH   8   9
ENDBRANCH   7   8
ENDBRANCH   1   7
BRANCH   4  24
ATOM     24  O   UNL     1       0.425  10.267  20.750  0.00  0.00    +0.000 OA
BRANCH  24  25
ATOM     25  C   UNL     1       1.061  11.558  20.671  0.00  0.00    +0.000 C 
BRANCH  25  26
ATOM     26  C   UNL     1       0.032  12.672  20.520  0.00  0.00    +0.000 C 
BRANCH  26  27
ATOM     27  O   UNL     1       0.686  13.944  20.604  0.00  0.00    +0.000 OA
ATOM     28  H   UNL     1       1.574  13.766  20.970  0.00  0.00    +0.000 HD
ENDBRANCH  26  27
BRANCH  26  29
ATOM     29  C   UNL     1      -0.743  12.572  19.195  0.00  0.00    +0.000 C 
BRANCH  29  30
ATOM     30  N   UNL     1      -1.892  11.633  19.185  0.00  0.00    +0.000 NA
ATOM     31  C   UNL     1      -3.169  12.349  19.305  0.00  0.00    +0.000 C 
ATOM     32  C   UNL     1      -4.373  11.412  19.186  0.00  0.00    +0.000 C 
ATOM     33  C   UNL     1      -4.348  10.646  17.863  0.00  0.00    +0.000 C 
ATOM     34  C   UNL     1      -3.016   9.900  17.757  0.00  0.00    +0.000 C 
ATOM     35  C   UNL     1      -1.818  10.830  17.950  0.00  0.00    +0.000 C 
BRANCH  33  36
ATOM     36  C   UNL     1      -4.591  11.565  16.667  0.00  0.00    +0.000 C 
ATOM     37  N   UNL     1      -3.776  11.357  15.594  0.00  0.00    +0.000 N 
ATOM     38  O   UNL     1      -5.431  12.456  16.630  0.00  0.00    +0.000 OA
ATOM     39  H   UNL     1      -2.930  10.808  15.653  0.00  0.00    +0.000 HD
ATOM     40  H   UNL     1      -3.876  11.998  14.817  0.00  0.00    +0.000 HD
ENDBRANCH  33  36
ENDBRANCH  29  30
ENDBRANCH  26  29
ENDBRANCH  25  26
ENDBRANCH  24  25
ENDBRANCH   4  24
TORSDOF 14
ENDMDL
MODEL 3
REMARK VINA RESULT:      -7.3      2.196     10.821
REMARK  Name = 
REMARK  14 active torsions:
REMARK  status: ('A' for Active; 'I' for Inactive)
REMARK    1  A    between atoms: C_2  and  C_4
REMARK    2  A    between atoms: N_7  and  C_8
REMARK    3  A    between atoms: C_8  and  C_9
REMARK    4  A    between atoms: C_9  and  O_10
REMARK    5  A    between atoms: C_9  and  C_11
REMARK    6  A    between atoms: C_11  and  O_12
REMARK    7  A    between atoms: O_12  and  C_13
REMARK    8  A    between atoms: C_16  and  O_17
REMARK    9  A    between atoms: O_17  and  C_18
REMARK   10  A    between atoms: C_18  and  C_19
REMARK   11  A    between atoms: C_19  and  O_20
REMARK   12  A    between atoms: C_19  and  C_21
REMARK   13  A    between atoms: C_21  and  N_22
REMARK   14  A    between atoms: C_25  and  C_26
REMARK                            x       y       z     vdW  Elec       q    Type
REMARK                         _______ _______ _______ _____ _____    ______ ____
ROOT
ATOM      1  C   UNL     1       0.357  10.909  20.716  0.00  0.00    +0.000 A 
ATOM      2  C   UNL     1       0.816  10.190  19.615  0.00  0.00    +0.000 A 
ATOM      3  C   UNL     1       1.273   8.890  19.750  0.00  0.00    +0.000 A 
ATOM      4  C   UNL     1       1.274   8.260  20.989  0.00  0.00    +0.000 A 
ATOM      5  C   UNL     1       0.828   8.972  22.107  0.00  0.00    +0.000 A 
ATOM      6  C   UNL     1       0.371  10.300  21.975  0.00  0.00    +0.000 A 
ENDROOT
BRANCH   1   7
ATOM      7  O   UNL     1      -0.115  12.200  20.635  0.00  0.00    +0.000 OA
BRANCH   7   8
ATOM      8  C   UNL     1      -1.446  12.355  21.168  0.00  0.00    +0.000 C 
BRANCH   8   9
ATOM      9  C   UNL     1      -2.386  13.020  20.173  0.00  0.00    +0.000 C 
BRANCH   9  10
ATOM     10  O   UNL     1      -1.657  13.946  19.362  0.00  0.00    +0.000 OA
ATOM     11  H   UNL     1      -0.767  13.562  19.243  0.00  0.00    +0.000 HD
ENDBRANCH   9  10
BRANCH   9  12
ATOM     12  C   UNL     1      -3.118  12.000  19.284  0.00  0.00    +0.000 C 
BRANCH  12  16
ATOM     13  C   UNL     1      -7.411  11.529  19.458  0.00  0.00    +0.000 C 
ATOM     14  C   UNL     1      -6.690  11.353  18.121  0.00  0.00    +0.000 C 
ATOM     15  C   UNL     1      -5.187  11.130  18.309  0.00  0.00    +0.000 C 
ATOM     16  N   UNL     1      -4.564  12.232  19.059  0.00  0.00    +0.000 NA
ATOM     17  C   UNL     1      -5.215  12.438  20.362  0.00  0.00    +0.000 C 
ATOM     18  C   UNL     1      -6.726  12.645  20.253  0.00  0.00    +0.000 C 
BRANCH  13  20
ATOM     19  N   UNL     1      -7.612   9.088  19.452  0.00  0.00    +0.000 N 
ATOM     20  C   UNL     1      -7.489  10.206  20.219  0.00  0.00    +0.000 C 
ATOM     21  O   UNL     1      -7.409  10.097  21.437  0.00  0.00    +0.000 OA
ATOM     22  H   UNL     1      -7.553   8.207  19.948  0.00  0.00    +0.000 HD
ATOM     23  H   UNL     1      -7.390   9.089  18.466  0.00  0.00    +0.000 HD
ENDBRANCH  13  20
ENDBRANCH  12  16
ENDBRANCH   9  12
ENDBRANCH   8   9
ENDBRANCH   7   8
ENDBRANCH   1   7
BRANCH   4  24
ATOM     24  O   UNL     1       1.688   6.965  21.177  0.00  0.00    +0.000 OA
BRANCH  24  25
ATOM     25  C   UNL     1       1.697   6.181  19.968  0.00  0.00    +0.000 C 
BRANCH  25  26
ATOM     26  C   UNL     1       2.439   4.865  20.168  0.00  0.00    +0.000 C 
BRANCH  26  27
ATOM     27  O   UNL     1       1.714   3.805  19.534  0.00  0.00    +0.000 OA
ATOM     28  H   UNL     1       0.817   3.824  19.920  0.00  0.00    +0.000 HD
ENDBRANCH  26  27
BRANCH  26  29
ATOM     29  C   UNL     1       3.874   4.917  19.615  0.00  0.00    +0.000 C 
BRANCH  29  30
ATOM     30  N   UNL     1       3.998   5.103  18.149  0.00  0.00    +0.000 NA
ATOM     31  C   UNL     1       4.641   6.383  17.823  0.00  0.00    +0.000 C 
ATOM     32  C   UNL     1       4.880   6.547  16.321  0.00  0.00    +0.000 C 
ATOM     33  C   UNL     1       5.729   5.403  15.767  0.00  0.00    +0.000 C 
ATOM     34  C   UNL     1       5.041   4.078  16.107  0.00  0.00    +0.000 C 
ATOM     35  C   UNL     1       4.740   3.952  17.601  0.00  0.00    +0.000 C 
BRANCH  33  36
ATOM     36  C   UNL     1       7.165   5.456  16.286  0.00  0.00    +0.000 C 
ATOM     37  N   UNL     1       7.666   6.707  16.495  0.00  0.00    +0.000 N 
ATOM     38  O   UNL     1       7.868   4.475  16.496  0.00  0.00    +0.000 OA
ATOM     39  H   UNL     1       7.225   7.537  16.124  0.00  0.00    +0.000 HD
ATOM     40  H   UNL     1       8.637   6.766  16.775  0.00  0.00    +0.000 HD
ENDBRANCH  33  36
ENDBRANCH  29  30
ENDBRANCH  26  29
ENDBRANCH  25  26
ENDBRANCH  24  25
ENDBRANCH   4  24
TORSDOF 14
ENDMDL
MODEL 4
REMARK VINA RESULT:      -7.2      2.598      4.143
REMARK  Name = 
REMARK  14 active torsions:
REMARK  status: ('A' for Active; 'I' for Inactive)
REMARK    1  A    between atoms: C_2  and  C_4
REMARK    2  A    between atoms: N_7  and  C_8
REMARK    3  A    between atoms: C_8  and  C_9
REMARK    4  A    between atoms: C_9  and  O_10
REMARK    5  A    between atoms: C_9  and  C_11
REMARK    6  A    between atoms: C_11  and  O_12
REMARK    7  A    between atoms: O_12  and  C_13
REMARK    8  A    between atoms: C_16  and  O_17
REMARK    9  A    between atoms: O_17  and  C_18
REMARK   10  A    between atoms: C_18  and  C_19
REMARK   11  A    between atoms: C_19  and  O_20
REMARK   12  A    between atoms: C_19  and  C_21
REMARK   13  A    between atoms: C_21  and  N_22
REMARK   14  A    between atoms: C_25  and  C_26
REMARK                            x       y       z     vdW  Elec       q    Type
REMARK                         _______ _______ _______ _____ _____    ______ ____
ROOT
ATOM      1  C   UNL     1       1.774   7.026  20.363  0.00  0.00    +0.000 A 
ATOM      2  C   UNL     1       1.022   7.603  21.383  0.00  0.00    +0.000 A 
ATOM      3  C   UNL     1       0.532   8.893  21.268  0.00  0.00    +0.000 A 
ATOM      4  C   UNL     1       0.768   9.646  20.123  0.00  0.00    +0.000 A 
ATOM      5  C   UNL     1       1.532   9.086  19.095  0.00  0.00    +0.000 A 
ATOM      6  C   UNL     1       2.040   7.776  19.212  0.00  0.00    +0.000 A 
ENDROOT
BRANCH   1   7
ATOM      7  O   UNL     1       2.276   5.746  20.423  0.00  0.00    +0.000 OA
BRANCH   7   8
ATOM      8  C   UNL     1       1.317   4.738  20.038  0.00  0.00    +0.000 C 
BRANCH   8   9
ATOM      9  C   UNL     1       1.901   3.745  19.043  0.00  0.00    +0.000 C 
BRANCH   9  10
ATOM     10  O   UNL     1       1.188   3.823  17.806  0.00  0.00    +0.000 OA
ATOM     11  H   UNL     1       0.610   3.036  17.774  0.00  0.00    +0.000 HD
ENDBRANCH   9  10
BRANCH   9  12
ATOM     12  C   UNL     1       3.404   3.970  18.802  0.00  0.00    +0.000 C 
BRANCH  12  16
ATOM     13  C   UNL     1       5.796   5.648  15.617  0.00  0.00    +0.000 C 
ATOM     14  C   UNL     1       4.764   6.528  16.325  0.00  0.00    +0.000 C 
ATOM     15  C   UNL     1       4.329   5.930  17.665  0.00  0.00    +0.000 C 
ATOM     16  N   UNL     1       3.784   4.572  17.502  0.00  0.00    +0.000 NA
ATOM     17  C   UNL     1       4.744   3.679  16.834  0.00  0.00    +0.000 C 
ATOM     18  C   UNL     1       5.241   4.226  15.495  0.00  0.00    +0.000 C 
BRANCH  13  20
ATOM     19  N   UNL     1       7.816   4.529  16.433  0.00  0.00    +0.000 N 
ATOM     20  C   UNL     1       7.149   5.711  16.323  0.00  0.00    +0.000 C 
ATOM     21  O   UNL     1       7.668   6.738  16.745  0.00  0.00    +0.000 OA
ATOM     22  H   UNL     1       8.758   4.590  16.800  0.00  0.00    +0.000 HD
ATOM     23  H   UNL     1       7.585   3.730  15.860  0.00  0.00    +0.000 HD
ENDBRANCH  13  20
ENDBRANCH  12  16
ENDBRANCH   9  12
ENDBRANCH   8   9
ENDBRANCH   7   8
ENDBRANCH   1   7
BRANCH   4  24
ATOM     24  O   UNL     1       0.285  10.918  19.943  0.00  0.00    +0.000 OA
BRANCH  24  25
ATOM     25  C   UNL     1      -0.943  10.967  19.191  0.00  0.00    +0.000 C 
BRANCH  25  26
ATOM     26  C   UNL     1      -1.268  12.391  18.756  0.00  0.00    +0.000 C 
BRANCH  26  27
ATOM     27  O   UNL     1      -2.294  12.365  17.756  0.00  0.00    +0.000 OA
ATOM     28  H   UNL     1      -2.920  13.075  17.995  0.00  0.00    +0.000 HD
ENDBRANCH  26  27
BRANCH  26  29
ATOM     29  C   UNL     1      -1.714  13.272  19.936  0.00  0.00    +0.000 C 
BRANCH  29  30
ATOM     30  N   UNL     1      -2.578  12.613  20.946  0.00  0.00    +0.000 NA
ATOM     31  C   UNL     1      -1.988  12.693  22.289  0.00  0.00    +0.000 C 
ATOM     32  C   UNL     1      -2.913  12.119  23.364  0.00  0.00    +0.000 C 
ATOM     33  C   UNL     1      -4.267  12.829  23.367  0.00  0.00    +0.000 C 
ATOM     34  C   UNL     1      -4.871  12.730  21.964  0.00  0.00    +0.000 C 
ATOM     35  C   UNL     1      -3.913  13.238  20.886  0.00  0.00    +0.000 C 
BRANCH  33  36
ATOM     36  C   UNL     1      -4.150  14.276  23.843  0.00  0.00    +0.000 C 
ATOM     37  N   UNL     1      -3.523  14.449  25.042  0.00  0.00    +0.000 N 
ATOM     38  O   UNL     1      -4.589  15.248  23.239  0.00  0.00    +0.000 OA
ATOM     39  H   UNL     1      -3.355  13.686  25.681  0.00  0.00    +0.000 HD
ATOM     40  H   UNL     1      -3.494  15.393  25.406  0.00  0.00    +0.000 HD
ENDBRANCH  33  36
ENDBRANCH  29  30
ENDBRANCH  26  29
ENDBRANCH  25  26
ENDBRANCH  24  25
ENDBRANCH   4  24
TORSDOF 14
ENDMDL
MODEL 5
REMARK VINA RESULT:      -7.2      2.261      4.172
REMARK  Name = 
REMARK  14 active torsions:
REMARK  status: ('A' for Active; 'I' for Inactive)
REMARK    1  A    between atoms: C_2  and  C_4
REMARK    2  A    between atoms: N_7  and  C_8
REMARK    3  A    between atoms: C_8  and  C_9
REMARK    4  A    between atoms: C_9  and  O_10
REMARK    5  A    between atoms: C_9  and  C_11
REMARK    6  A    between atoms: C_11  and  O_12
REMARK    7  A    between atoms: O_12  and  C_13
REMARK    8  A    between atoms: C_16  and  O_17
REMARK    9  A    between atoms: O_17  and  C_18
REMARK   10  A    between atoms: C_18  and  C_19
REMARK   11  A    between atoms: C_19  and  O_20
REMARK   12  A    between atoms: C_19  and  C_21
REMARK   13  A    between atoms: C_21  and  N_22
REMARK   14  A    between atoms: C_25  and  C_26
REMARK                            x       y       z     vdW  Elec       q    Type
REMARK                         _______ _______ _______ _____ _____    ______ ____
ROOT
ATOM      1  C   UNL     1       2.316   7.544  19.216  0.00  0.00    +0.000 A 
ATOM      2  C   UNL     1       2.123   8.266  18.041  0.00  0.00    +0.000 A 
ATOM      3  C   UNL     1       1.332   9.402  18.022  0.00  0.00    +0.000 A 
ATOM      4  C   UNL     1       0.718   9.862  19.181  0.00  0.00    +0.000 A 
ATOM      5  C   UNL     1       0.891   9.142  20.367  0.00  0.00    +0.000 A 
ATOM      6  C   UNL     1       1.688   7.979  20.388  0.00  0.00    +0.000 A 
ENDROOT
BRANCH   1   7
ATOM      7  O   UNL     1       3.098   6.414  19.290  0.00  0.00    +0.000 OA
BRANCH   7   8
ATOM      8  C   UNL     1       2.483   5.342  20.036  0.00  0.00    +0.000 C 
BRANCH   8   9
ATOM      9  C   UNL     1       3.280   4.048  19.938  0.00  0.00    +0.000 C 
BRANCH   9  10
ATOM     10  O   UNL     1       2.728   3.072  20.826  0.00  0.00    +0.000 OA
ATOM     11  H   UNL     1       2.294   2.404  20.261  0.00  0.00    +0.000 HD
ENDBRANCH   9  10
BRANCH   9  12
ATOM     12  C   UNL     1       3.326   3.494  18.504  0.00  0.00    +0.000 C 
BRANCH  12  16
ATOM     13  C   UNL     1       6.896   4.886  16.504  0.00  0.00    +0.000 C 
ATOM     14  C   UNL     1       5.928   3.966  15.758  0.00  0.00    +0.000 C 
ATOM     15  C   UNL     1       4.553   3.921  16.430  0.00  0.00    +0.000 C 
ATOM     16  N   UNL     1       4.649   3.495  17.835  0.00  0.00    +0.000 NA
ATOM     17  C   UNL     1       5.562   4.356  18.603  0.00  0.00    +0.000 C 
ATOM     18  C   UNL     1       6.953   4.466  17.975  0.00  0.00    +0.000 C 
BRANCH  13  20
ATOM     19  N   UNL     1       7.252   7.254  17.022  0.00  0.00    +0.000 N 
ATOM     20  C   UNL     1       6.520   6.354  16.308  0.00  0.00    +0.000 C 
ATOM     21  O   UNL     1       5.654   6.755  15.539  0.00  0.00    +0.000 OA
ATOM     22  H   UNL     1       7.077   8.229  16.809  0.00  0.00    +0.000 HD
ATOM     23  H   UNL     1       8.144   7.013  17.429  0.00  0.00    +0.000 HD
ENDBRANCH  13  20
ENDBRANCH  12  16
ENDBRANCH   9  12
ENDBRANCH   8   9
ENDBRANCH   7   8
ENDBRANCH   1   7
BRANCH   4  24
ATOM     24  O   UNL     1      -0.054  10.998  19.227  0.00  0.00    +0.000 OA
BRANCH  24  25
ATOM     25  C   UNL     1      -1.467  10.739  19.119  0.00  0.00    +0.000 C 
BRANCH  25  26
ATOM     26  C   UNL     1      -2.228  11.993  18.706  0.00  0.00    +0.000 C 
BRANCH  26  27
ATOM     27  O   UNL     1      -2.116  12.178  17.289  0.00  0.00    +0.000 OA
ATOM     28  H   UNL     1      -2.366  11.324  16.887  0.00  0.00    +0.000 HD
ENDBRANCH  26  27
BRANCH  26  29
ATOM     29  C   UNL     1      -3.712  11.931  19.107  0.00  0.00    +0.000 C 
BRANCH  29  30
ATOM     30  N   UNL     1      -4.150  12.917  20.126  0.00  0.00    +0.000 NA
ATOM     31  C   UNL     1      -5.238  12.381  20.956  0.00  0.00    +0.000 C 
ATOM     32  C   UNL     1      -5.631  13.336  22.085  0.00  0.00    +0.000 C 
ATOM     33  C   UNL     1      -4.432  13.662  22.976  0.00  0.00    +0.000 C 
ATOM     34  C   UNL     1      -3.311  14.226  22.098  0.00  0.00    +0.000 C 
ATOM     35  C   UNL     1      -2.974  13.299  20.929  0.00  0.00    +0.000 C 
BRANCH  33  36
ATOM     36  C   UNL     1      -3.976  12.448  23.783  0.00  0.00    +0.000 C 
ATOM     37  N   UNL     1      -4.873  11.982  24.698  0.00  0.00    +0.000 N 
ATOM     38  O   UNL     1      -2.883  11.905  23.672  0.00  0.00    +0.000 OA
ATOM     39  H   UNL     1      -5.676  12.520  24.993  0.00  0.00    +0.000 HD
ATOM     40  H   UNL     1      -4.565  11.220  25.289  0.00  0.00    +0.000 HD
ENDBRANCH  33  36
ENDBRANCH  29  30
ENDBRANCH  26  29
ENDBRANCH  25  26
ENDBRANCH  24  25
ENDBRANCH   4  24
TORSDOF 14
ENDMDL
MODEL 6
REMARK VINA RESULT:      -7.2      1.446     10.961
REMARK  Name = 
REMARK  14 active torsions:
REMARK  status: ('A' for Active; 'I' for Inactive)
REMARK    1  A    between atoms: C_2  and  C_4
REMARK    2  A    between atoms: N_7  and  C_8
REMARK    3  A    between atoms: C_8  and  C_9
REMARK    4  A    between atoms: C_9  and  O_10
REMARK    5  A    between atoms: C_9  and  C_11
REMARK    6  A    between atoms: C_11  and  O_12
REMARK    7  A    between atoms: O_12  and  C_13
REMARK    8  A    between atoms: C_16  and  O_17
REMARK    9  A    between atoms: O_17  and  C_18
REMARK   10  A    between atoms: C_18  and  C_19
REMARK   11  A    between atoms: C_19  and  O_20
REMARK   12  A    between atoms: C_19  and  C_21
REMARK   13  A    between atoms: C_21  and  N_22
REMARK   14  A    between atoms: C_25  and  C_26
REMARK                            x       y       z     vdW  Elec       q    Type
REMARK                         _______ _______ _______ _____ _____    ______ ____
ROOT
ATOM      1  C   UNL     1       0.923   9.722  19.186  0.00  0.00    +0.000 A 
ATOM      2  C   UNL     1       0.894   9.189  20.472  0.00  0.00    +0.000 A 
ATOM      3  C   UNL     1       1.533   7.996  20.767  0.00  0.00    +0.000 A 
ATOM      4  C   UNL     1       2.236   7.304  19.787  0.00  0.00    +0.000 A 
ATOM      5  C   UNL     1       2.266   7.819  18.488  0.00  0.00    +0.000 A 
ATOM      6  C   UNL     1       1.607   9.028  18.182  0.00  0.00    +0.000 A 
ENDROOT
BRANCH   1   7
ATOM      7  O   UNL     1       0.312  10.906  18.843  0.00  0.00    +0.000 OA
BRANCH   7   8
ATOM      8  C   UNL     1      -1.105  10.916  19.114  0.00  0.00    +0.000 C 
BRANCH   8   9
ATOM      9  C   UNL     1      -1.811  12.074  18.421  0.00  0.00    +0.000 C 
BRANCH   9  10
ATOM     10  O   UNL     1      -0.930  12.678  17.469  0.00  0.00    +0.000 OA
ATOM     11  H   UNL     1      -0.051  12.282  17.622  0.00  0.00    +0.000 HD
ENDBRANCH   9  10
BRANCH   9  12
ATOM     12  C   UNL     1      -3.115  11.638  17.732  0.00  0.00    +0.000 C 
BRANCH  12  16
ATOM     13  C   UNL     1      -6.986  12.020  19.616  0.00  0.00    +0.000 C 
ATOM     14  C   UNL     1      -5.722  12.220  20.452  0.00  0.00    +0.000 C 
ATOM     15  C   UNL     1      -4.493  12.473  19.575  0.00  0.00    +0.000 C 
ATOM     16  N   UNL     1      -4.277  11.378  18.615  0.00  0.00    +0.000 NA
ATOM     17  C   UNL     1      -5.463  11.150  17.776  0.00  0.00    +0.000 C 
ATOM     18  C   UNL     1      -6.737  10.913  18.588  0.00  0.00    +0.000 C 
BRANCH  13  20
ATOM     19  N   UNL     1      -7.264  14.450  19.751  0.00  0.00    +0.000 N 
ATOM     20  C   UNL     1      -7.445  13.336  18.989  0.00  0.00    +0.000 C 
ATOM     21  O   UNL     1      -7.911  13.445  17.861  0.00  0.00    +0.000 OA
ATOM     22  H   UNL     1      -7.465  15.332  19.293  0.00  0.00    +0.000 HD
ATOM     23  H   UNL     1      -6.633  14.462  20.539  0.00  0.00    +0.000 HD
ENDBRANCH  13  20
ENDBRANCH  12  16
ENDBRANCH   9  12
ENDBRANCH   8   9
ENDBRANCH   7   8
ENDBRANCH   1   7
BRANCH   4  24
ATOM     24  O   UNL     1       2.912   6.133  20.029  0.00  0.00    +0.000 OA
BRANCH  24  25
ATOM     25  C   UNL     1       2.133   4.951  19.758  0.00  0.00    +0.000 C 
BRANCH  25  26
ATOM     26  C   UNL     1       3.029   3.757  19.455  0.00  0.00    +0.000 C 
BRANCH  26  27
ATOM     27  O   UNL     1       2.410   2.558  19.937  0.00  0.00    +0.000 OA
ATOM     28  H   UNL     1       1.720   2.846  20.566  0.00  0.00    +0.000 HD
ENDBRANCH  26  27
BRANCH  26  29
ATOM     29  C   UNL     1       3.327   3.620  17.952  0.00  0.00    +0.000 C 
BRANCH  29  30
ATOM     30  N   UNL     1       4.761   3.635  17.571  0.00  0.00    +0.000 NA
ATOM     31  C   UNL     1       4.948   4.143  16.205  0.00  0.00    +0.000 C 
ATOM     32  C   UNL     1       6.425   4.272  15.831  0.00  0.00    +0.000 C 
ATOM     33  C   UNL     1       7.167   5.181  16.812  0.00  0.00    +0.000 C 
ATOM     34  C   UNL     1       6.970   4.633  18.228  0.00  0.00    +0.000 C 
ATOM     35  C   UNL     1       5.492   4.437  18.569  0.00  0.00    +0.000 C 
BRANCH  33  36
ATOM     36  C   UNL     1       6.721   6.636  16.690  0.00  0.00    +0.000 C 
ATOM     37  N   UNL     1       7.556   7.555  17.254  0.00  0.00    +0.000 N 
ATOM     38  O   UNL     1       5.684   7.006  16.152  0.00  0.00    +0.000 OA
ATOM     39  H   UNL     1       8.288   7.297  17.901  0.00  0.00    +0.000 HD
ATOM     40  H   UNL     1       7.246   8.518  17.241  0.00  0.00    +0.000 HD
ENDBRANCH  33  36
ENDBRANCH  29  30
ENDBRANCH  26  29
ENDBRANCH  25  26
ENDBRANCH  24  25
ENDBRANCH   4  24
TORSDOF 14
ENDMDL
MODEL 7
REMARK VINA RESULT:      -7.1      2.389     10.521
REMARK  Name = 
REMARK  14 active torsions:
REMARK  status: ('A' for Active; 'I' for Inactive)
REMARK    1  A    between atoms: C_2  and  C_4
REMARK    2  A    between atoms: N_7  and  C_8
REMARK    3  A    between atoms: C_8  and  C_9
REMARK    4  A    between atoms: C_9  and  O_10
REMARK    5  A    between atoms: C_9  and  C_11
REMARK    6  A    between atoms: C_11  and  O_12
REMARK    7  A    between atoms: O_12  and  C_13
REMARK    8  A    between atoms: C_16  and  O_17
REMARK    9  A    between atoms: O_17  and  C_18
REMARK   10  A    between atoms: C_18  and  C_19
REMARK   11  A    between atoms: C_19  and  O_20
REMARK   12  A    between atoms: C_19  and  C_21
REMARK   13  A    between atoms: C_21  and  N_22
REMARK   14  A    between atoms: C_25  and  C_26
REMARK                            x       y       z     vdW  Elec       q    Type
REMARK                         _______ _______ _______ _____ _____    ______ ____
ROOT
ATOM      1  C   UNL     1       1.086   9.570  19.406  0.00  0.00    +0.000 A 
ATOM      2  C   UNL     1       1.717   9.565  18.164  0.00  0.00    +0.000 A 
ATOM      3  C   UNL     1       2.526   8.510  17.777  0.00  0.00    +0.000 A 
ATOM      4  C   UNL     1       2.722   7.418  18.615  0.00  0.00    +0.000 A 
ATOM      5  C   UNL     1       2.106   7.413  19.869  0.00  0.00    +0.000 A 
ATOM      6  C   UNL     1       1.289   8.489  20.271  0.00  0.00    +0.000 A 
ENDROOT
BRANCH   1   7
ATOM      7  O   UNL     1       0.266  10.589  19.834  0.00  0.00    +0.000 OA
BRANCH   7   8
ATOM      8  C   UNL     1      -0.660  11.040  18.824  0.00  0.00    +0.000 C 
BRANCH   8   9
ATOM      9  C   UNL     1      -1.200  12.431  19.125  0.00  0.00    +0.000 C 
BRANCH   9  10
ATOM     10  O   UNL     1      -1.325  13.176  17.910  0.00  0.00    +0.000 OA
ATOM     11  H   UNL     1      -1.005  12.590  17.197  0.00  0.00    +0.000 HD
ENDBRANCH   9  10
BRANCH   9  12
ATOM     12  C   UNL     1      -2.550  12.389  19.861  0.00  0.00    +0.000 C 
BRANCH  12  16
ATOM     13  C   UNL     1      -3.939  13.917  23.658  0.00  0.00    +0.000 C 
ATOM     14  C   UNL     1      -4.101  14.772  22.400  0.00  0.00    +0.000 C 
ATOM     15  C   UNL     1      -3.962  13.939  21.123  0.00  0.00    +0.000 C 
ATOM     16  N   UNL     1      -2.671  13.234  21.073  0.00  0.00    +0.000 NA
ATOM     17  C   UNL     1      -2.469  12.386  22.258  0.00  0.00    +0.000 C 
ATOM     18  C   UNL     1      -2.617  13.150  23.575  0.00  0.00    +0.000 C 
BRANCH  13  20
ATOM     19  N   UNL     1      -4.999  12.021  24.788  0.00  0.00    +0.000 N 
ATOM     20  C   UNL     1      -5.152  13.012  23.867  0.00  0.00    +0.000 C 
ATOM     21  O   UNL     1      -6.230  13.149  23.301  0.00  0.00    +0.000 OA
ATOM     22  H   UNL     1      -5.836  11.492  25.006  0.00  0.00    +0.000 HD
ATOM     23  H   UNL     1      -4.263  12.042  25.479  0.00  0.00    +0.000 HD
ENDBRANCH  13  20
ENDBRANCH  12  16
ENDBRANCH   9  12
ENDBRANCH   8   9
ENDBRANCH   7   8
ENDBRANCH   1   7
BRANCH   4  24
ATOM     24  O   UNL     1       3.490   6.332  18.272  0.00  0.00    +0.000 OA
BRANCH  24  25
ATOM     25  C   UNL     1       4.385   6.583  17.171  0.00  0.00    +0.000 C 
BRANCH  25  26
ATOM     26  C   UNL     1       5.331   5.410  16.950  0.00  0.00    +0.000 C 
BRANCH  26  27
ATOM     27  O   UNL     1       6.485   5.854  16.225  0.00  0.00    +0.000 OA
ATOM     28  H   UNL     1       6.389   6.821  16.134  0.00  0.00    +0.000 HD
ENDBRANCH  26  27
BRANCH  26  29
ATOM     29  C   UNL     1       5.768   4.758  18.273  0.00  0.00    +0.000 C 
BRANCH  29  30
ATOM     30  N   UNL     1       5.017   3.543  18.676  0.00  0.00    +0.000 NA
ATOM     31  C   UNL     1       4.228   3.780  19.893  0.00  0.00    +0.000 C 
ATOM     32  C   UNL     1       3.359   2.578  20.265  0.00  0.00    +0.000 C 
ATOM     33  C   UNL     1       2.418   2.201  19.121  0.00  0.00    +0.000 C 
ATOM     34  C   UNL     1       3.255   1.949  17.864  0.00  0.00    +0.000 C 
ATOM     35  C   UNL     1       4.175   3.126  17.539  0.00  0.00    +0.000 C 
BRANCH  33  36
ATOM     36  C   UNL     1       1.343   3.262  18.894  0.00  0.00    +0.000 C 
ATOM     37  N   UNL     1       0.629   3.619  20.000  0.00  0.00    +0.000 N 
ATOM     38  O   UNL     1       1.084   3.774  17.811  0.00  0.00    +0.000 OA
ATOM     39  H   UNL     1       0.638   3.074  20.850  0.00  0.00    +0.000 HD
ATOM     40  H   UNL     1      -0.130   4.273  19.858  0.00  0.00    +0.000 HD
ENDBRANCH  33  36
ENDBRANCH  29  30
ENDBRANCH  26  29
ENDBRANCH  25  26
ENDBRANCH  24  25
ENDBRANCH   4  24
TORSDOF 14
ENDMDL
MODEL 8
REMARK VINA RESULT:      -7.1      1.819      3.555
REMARK  Name = 
REMARK  14 active torsions:
REMARK  status: ('A' for Active; 'I' for Inactive)
REMARK    1  A    between atoms: C_2  and  C_4
REMARK    2  A    between atoms: N_7  and  C_8
REMARK    3  A    between atoms: C_8  and  C_9
REMARK    4  A    between atoms: C_9  and  O_10
REMARK    5  A    between atoms: C_9  and  C_11
REMARK    6  A    between atoms: C_11  and  O_12
REMARK    7  A    between atoms: O_12  and  C_13
REMARK    8  A    between atoms: C_16  and  O_17
REMARK    9  A    between atoms: O_17  and  C_18
REMARK   10  A    between atoms: C_18  and  C_19
REMARK   11  A    between atoms: C_19  and  O_20
REMARK   12  A    between atoms: C_19  and  C_21
REMARK   13  A    between atoms: C_21  and  N_22
REMARK   14  A    between atoms: C_25  and  C_26
REMARK                            x       y       z     vdW  Elec       q    Type
REMARK                         _______ _______ _______ _____ _____    ______ ____
ROOT
ATOM      1  C   UNL     1       1.846   7.979  19.814  0.00  0.00    +0.000 A 
ATOM      2  C   UNL     1       1.047   8.639  20.744  0.00  0.00    +0.000 A 
ATOM      3  C   UNL     1       0.261   9.717  20.375  0.00  0.00    +0.000 A 
ATOM      4  C   UNL     1       0.238  10.165  19.059  0.00  0.00    +0.000 A 
ATOM      5  C   UNL     1       1.044   9.521  18.115  0.00  0.00    +0.000 A 
ATOM      6  C   UNL     1       1.852   8.429  18.489  0.00  0.00    +0.000 A 
ENDROOT
BRANCH   1   7
ATOM      7  O   UNL     1       2.638   6.898  20.127  0.00  0.00    +0.000 OA
BRANCH   7   8
ATOM      8  C   UNL     1       1.909   5.654  20.182  0.00  0.00    +0.000 C 
BRANCH   8   9
ATOM      9  C   UNL     1       2.828   4.464  20.425  0.00  0.00    +0.000 C 
BRANCH   9  10
ATOM     10  O   UNL     1       2.050   3.313  20.763  0.00  0.00    +0.000 OA
ATOM     11  H   UNL     1       1.342   3.256  20.093  0.00  0.00    +0.000 HD
ENDBRANCH   9  10
BRANCH   9  12
ATOM     12  C   UNL     1       3.727   4.159  19.214  0.00  0.00    +0.000 C 
BRANCH  12  16
ATOM     13  C   UNL     1       6.654   6.360  16.918  0.00  0.00    +0.000 C 
ATOM     14  C   UNL     1       6.918   6.077  18.397  0.00  0.00    +0.000 C 
ATOM     15  C   UNL     1       6.024   4.956  18.932  0.00  0.00    +0.000 C 
ATOM     16  N   UNL     1       4.597   5.262  18.740  0.00  0.00    +0.000 NA
ATOM     17  C   UNL     1       4.285   5.532  17.328  0.00  0.00    +0.000 C 
ATOM     18  C   UNL     1       5.160   6.629  16.719  0.00  0.00    +0.000 C 
BRANCH  13  20
ATOM     19  N   UNL     1       6.829   5.282  14.725  0.00  0.00    +0.000 N 
ATOM     20  C   UNL     1       7.187   5.229  16.038  0.00  0.00    +0.000 C 
ATOM     21  O   UNL     1       7.926   4.333  16.427  0.00  0.00    +0.000 OA
ATOM     22  H   UNL     1       7.271   4.597  14.123  0.00  0.00    +0.000 HD
ATOM     23  H   UNL     1       6.482   6.129  14.299  0.00  0.00    +0.000 HD
ENDBRANCH  13  20
ENDBRANCH  12  16
ENDBRANCH   9  12
ENDBRANCH   8   9
ENDBRANCH   7   8
ENDBRANCH   1   7
BRANCH   4  24
ATOM     24  O   UNL     1      -0.542  11.210  18.630  0.00  0.00    +0.000 OA
BRANCH  24  25
ATOM     25  C   UNL     1      -1.953  10.999  18.836  0.00  0.00    +0.000 C 
BRANCH  25  26
ATOM     26  C   UNL     1      -2.775  11.636  17.724  0.00  0.00    +0.000 C 
BRANCH  26  27
ATOM     27  O   UNL     1      -1.900  12.133  16.704  0.00  0.00    +0.000 OA
ATOM     28  H   UNL     1      -1.748  13.074  16.917  0.00  0.00    +0.000 HD
ENDBRANCH  26  27
BRANCH  26  29
ATOM     29  C   UNL     1      -3.783  10.649  17.108  0.00  0.00    +0.000 C 
BRANCH  29  30
ATOM     30  N   UNL     1      -5.216  10.975  17.311  0.00  0.00    +0.000 NA
ATOM     31  C   UNL     1      -5.624  10.746  18.704  0.00  0.00    +0.000 C 
ATOM     32  C   UNL     1      -7.068  11.180  18.965  0.00  0.00    +0.000 C 
ATOM     33  C   UNL     1      -7.274  12.654  18.616  0.00  0.00    +0.000 C 
ATOM     34  C   UNL     1      -6.853  12.874  17.160  0.00  0.00    +0.000 C 
ATOM     35  C   UNL     1      -5.434  12.371  16.889  0.00  0.00    +0.000 C 
BRANCH  33  36
ATOM     36  C   UNL     1      -6.528  13.577  19.577  0.00  0.00    +0.000 C 
ATOM     37  N   UNL     1      -6.045  14.728  19.027  0.00  0.00    +0.000 N 
ATOM     38  O   UNL     1      -6.331  13.339  20.762  0.00  0.00    +0.000 OA
ATOM     39  H   UNL     1      -5.974  14.864  18.029  0.00  0.00    +0.000 HD
ATOM     40  H   UNL     1      -5.492  15.322  19.631  0.00  0.00    +0.000 HD
ENDBRANCH  33  36
ENDBRANCH  29  30
ENDBRANCH  26  29
ENDBRANCH  25  26
ENDBRANCH  24  25
ENDBRANCH   4  24
TORSDOF 14
ENDMDL
MODEL 9
REMARK VINA RESULT:      -7.1      2.581     10.706
REMARK  Name = 
REMARK  14 active torsions:
REMARK  status: ('A' for Active; 'I' for Inactive)
REMARK    1  A    between atoms: C_2  and  C_4
REMARK    2  A    between atoms: N_7  and  C_8
REMARK    3  A    between atoms: C_8  and  C_9
REMARK    4  A    between atoms: C_9  and  O_10
REMARK    5  A    between atoms: C_9  and  C_11
REMARK    6  A    between atoms: C_11  and  O_12
REMARK    7  A    between atoms: O_12  and  C_13
REMARK    8  A    between atoms: C_16  and  O_17
REMARK    9  A    between atoms: O_17  and  C_18
REMARK   10  A    between atoms: C_18  and  C_19
REMARK   11  A    between atoms: C_19  and  O_20
REMARK   12  A    between atoms: C_19  and  C_21
REMARK   13  A    between atoms: C_21  and  N_22
REMARK   14  A    between atoms: C_25  and  C_26
REMARK                            x       y       z     vdW  Elec       q    Type
REMARK                         _______ _______ _______ _____ _____    ______ ____
ROOT
ATOM      1  C   UNL     1       1.573   9.106  18.813  0.00  0.00    +0.000 A 
ATOM      2  C   UNL     1       2.140   8.200  17.921  0.00  0.00    +0.000 A 
ATOM      3  C   UNL     1       2.467   6.914  18.318  0.00  0.00    +0.000 A 
ATOM      4  C   UNL     1       2.225   6.487  19.619  0.00  0.00    +0.000 A 
ATOM      5  C   UNL     1       1.667   7.388  20.530  0.00  0.00    +0.000 A 
ATOM      6  C   UNL     1       1.342   8.700  20.132  0.00  0.00    +0.000 A 
ENDROOT
BRANCH   1   7
ATOM      7  O   UNL     1       1.222  10.390  18.467  0.00  0.00    +0.000 OA
BRANCH   7   8
ATOM      8  C   UNL     1      -0.174  10.530  18.129  0.00  0.00    +0.000 C 
BRANCH   8   9
ATOM      9  C   UNL     1      -0.769  11.818  18.680  0.00  0.00    +0.000 C 
BRANCH   9  10
ATOM     10  O   UNL     1      -1.292  12.607  17.608  0.00  0.00    +0.000 OA
ATOM     11  H   UNL     1      -2.238  12.743  17.805  0.00  0.00    +0.000 HD
ENDBRANCH   9  10
BRANCH   9  12
ATOM     12  C   UNL     1      -1.865  11.557  19.728  0.00  0.00    +0.000 C 
BRANCH  12  16
ATOM     13  C   UNL     1      -3.446  13.700  23.132  0.00  0.00    +0.000 C 
ATOM     14  C   UNL     1      -3.633  14.278  21.729  0.00  0.00    +0.000 C 
ATOM     15  C   UNL     1      -3.408  13.222  20.643  0.00  0.00    +0.000 C 
ATOM     16  N   UNL     1      -2.072  12.613  20.747  0.00  0.00    +0.000 NA
ATOM     17  C   UNL     1      -1.844  12.030  22.079  0.00  0.00    +0.000 C 
ATOM     18  C   UNL     1      -2.075  13.025  23.217  0.00  0.00    +0.000 C 
BRANCH  13  20
ATOM     19  N   UNL     1      -4.591  12.290  24.776  0.00  0.00    +0.000 N 
ATOM     20  C   UNL     1      -4.602  12.770  23.502  0.00  0.00    +0.000 C 
ATOM     21  O   UNL     1      -5.526  12.476  22.754  0.00  0.00    +0.000 OA
ATOM     22  H   UNL     1      -5.412  11.765  25.054  0.00  0.00    +0.000 HD
ATOM     23  H   UNL     1      -4.039  12.719  25.505  0.00  0.00    +0.000 HD
ENDBRANCH  13  20
ENDBRANCH  12  16
ENDBRANCH   9  12
ENDBRANCH   8   9
ENDBRANCH   7   8
ENDBRANCH   1   7
BRANCH   4  24
ATOM     24  O   UNL     1       2.502   5.216  20.060  0.00  0.00    +0.000 OA
BRANCH  24  25
ATOM     25  C   UNL     1       1.827   4.186  19.312  0.00  0.00    +0.000 C 
BRANCH  25  26
ATOM     26  C   UNL     1       2.818   3.182  18.737  0.00  0.00    +0.000 C 
BRANCH  26  27
ATOM     27  O   UNL     1       2.204   1.889  18.666  0.00  0.00    +0.000 OA
ATOM     28  H   UNL     1       1.412   1.936  19.236  0.00  0.00    +0.000 HD
ENDBRANCH  26  27
BRANCH  26  29
ATOM     29  C   UNL     1       3.323   3.595  17.344  0.00  0.00    +0.000 C 
BRANCH  29  30
ATOM     30  N   UNL     1       4.795   3.695  17.191  0.00  0.00    +0.000 NA
ATOM     31  C   UNL     1       5.159   4.407  15.959  0.00  0.00    +0.000 C 
ATOM     32  C   UNL     1       6.669   4.620  15.835  0.00  0.00    +0.000 C 
ATOM     33  C   UNL     1       7.220   5.383  17.039  0.00  0.00    +0.000 C 
ATOM     34  C   UNL     1       6.841   4.624  18.313  0.00  0.00    +0.000 C 
ATOM     35  C   UNL     1       5.338   4.351  18.395  0.00  0.00    +0.000 C 
BRANCH  33  36
ATOM     36  C   UNL     1       6.736   6.832  17.066  0.00  0.00    +0.000 C 
ATOM     37  N   UNL     1       7.716   7.775  17.169  0.00  0.00    +0.000 N 
ATOM     38  O   UNL     1       5.561   7.177  17.022  0.00  0.00    +0.000 OA
ATOM     39  H   UNL     1       8.662   7.547  17.440  0.00  0.00    +0.000 HD
ATOM     40  H   UNL     1       7.413   8.737  17.254  0.00  0.00    +0.000 HD
ENDBRANCH  33  36
ENDBRANCH  29  30
ENDBRANCH  26  29
ENDBRANCH  25  26
ENDBRANCH  24  25
ENDBRANCH   4  24
TORSDOF 14
ENDMDL
