MODEL 1
REMARK VINA RESULT:      -8.2      0.000      0.000
REMARK  Name = 
REMARK  11 active torsions:
REMARK  status: ('A' for Active; 'I' for Inactive)
REMARK    1  A    between atoms: C_1  and  C_2
REMARK    2  A    between atoms: N_4  and  C_5
REMARK    3  A    between atoms: C_5  and  C_6
REMARK    4  A    between atoms: C_5  and  C_7
REMARK    5  A    between atoms: C_7  and  O_8
REMARK    6  A    between atoms: C_13  and  C_14
REMARK    7  A    between atoms: C_24  and  C_25
REMARK    8  A    between atoms: C_25  and  N_26
REMARK    9  A    between atoms: N_26  and  C_27
REMARK   10  A    between atoms: N_26  and  C_28
REMARK   11  A    between atoms: C_28  and  C_29
REMARK                            x       y       z     vdW  Elec       q    Type
REMARK                         _______ _______ _______ _____ _____    ______ ____
ROOT
ATOM      1  C   UNL     1       3.711   3.440  16.965  0.00  0.00    +0.000 C 
ATOM      2  C   UNL     1       3.189   4.873  17.176  0.00  0.00    +0.000 C 
ATOM      3  C   UNL     1       1.860   4.834  17.965  0.00  0.00    +0.000 C 
ATOM      4  N   UNL     1       1.951   4.754  19.431  0.00  0.00    +0.000 N 
ATOM      5  C   UNL     1       1.896   5.904  20.234  0.00  0.00    +0.000 C 
ATOM      6  O   UNL     1       1.783   5.903  21.454  0.00  0.00    +0.000 OA
ATOM      7  C   UNL     1       1.978   7.199  19.540  0.00  0.00    +0.000 A 
ATOM      8  C   UNL     1       0.912   8.094  19.553  0.00  0.00    +0.000 A 
ATOM      9  C   UNL     1       0.927   9.212  18.701  0.00  0.00    +0.000 A 
ATOM     10  C   UNL     1       2.079   9.364  17.916  0.00  0.00    +0.000 A 
ATOM     11  N   UNL     1       3.145   8.523  17.912  0.00  0.00    +0.000 NA
ATOM     12  C   UNL     1       3.057   7.453  18.717  0.00  0.00    +0.000 A 
ATOM     13  O   UNL     1       4.130   6.611  18.802  0.00  0.00    +0.000 OA
ATOM     14  C   UNL     1       4.371   5.780  17.664  0.00  0.00    +0.000 C 
ENDROOT
BRANCH   9  15
ATOM     15  C   UNL     1      -0.225  10.130  18.592  0.00  0.00    +0.000 A 
ATOM     16  C   UNL     1      -1.212   9.975  17.600  0.00  0.00    +0.000 A 
ATOM     17  C   UNL     1      -2.320  10.827  17.535  0.00  0.00    +0.000 A 
ATOM     18  C   UNL     1      -2.464  11.860  18.453  0.00  0.00    +0.000 A 
ATOM     19  C   UNL     1      -1.501  12.043  19.438  0.00  0.00    +0.000 A 
ATOM     20  C   UNL     1      -0.399  11.186  19.507  0.00  0.00    +0.000 A 
ENDBRANCH   9  15
BRANCH   4  21
ATOM     21  C   UNL     1       1.966   3.407  20.056  0.00  0.00    +0.000 C 
ATOM     22  C   UNL     1       3.375   2.833  20.223  0.00  0.00    +0.000 C 
BRANCH  21  23
ATOM     23  C   UNL     1       1.062   2.395  19.325  0.00  0.00    +0.000 C 
BRANCH  23  24
ATOM     24  O   UNL     1       1.839   1.329  18.781  0.00  0.00    +0.000 OA
ATOM     25  H   UNL     1       1.598   1.297  17.836  0.00  0.00    +0.000 HD
ENDBRANCH  23  24
ENDBRANCH  21  23
ENDBRANCH   4  21
BRANCH  14  26
ATOM     26  C   UNL     1       5.076   6.522  16.480  0.00  0.00    +0.000 C 
BRANCH  26  27
ATOM     27  N   UNL     1       6.537   6.373  16.309  0.00  0.00    +0.000 NA
ATOM     28  C   UNL     1       7.287   6.980  17.415  0.00  0.00    +0.000 C 
BRANCH  27  29
ATOM     29  C   UNL     1       6.942   4.969  16.076  0.00  0.00    +0.000 C 
BRANCH  29  30
ATOM     30  C   UNL     1       7.105   4.638  14.603  0.00  0.00    +0.000 A 
ATOM     31  C   UNL     1       6.241   3.735  13.991  0.00  0.00    +0.000 A 
ATOM     32  C   UNL     1       6.234   3.657  12.603  0.00  0.00    +0.000 A 
ATOM     33  C   UNL     1       7.098   4.467  11.869  0.00  0.00    +0.000 A 
ATOM     34  C   UNL     1       7.958   5.303  12.559  0.00  0.00    +0.000 A 
ATOM     35  N   UNL     1       7.984   5.403  13.902  0.00  0.00    +0.000 NA
ENDBRANCH  29  30
ENDBRANCH  27  29
ENDBRANCH  26  27
ENDBRANCH  14  26
TORSDOF 8
ENDMDL
MODEL 2
REMARK VINA RESULT:      -8.1      1.392      2.746
REMARK  Name = 
REMARK  11 active torsions:
REMARK  status: ('A' for Active; 'I' for Inactive)
REMARK    1  A    between atoms: C_1  and  C_2
REMARK    2  A    between atoms: N_4  and  C_5
REMARK    3  A    between atoms: C_5  and  C_6
REMARK    4  A    between atoms: C_5  and  C_7
REMARK    5  A    between atoms: C_7  and  O_8
REMARK    6  A    between atoms: C_13  and  C_14
REMARK    7  A    between atoms: C_24  and  C_25
REMARK    8  A    between atoms: C_25  and  N_26
REMARK    9  A    between atoms: N_26  and  C_27
REMARK   10  A    between atoms: N_26  and  C_28
REMARK   11  A    between atoms: C_28  and  C_29
REMARK                            x       y       z     vdW  Elec       q    Type
REMARK                         _______ _______ _______ _____ _____    ______ ____
ROOT
ATOM      1  C   UNL     1       3.074   2.244  17.045  0.00  0.00    +0.000 C 
ATOM      2  C   UNL     1       2.872   3.763  17.184  0.00  0.00    +0.000 C 
ATOM      3  C   UNL     1       1.761   4.049  18.220  0.00  0.00    +0.000 C 
ATOM      4  N   UNL     1       2.152   4.067  19.639  0.00  0.00    +0.000 N 
ATOM      5  C   UNL     1       2.476   5.265  20.295  0.00  0.00    +0.000 C 
ATOM      6  O   UNL     1       2.633   5.381  21.505  0.00  0.00    +0.000 OA
ATOM      7  C   UNL     1       2.633   6.460  19.451  0.00  0.00    +0.000 A 
ATOM      8  C   UNL     1       1.770   7.546  19.569  0.00  0.00    +0.000 A 
ATOM      9  C   UNL     1       1.798   8.568  18.605  0.00  0.00    +0.000 A 
ATOM     10  C   UNL     1       2.760   8.428  17.595  0.00  0.00    +0.000 A 
ATOM     11  N   UNL     1       3.634   7.396  17.480  0.00  0.00    +0.000 NA
ATOM     12  C   UNL     1       3.535   6.431  18.406  0.00  0.00    +0.000 A 
ATOM     13  O   UNL     1       4.435   5.402  18.376  0.00  0.00    +0.000 OA
ATOM     14  C   UNL     1       4.273   4.454  17.318  0.00  0.00    +0.000 C 
ENDROOT
BRANCH   9  15
ATOM     15  C   UNL     1       0.831   9.685  18.619  0.00  0.00    +0.000 A 
ATOM     16  C   UNL     1      -0.414   9.602  17.967  0.00  0.00    +0.000 A 
ATOM     17  C   UNL     1      -1.338  10.652  18.024  0.00  0.00    +0.000 A 
ATOM     18  C   UNL     1      -1.038  11.812  18.727  0.00  0.00    +0.000 A 
ATOM     19  C   UNL     1       0.187  11.925  19.374  0.00  0.00    +0.000 A 
ATOM     20  C   UNL     1       1.106  10.873  19.322  0.00  0.00    +0.000 A 
ENDBRANCH   9  15
BRANCH   4  21
ATOM     21  C   UNL     1       2.064   2.797  20.403  0.00  0.00    +0.000 C 
ATOM     22  C   UNL     1       0.949   2.798  21.451  0.00  0.00    +0.000 C 
BRANCH  21  23
ATOM     23  C   UNL     1       3.403   2.391  21.049  0.00  0.00    +0.000 C 
BRANCH  23  24
ATOM     24  O   UNL     1       4.444   2.367  20.075  0.00  0.00    +0.000 OA
ATOM     25  H   UNL     1       4.019   2.644  19.242  0.00  0.00    +0.000 HD
ENDBRANCH  23  24
ENDBRANCH  21  23
ENDBRANCH   4  21
BRANCH  14  26
ATOM     26  C   UNL     1       4.824   4.948  15.939  0.00  0.00    +0.000 C 
BRANCH  26  27
ATOM     27  N   UNL     1       5.821   4.119  15.227  0.00  0.00    +0.000 NA
ATOM     28  C   UNL     1       5.522   4.001  13.796  0.00  0.00    +0.000 C 
BRANCH  27  29
ATOM     29  C   UNL     1       7.210   4.572  15.463  0.00  0.00    +0.000 C 
BRANCH  29  30
ATOM     30  C   UNL     1       7.349   5.429  16.710  0.00  0.00    +0.000 A 
ATOM     31  C   UNL     1       7.659   4.837  17.931  0.00  0.00    +0.000 A 
ATOM     32  C   UNL     1       8.047   5.655  18.986  0.00  0.00    +0.000 A 
ATOM     33  C   UNL     1       8.100   7.035  18.798  0.00  0.00    +0.000 A 
ATOM     34  C   UNL     1       7.731   7.543  17.565  0.00  0.00    +0.000 A 
ATOM     35  N   UNL     1       7.353   6.775  16.524  0.00  0.00    +0.000 NA
ENDBRANCH  29  30
ENDBRANCH  27  29
ENDBRANCH  26  27
ENDBRANCH  14  26
TORSDOF 8
ENDMDL
MODEL 3
REMARK VINA RESULT:      -8.0      0.741      1.212
REMARK  Name = 
REMARK  11 active torsions:
REMARK  status: ('A' for Active; 'I' for Inactive)
REMARK    1  A    between atoms: C_1  and  C_2
REMARK    2  A    between atoms: N_4  and  C_5
REMARK    3  A    between atoms: C_5  and  C_6
REMARK    4  A    between atoms: C_5  and  C_7
REMARK    5  A    between atoms: C_7  and  O_8
REMARK    6  A    between atoms: C_13  and  C_14
REMARK    7  A    between atoms: C_24  and  C_25
REMARK    8  A    between atoms: C_25  and  N_26
REMARK    9  A    between atoms: N_26  and  C_27
REMARK   10  A    between atoms: N_26  and  C_28
REMARK   11  A    between atoms: C_28  and  C_29
REMARK                            x       y       z     vdW  Elec       q    Type
REMARK                         _______ _______ _______ _____ _____    ______ ____
ROOT
ATOM      1  C   UNL     1       3.705   3.362  16.801  0.00  0.00    +0.000 C 
ATOM      2  C   UNL     1       3.201   4.792  17.066  0.00  0.00    +0.000 C 
ATOM      3  C   UNL     1       1.893   4.740  17.889  0.00  0.00    +0.000 C 
ATOM      4  N   UNL     1       2.022   4.617  19.350  0.00  0.00    +0.000 N 
ATOM      5  C   UNL     1       1.997   5.744  20.186  0.00  0.00    +0.000 C 
ATOM      6  O   UNL     1       1.917   5.708  21.408  0.00  0.00    +0.000 OA
ATOM      7  C   UNL     1       2.072   7.058  19.527  0.00  0.00    +0.000 A 
ATOM      8  C   UNL     1       1.014   7.959  19.594  0.00  0.00    +0.000 A 
ATOM      9  C   UNL     1       1.016   9.101  18.774  0.00  0.00    +0.000 A 
ATOM     10  C   UNL     1       2.148   9.267  17.963  0.00  0.00    +0.000 A 
ATOM     11  N   UNL     1       3.206   8.419  17.907  0.00  0.00    +0.000 NA
ATOM     12  C   UNL     1       3.130   7.327  18.683  0.00  0.00    +0.000 A 
ATOM     13  O   UNL     1       4.199   6.474  18.716  0.00  0.00    +0.000 OA
ATOM     14  C   UNL     1       4.403   5.675  17.548  0.00  0.00    +0.000 C 
ENDROOT
BRANCH   9  15
ATOM     15  C   UNL     1      -0.131  10.031  18.722  0.00  0.00    +0.000 A 
ATOM     16  C   UNL     1      -0.308  11.051  19.677  0.00  0.00    +0.000 A 
ATOM     17  C   UNL     1      -1.376  11.951  19.591  0.00  0.00    +0.000 A 
ATOM     18  C   UNL     1      -2.298  11.849  18.556  0.00  0.00    +0.000 A 
ATOM     19  C   UNL     1      -2.153  10.846  17.604  0.00  0.00    +0.000 A 
ATOM     20  C   UNL     1      -1.081   9.953  17.686  0.00  0.00    +0.000 A 
ENDBRANCH   9  15
BRANCH   4  21
ATOM     21  C   UNL     1       2.043   3.252  19.935  0.00  0.00    +0.000 C 
ATOM     22  C   UNL     1       1.406   2.196  19.029  0.00  0.00    +0.000 C 
BRANCH  21  23
ATOM     23  C   UNL     1       1.418   3.193  21.343  0.00  0.00    +0.000 C 
BRANCH  23  24
ATOM     24  O   UNL     1       2.414   2.908  22.323  0.00  0.00    +0.000 OA
ATOM     25  H   UNL     1       2.710   3.780  22.646  0.00  0.00    +0.000 HD
ENDBRANCH  23  24
ENDBRANCH  21  23
ENDBRANCH   4  21
BRANCH  14  26
ATOM     26  C   UNL     1       5.082   6.446  16.367  0.00  0.00    +0.000 C 
BRANCH  26  27
ATOM     27  N   UNL     1       6.558   6.469  16.282  0.00  0.00    +0.000 NA
ATOM     28  C   UNL     1       7.167   7.169  17.419  0.00  0.00    +0.000 C 
BRANCH  27  29
ATOM     29  C   UNL     1       7.138   5.121  16.092  0.00  0.00    +0.000 C 
BRANCH  29  30
ATOM     30  C   UNL     1       7.168   4.689  14.637  0.00  0.00    +0.000 A 
ATOM     31  C   UNL     1       6.267   3.734  14.174  0.00  0.00    +0.000 A 
ATOM     32  C   UNL     1       6.131   3.559  12.801  0.00  0.00    +0.000 A 
ATOM     33  C   UNL     1       6.906   4.326  11.934  0.00  0.00    +0.000 A 
ATOM     34  C   UNL     1       7.811   5.220  12.480  0.00  0.00    +0.000 A 
ATOM     35  N   UNL     1       7.962   5.414  13.805  0.00  0.00    +0.000 NA
ENDBRANCH  29  30
ENDBRANCH  27  29
ENDBRANCH  26  27
ENDBRANCH  14  26
TORSDOF 8
ENDMDL
MODEL 4
REMARK VINA RESULT:      -7.8      0.705      1.265
REMARK  Name = 
REMARK  11 active torsions:
REMARK  status: ('A' for Active; 'I' for Inactive)
REMARK    1  A    between atoms: C_1  and  C_2
REMARK    2  A    between atoms: N_4  and  C_5
REMARK    3  A    between atoms: C_5  and  C_6
REMARK    4  A    between atoms: C_5  and  C_7
REMARK    5  A    between atoms: C_7  and  O_8
REMARK    6  A    between atoms: C_13  and  C_14
REMARK    7  A    between atoms: C_24  and  C_25
REMARK    8  A    between atoms: C_25  and  N_26
REMARK    9  A    between atoms: N_26  and  C_27
REMARK   10  A    between atoms: N_26  and  C_28
REMARK   11  A    between atoms: C_28  and  C_29
REMARK                            x       y       z     vdW  Elec       q    Type
REMARK                         _______ _______ _______ _____ _____    ______ ____
ROOT
ATOM      1  C   UNL     1       3.802   3.265  16.832  0.00  0.00    +0.000 C 
ATOM      2  C   UNL     1       3.293   4.696  17.080  0.00  0.00    +0.000 C 
ATOM      3  C   UNL     1       2.004   4.651  17.932  0.00  0.00    +0.000 C 
ATOM      4  N   UNL     1       2.166   4.558  19.392  0.00  0.00    +0.000 N 
ATOM      5  C   UNL     1       2.151   5.702  20.206  0.00  0.00    +0.000 C 
ATOM      6  O   UNL     1       2.098   5.690  21.430  0.00  0.00    +0.000 OA
ATOM      7  C   UNL     1       2.201   7.003  19.520  0.00  0.00    +0.000 A 
ATOM      8  C   UNL     1       1.137   7.897  19.593  0.00  0.00    +0.000 A 
ATOM      9  C   UNL     1       1.113   9.023  18.750  0.00  0.00    +0.000 A 
ATOM     10  C   UNL     1       2.225   9.181  17.911  0.00  0.00    +0.000 A 
ATOM     11  N   UNL     1       3.288   8.339  17.849  0.00  0.00    +0.000 NA
ATOM     12  C   UNL     1       3.238   7.263  18.648  0.00  0.00    +0.000 A 
ATOM     13  O   UNL     1       4.314   6.419  18.674  0.00  0.00    +0.000 OA
ATOM     14  C   UNL     1       4.498   5.598  17.518  0.00  0.00    +0.000 C 
ENDROOT
BRANCH   9  15
ATOM     15  C   UNL     1      -0.042   9.943  18.706  0.00  0.00    +0.000 A 
ATOM     16  C   UNL     1      -0.290  10.879  19.727  0.00  0.00    +0.000 A 
ATOM     17  C   UNL     1      -1.364  11.773  19.651  0.00  0.00    +0.000 A 
ATOM     18  C   UNL     1      -2.221  11.748  18.558  0.00  0.00    +0.000 A 
ATOM     19  C   UNL     1      -2.006  10.828  17.539  0.00  0.00    +0.000 A 
ATOM     20  C   UNL     1      -0.929   9.941  17.612  0.00  0.00    +0.000 A 
ENDBRANCH   9  15
BRANCH   4  21
ATOM     21  C   UNL     1       2.210   3.206  20.004  0.00  0.00    +0.000 C 
ATOM     22  C   UNL     1       3.634   2.696  20.243  0.00  0.00    +0.000 C 
BRANCH  21  23
ATOM     23  C   UNL     1       1.396   2.162  19.215  0.00  0.00    +0.000 C 
BRANCH  23  24
ATOM     24  O   UNL     1      -0.002   2.399  19.363  0.00  0.00    +0.000 OA
ATOM     25  H   UNL     1      -0.140   3.312  19.048  0.00  0.00    +0.000 HD
ENDBRANCH  23  24
ENDBRANCH  21  23
ENDBRANCH   4  21
BRANCH  14  26
ATOM     26  C   UNL     1       5.145   6.350  16.307  0.00  0.00    +0.000 C 
BRANCH  26  27
ATOM     27  N   UNL     1       6.617   6.338  16.160  0.00  0.00    +0.000 NA
ATOM     28  C   UNL     1       7.297   6.834  17.361  0.00  0.00    +0.000 C 
BRANCH  27  29
ATOM     29  C   UNL     1       7.135   5.017  15.740  0.00  0.00    +0.000 C 
BRANCH  29  30
ATOM     30  C   UNL     1       6.883   4.721  14.272  0.00  0.00    +0.000 A 
ATOM     31  C   UNL     1       7.700   5.285  13.297  0.00  0.00    +0.000 A 
ATOM     32  C   UNL     1       7.625   4.790  11.999  0.00  0.00    +0.000 A 
ATOM     33  C   UNL     1       6.730   3.763  11.710  0.00  0.00    +0.000 A 
ATOM     34  C   UNL     1       5.921   3.291  12.730  0.00  0.00    +0.000 A 
ATOM     35  N   UNL     1       5.974   3.748  13.996  0.00  0.00    +0.000 NA
ENDBRANCH  29  30
ENDBRANCH  27  29
ENDBRANCH  26  27
ENDBRANCH  14  26
TORSDOF 8
ENDMDL
MODEL 5
REMARK VINA RESULT:      -7.8      1.251      2.699
REMARK  Name = 
REMARK  11 active torsions:
REMARK  status: ('A' for Active; 'I' for Inactive)
REMARK    1  A    between atoms: C_1  and  C_2
REMARK    2  A    between atoms: N_4  and  C_5
REMARK    3  A    between atoms: C_5  and  C_6
REMARK    4  A    between atoms: C_5  and  C_7
REMARK    5  A    between atoms: C_7  and  O_8
REMARK    6  A    between atoms: C_13  and  C_14
REMARK    7  A    between atoms: C_24  and  C_25
REMARK    8  A    between atoms: C_25  and  N_26
REMARK    9  A    between atoms: N_26  and  C_27
REMARK   10  A    between atoms: N_26  and  C_28
REMARK   11  A    between atoms: C_28  and  C_29
REMARK                            x       y       z     vdW  Elec       q    Type
REMARK                         _______ _______ _______ _____ _____    ______ ____
ROOT
ATOM      1  C   UNL     1       2.915   2.571  17.141  0.00  0.00    +0.000 C 
ATOM      2  C   UNL     1       2.724   4.096  17.241  0.00  0.00    +0.000 C 
ATOM      3  C   UNL     1       1.550   4.414  18.194  0.00  0.00    +0.000 C 
ATOM      4  N   UNL     1       1.844   4.452  19.635  0.00  0.00    +0.000 N 
ATOM      5  C   UNL     1       2.140   5.657  20.292  0.00  0.00    +0.000 C 
ATOM      6  O   UNL     1       2.216   5.792  21.507  0.00  0.00    +0.000 OA
ATOM      7  C   UNL     1       2.370   6.835  19.440  0.00  0.00    +0.000 A 
ATOM      8  C   UNL     1       1.516   7.933  19.482  0.00  0.00    +0.000 A 
ATOM      9  C   UNL     1       1.623   8.938  18.505  0.00  0.00    +0.000 A 
ATOM     10  C   UNL     1       2.649   8.768  17.565  0.00  0.00    +0.000 A 
ATOM     11  N   UNL     1       3.515   7.723  17.526  0.00  0.00    +0.000 NA
ATOM     12  C   UNL     1       3.340   6.776  18.460  0.00  0.00    +0.000 A 
ATOM     13  O   UNL     1       4.226   5.736  18.508  0.00  0.00    +0.000 OA
ATOM     14  C   UNL     1       4.123   4.771  17.458  0.00  0.00    +0.000 C 
ENDROOT
BRANCH   9  15
ATOM     15  C   UNL     1       0.672  10.067  18.435  0.00  0.00    +0.000 A 
ATOM     16  C   UNL     1       1.013  11.358  18.881  0.00  0.00    +0.000 A 
ATOM     17  C   UNL     1       0.117  12.428  18.770  0.00  0.00    +0.000 A 
ATOM     18  C   UNL     1      -1.143  12.232  18.218  0.00  0.00    +0.000 A 
ATOM     19  C   UNL     1      -1.510  10.966  17.777  0.00  0.00    +0.000 A 
ATOM     20  C   UNL     1      -0.612   9.900  17.882  0.00  0.00    +0.000 A 
ENDBRANCH   9  15
BRANCH   4  21
ATOM     21  C   UNL     1       1.687   3.196  20.413  0.00  0.00    +0.000 C 
ATOM     22  C   UNL     1       3.019   2.517  20.739  0.00  0.00    +0.000 C 
BRANCH  21  23
ATOM     23  C   UNL     1       0.727   2.192  19.745  0.00  0.00    +0.000 C 
BRANCH  23  24
ATOM     24  O   UNL     1       1.452   1.101  19.182  0.00  0.00    +0.000 OA
ATOM     25  H   UNL     1       2.392   1.349  19.269  0.00  0.00    +0.000 HD
ENDBRANCH  23  24
ENDBRANCH  21  23
ENDBRANCH   4  21
BRANCH  14  26
ATOM     26  C   UNL     1       4.772   5.234  16.111  0.00  0.00    +0.000 C 
BRANCH  26  27
ATOM     27  N   UNL     1       5.732   4.335  15.433  0.00  0.00    +0.000 NA
ATOM     28  C   UNL     1       5.405   4.145  14.015  0.00  0.00    +0.000 C 
BRANCH  27  29
ATOM     29  C   UNL     1       7.137   4.758  15.621  0.00  0.00    +0.000 C 
BRANCH  29  30
ATOM     30  C   UNL     1       7.332   5.638  16.844  0.00  0.00    +0.000 A 
ATOM     31  C   UNL     1       7.584   5.060  18.085  0.00  0.00    +0.000 A 
ATOM     32  C   UNL     1       8.026   5.877  19.120  0.00  0.00    +0.000 A 
ATOM     33  C   UNL     1       8.187   7.241  18.893  0.00  0.00    +0.000 A 
ATOM     34  C   UNL     1       7.870   7.740  17.642  0.00  0.00    +0.000 A 
ATOM     35  N   UNL     1       7.443   6.974  16.619  0.00  0.00    +0.000 NA
ENDBRANCH  29  30
ENDBRANCH  27  29
ENDBRANCH  26  27
ENDBRANCH  14  26
TORSDOF 8
ENDMDL
MODEL 6
REMARK VINA RESULT:      -7.8      1.472      2.915
REMARK  Name = 
REMARK  11 active torsions:
REMARK  status: ('A' for Active; 'I' for Inactive)
REMARK    1  A    between atoms: C_1  and  C_2
REMARK    2  A    between atoms: N_4  and  C_5
REMARK    3  A    between atoms: C_5  and  C_6
REMARK    4  A    between atoms: C_5  and  C_7
REMARK    5  A    between atoms: C_7  and  O_8
REMARK    6  A    between atoms: C_13  and  C_14
REMARK    7  A    between atoms: C_24  and  C_25
REMARK    8  A    between atoms: C_25  and  N_26
REMARK    9  A    between atoms: N_26  and  C_27
REMARK   10  A    between atoms: N_26  and  C_28
REMARK   11  A    between atoms: C_28  and  C_29
REMARK                            x       y       z     vdW  Elec       q    Type
REMARK                         _______ _______ _______ _____ _____    ______ ____
ROOT
ATOM      1  C   UNL     1       2.864   2.341  16.840  0.00  0.00    +0.000 C 
ATOM      2  C   UNL     1       2.705   3.857  17.056  0.00  0.00    +0.000 C 
ATOM      3  C   UNL     1       1.609   4.122  18.113  0.00  0.00    +0.000 C 
ATOM      4  N   UNL     1       2.010   4.059  19.528  0.00  0.00    +0.000 N 
ATOM      5  C   UNL     1       2.372   5.213  20.240  0.00  0.00    +0.000 C 
ATOM      6  O   UNL     1       2.539   5.264  21.453  0.00  0.00    +0.000 OA
ATOM      7  C   UNL     1       2.557   6.443  19.455  0.00  0.00    +0.000 A 
ATOM      8  C   UNL     1       1.726   7.545  19.634  0.00  0.00    +0.000 A 
ATOM      9  C   UNL     1       1.776   8.614  18.722  0.00  0.00    +0.000 A 
ATOM     10  C   UNL     1       2.727   8.497  17.698  0.00  0.00    +0.000 A 
ATOM     11  N   UNL     1       3.571   7.448  17.525  0.00  0.00    +0.000 NA
ATOM     12  C   UNL     1       3.451   6.441  18.403  0.00  0.00    +0.000 A 
ATOM     13  O   UNL     1       4.322   5.391  18.315  0.00  0.00    +0.000 OA
ATOM     14  C   UNL     1       4.126   4.501  17.213  0.00  0.00    +0.000 C 
ENDROOT
BRANCH   9  15
ATOM     15  C   UNL     1       0.840   9.755  18.799  0.00  0.00    +0.000 A 
ATOM     16  C   UNL     1       1.109  10.887  19.590  0.00  0.00    +0.000 A 
ATOM     17  C   UNL     1       0.234  11.979  19.621  0.00  0.00    +0.000 A 
ATOM     18  C   UNL     1      -0.935  11.962  18.869  0.00  0.00    +0.000 A 
ATOM     19  C   UNL     1      -1.230  10.853  18.085  0.00  0.00    +0.000 A 
ATOM     20  C   UNL     1      -0.351   9.767  18.049  0.00  0.00    +0.000 A 
ENDBRANCH   9  15
BRANCH   4  21
ATOM     21  C   UNL     1       1.891   2.755  20.229  0.00  0.00    +0.000 C 
ATOM     22  C   UNL     1       1.125   2.846  21.550  0.00  0.00    +0.000 C 
BRANCH  21  23
ATOM     23  C   UNL     1       3.252   2.065  20.448  0.00  0.00    +0.000 C 
BRANCH  23  24
ATOM     24  O   UNL     1       3.682   2.220  21.799  0.00  0.00    +0.000 OA
ATOM     25  H   UNL     1       3.768   3.183  21.929  0.00  0.00    +0.000 HD
ENDBRANCH  23  24
ENDBRANCH  21  23
ENDBRANCH   4  21
BRANCH  14  26
ATOM     26  C   UNL     1       4.681   5.048  15.855  0.00  0.00    +0.000 C 
BRANCH  26  27
ATOM     27  N   UNL     1       5.747   4.292  15.162  0.00  0.00    +0.000 NA
ATOM     28  C   UNL     1       5.328   3.843  13.829  0.00  0.00    +0.000 C 
BRANCH  27  29
ATOM     29  C   UNL     1       7.029   5.030  15.115  0.00  0.00    +0.000 C 
BRANCH  29  30
ATOM     30  C   UNL     1       7.505   5.475  16.486  0.00  0.00    +0.000 A 
ATOM     31  C   UNL     1       7.457   6.821  16.838  0.00  0.00    +0.000 A 
ATOM     32  C   UNL     1       7.636   7.166  18.173  0.00  0.00    +0.000 A 
ATOM     33  C   UNL     1       7.872   6.164  19.112  0.00  0.00    +0.000 A 
ATOM     34  C   UNL     1       7.950   4.855  18.670  0.00  0.00    +0.000 A 
ATOM     35  N   UNL     1       7.778   4.491  17.384  0.00  0.00    +0.000 NA
ENDBRANCH  29  30
ENDBRANCH  27  29
ENDBRANCH  26  27
ENDBRANCH  14  26
TORSDOF 8
ENDMDL
MODEL 7
REMARK VINA RESULT:      -7.7      0.861      1.474
REMARK  Name = 
REMARK  11 active torsions:
REMARK  status: ('A' for Active; 'I' for Inactive)
REMARK    1  A    between atoms: C_1  and  C_2
REMARK    2  A    between atoms: N_4  and  C_5
REMARK    3  A    between atoms: C_5  and  C_6
REMARK    4  A    between atoms: C_5  and  C_7
REMARK    5  A    between atoms: C_7  and  O_8
REMARK    6  A    between atoms: C_13  and  C_14
REMARK    7  A    between atoms: C_24  and  C_25
REMARK    8  A    between atoms: C_25  and  N_26
REMARK    9  A    between atoms: N_26  and  C_27
REMARK   10  A    between atoms: N_26  and  C_28
REMARK   11  A    between atoms: C_28  and  C_29
REMARK                            x       y       z     vdW  Elec       q    Type
REMARK                         _______ _______ _______ _____ _____    ______ ____
ROOT
ATOM      1  C   UNL     1       3.829   3.190  16.732  0.00  0.00    +0.000 C 
ATOM      2  C   UNL     1       3.331   4.615  17.033  0.00  0.00    +0.000 C 
ATOM      3  C   UNL     1       2.064   4.551  17.915  0.00  0.00    +0.000 C 
ATOM      4  N   UNL     1       2.261   4.416  19.368  0.00  0.00    +0.000 N 
ATOM      5  C   UNL     1       2.271   5.537  20.213  0.00  0.00    +0.000 C 
ATOM      6  O   UNL     1       2.248   5.491  21.438  0.00  0.00    +0.000 OA
ATOM      7  C   UNL     1       2.309   6.856  19.563  0.00  0.00    +0.000 A 
ATOM      8  C   UNL     1       1.250   7.752  19.687  0.00  0.00    +0.000 A 
ATOM      9  C   UNL     1       1.209   8.900  18.877  0.00  0.00    +0.000 A 
ATOM     10  C   UNL     1       2.301   9.078  18.015  0.00  0.00    +0.000 A 
ATOM     11  N   UNL     1       3.359   8.236  17.903  0.00  0.00    +0.000 NA
ATOM     12  C   UNL     1       3.325   7.137  18.673  0.00  0.00    +0.000 A 
ATOM     13  O   UNL     1       4.398   6.290  18.648  0.00  0.00    +0.000 OA
ATOM     14  C   UNL     1       4.550   5.501  17.466  0.00  0.00    +0.000 C 
ENDROOT
BRANCH   9  15
ATOM     15  C   UNL     1       0.057   9.825  18.887  0.00  0.00    +0.000 A 
ATOM     16  C   UNL     1      -0.217  10.664  19.983  0.00  0.00    +0.000 A 
ATOM     17  C   UNL     1      -1.288  11.565  19.962  0.00  0.00    +0.000 A 
ATOM     18  C   UNL     1      -2.115  11.644  18.848  0.00  0.00    +0.000 A 
ATOM     19  C   UNL     1      -1.873  10.822  17.754  0.00  0.00    +0.000 A 
ATOM     20  C   UNL     1      -0.799   9.928  17.774  0.00  0.00    +0.000 A 
ENDBRANCH   9  15
BRANCH   4  21
ATOM     21  C   UNL     1       2.315   3.047  19.940  0.00  0.00    +0.000 C 
ATOM     22  C   UNL     1       1.228   2.785  20.985  0.00  0.00    +0.000 C 
BRANCH  21  23
ATOM     23  C   UNL     1       3.701   2.690  20.513  0.00  0.00    +0.000 C 
BRANCH  23  24
ATOM     24  O   UNL     1       4.397   1.810  19.632  0.00  0.00    +0.000 OA
ATOM     25  H   UNL     1       3.751   1.115  19.405  0.00  0.00    +0.000 HD
ENDBRANCH  23  24
ENDBRANCH  21  23
ENDBRANCH   4  21
BRANCH  14  26
ATOM     26  C   UNL     1       5.170   6.285  16.260  0.00  0.00    +0.000 C 
BRANCH  26  27
ATOM     27  N   UNL     1       6.638   6.283  16.084  0.00  0.00    +0.000 NA
ATOM     28  C   UNL     1       7.338   6.786  17.272  0.00  0.00    +0.000 C 
BRANCH  27  29
ATOM     29  C   UNL     1       7.158   4.965  15.657  0.00  0.00    +0.000 C 
BRANCH  29  30
ATOM     30  C   UNL     1       6.897   4.673  14.190  0.00  0.00    +0.000 A 
ATOM     31  C   UNL     1       7.687   5.268  13.210  0.00  0.00    +0.000 A 
ATOM     32  C   UNL     1       7.611   4.780  11.909  0.00  0.00    +0.000 A 
ATOM     33  C   UNL     1       6.742   3.730  11.623  0.00  0.00    +0.000 A 
ATOM     34  C   UNL     1       5.959   3.228  12.648  0.00  0.00    +0.000 A 
ATOM     35  N   UNL     1       6.014   3.677  13.917  0.00  0.00    +0.000 NA
ENDBRANCH  29  30
ENDBRANCH  27  29
ENDBRANCH  26  27
ENDBRANCH  14  26
TORSDOF 8
ENDMDL
MODEL 8
REMARK VINA RESULT:      -7.6      0.923      1.235
REMARK  Name = 
REMARK  11 active torsions:
REMARK  status: ('A' for Active; 'I' for Inactive)
REMARK    1  A    between atoms: C_1  and  C_2
REMARK    2  A    between atoms: N_4  and  C_5
REMARK    3  A    between atoms: C_5  and  C_6
REMARK    4  A    between atoms: C_5  and  C_7
REMARK    5  A    between atoms: C_7  and  O_8
REMARK    6  A    between atoms: C_13  and  C_14
REMARK    7  A    between atoms: C_24  and  C_25
REMARK    8  A    between atoms: C_25  and  N_26
REMARK    9  A    between atoms: N_26  and  C_27
REMARK   10  A    between atoms: N_26  and  C_28
REMARK   11  A    between atoms: C_28  and  C_29
REMARK                            x       y       z     vdW  Elec       q    Type
REMARK                         _______ _______ _______ _____ _____    ______ ____
ROOT
ATOM      1  C   UNL     1       3.799   3.256  16.817  0.00  0.00    +0.000 C 
ATOM      2  C   UNL     1       3.308   4.696  17.056  0.00  0.00    +0.000 C 
ATOM      3  C   UNL     1       1.980   4.670  17.847  0.00  0.00    +0.000 C 
ATOM      4  N   UNL     1       2.072   4.560  19.312  0.00  0.00    +0.000 N 
ATOM      5  C   UNL     1       2.042   5.697  20.136  0.00  0.00    +0.000 C 
ATOM      6  O   UNL     1       1.932   5.675  21.356  0.00  0.00    +0.000 OA
ATOM      7  C   UNL     1       2.151   7.002  19.466  0.00  0.00    +0.000 A 
ATOM      8  C   UNL     1       1.103   7.919  19.498  0.00  0.00    +0.000 A 
ATOM      9  C   UNL     1       1.141   9.052  18.667  0.00  0.00    +0.000 A 
ATOM     10  C   UNL     1       2.294   9.194  17.882  0.00  0.00    +0.000 A 
ATOM     11  N   UNL     1       3.342   8.331  17.860  0.00  0.00    +0.000 NA
ATOM     12  C   UNL     1       3.233   7.249  18.645  0.00  0.00    +0.000 A 
ATOM     13  O   UNL     1       4.288   6.382  18.713  0.00  0.00    +0.000 OA
ATOM     14  C   UNL     1       4.510   5.568  17.558  0.00  0.00    +0.000 C 
ENDROOT
BRANCH   9  15
ATOM     15  C   UNL     1       0.008   9.996  18.577  0.00  0.00    +0.000 A 
ATOM     16  C   UNL     1      -1.013   9.848  17.620  0.00  0.00    +0.000 A 
ATOM     17  C   UNL     1      -2.102  10.726  17.574  0.00  0.00    +0.000 A 
ATOM     18  C   UNL     1      -2.193  11.778  18.478  0.00  0.00    +0.000 A 
ATOM     19  C   UNL     1      -1.194  11.953  19.429  0.00  0.00    +0.000 A 
ATOM     20  C   UNL     1      -0.111  11.071  19.479  0.00  0.00    +0.000 A 
ENDBRANCH   9  15
BRANCH   4  21
ATOM     21  C   UNL     1       2.060   3.202  19.912  0.00  0.00    +0.000 C 
ATOM     22  C   UNL     1       1.401   2.151  19.015  0.00  0.00    +0.000 C 
BRANCH  21  23
ATOM     23  C   UNL     1       1.431   3.172  21.318  0.00  0.00    +0.000 C 
BRANCH  23  24
ATOM     24  O   UNL     1       2.419   2.885  22.305  0.00  0.00    +0.000 OA
ATOM     25  H   UNL     1       2.728   1.982  22.101  0.00  0.00    +0.000 HD
ENDBRANCH  23  24
ENDBRANCH  21  23
ENDBRANCH   4  21
BRANCH  14  26
ATOM     26  C   UNL     1       5.228   6.318  16.386  0.00  0.00    +0.000 C 
BRANCH  26  27
ATOM     27  N   UNL     1       6.698   6.216  16.266  0.00  0.00    +0.000 NA
ATOM     28  C   UNL     1       7.383   6.618  17.499  0.00  0.00    +0.000 C 
BRANCH  27  29
ATOM     29  C   UNL     1       7.139   4.882  15.801  0.00  0.00    +0.000 C 
BRANCH  29  30
ATOM     30  C   UNL     1       6.899   4.663  14.318  0.00  0.00    +0.000 A 
ATOM     31  C   UNL     1       7.706   5.298  13.379  0.00  0.00    +0.000 A 
ATOM     32  C   UNL     1       7.647   4.874  12.056  0.00  0.00    +0.000 A 
ATOM     33  C   UNL     1       6.776   3.845  11.706  0.00  0.00    +0.000 A 
ATOM     34  C   UNL     1       5.975   3.299  12.694  0.00  0.00    +0.000 A 
ATOM     35  N   UNL     1       6.013   3.687  13.984  0.00  0.00    +0.000 NA
ENDBRANCH  29  30
ENDBRANCH  27  29
ENDBRANCH  26  27
ENDBRANCH  14  26
TORSDOF 8
ENDMDL
MODEL 9
REMARK VINA RESULT:      -7.5      1.321      2.639
REMARK  Name = 
REMARK  11 active torsions:
REMARK  status: ('A' for Active; 'I' for Inactive)
REMARK    1  A    between atoms: C_1  and  C_2
REMARK    2  A    between atoms: N_4  and  C_5
REMARK    3  A    between atoms: C_5  and  C_6
REMARK    4  A    between atoms: C_5  and  C_7
REMARK    5  A    between atoms: C_7  and  O_8
REMARK    6  A    between atoms: C_13  and  C_14
REMARK    7  A    between atoms: C_24  and  C_25
REMARK    8  A    between atoms: C_25  and  N_26
REMARK    9  A    between atoms: N_26  and  C_27
REMARK   10  A    between atoms: N_26  and  C_28
REMARK   11  A    between atoms: C_28  and  C_29
REMARK                            x       y       z     vdW  Elec       q    Type
REMARK                         _______ _______ _______ _____ _____    ______ ____
ROOT
ATOM      1  C   UNL     1       3.082   2.495  17.010  0.00  0.00    +0.000 C 
ATOM      2  C   UNL     1       2.850   4.011  17.142  0.00  0.00    +0.000 C 
ATOM      3  C   UNL     1       1.717   4.279  18.158  0.00  0.00    +0.000 C 
ATOM      4  N   UNL     1       2.084   4.307  19.583  0.00  0.00    +0.000 N 
ATOM      5  C   UNL     1       2.375   5.513  20.241  0.00  0.00    +0.000 C 
ATOM      6  O   UNL     1       2.509   5.634  21.453  0.00  0.00    +0.000 OA
ATOM      7  C   UNL     1       2.524   6.708  19.396  0.00  0.00    +0.000 A 
ATOM      8  C   UNL     1       1.640   7.778  19.498  0.00  0.00    +0.000 A 
ATOM      9  C   UNL     1       1.665   8.799  18.532  0.00  0.00    +0.000 A 
ATOM     10  C   UNL     1       2.646   8.674  17.538  0.00  0.00    +0.000 A 
ATOM     11  N   UNL     1       3.541   7.657  17.440  0.00  0.00    +0.000 NA
ATOM     12  C   UNL     1       3.444   6.693  18.367  0.00  0.00    +0.000 A 
ATOM     13  O   UNL     1       4.363   5.681  18.355  0.00  0.00    +0.000 OA
ATOM     14  C   UNL     1       4.236   4.727  17.297  0.00  0.00    +0.000 C 
ENDROOT
BRANCH   9  15
ATOM     15  C   UNL     1       0.677   9.897  18.527  0.00  0.00    +0.000 A 
ATOM     16  C   UNL     1      -0.563   9.783  17.870  0.00  0.00    +0.000 A 
ATOM     17  C   UNL     1      -1.506  10.816  17.909  0.00  0.00    +0.000 A 
ATOM     18  C   UNL     1      -1.231  11.991  18.598  0.00  0.00    +0.000 A 
ATOM     19  C   UNL     1      -0.011  12.135  19.248  0.00  0.00    +0.000 A 
ATOM     20  C   UNL     1       0.927  11.100  19.215  0.00  0.00    +0.000 A 
ENDBRANCH   9  15
BRANCH   4  21
ATOM     21  C   UNL     1       2.006   3.037  20.349  0.00  0.00    +0.000 C 
ATOM     22  C   UNL     1       3.378   2.431  20.655  0.00  0.00    +0.000 C 
BRANCH  21  23
ATOM     23  C   UNL     1       1.097   1.987  19.681  0.00  0.00    +0.000 C 
BRANCH  23  24
ATOM     24  O   UNL     1      -0.247   2.458  19.611  0.00  0.00    +0.000 OA
ATOM     25  H   UNL     1      -0.434   2.825  20.496  0.00  0.00    +0.000 HD
ENDBRANCH  23  24
ENDBRANCH  21  23
ENDBRANCH   4  21
BRANCH  14  26
ATOM     26  C   UNL     1       4.800   5.228  15.925  0.00  0.00    +0.000 C 
BRANCH  26  27
ATOM     27  N   UNL     1       5.740   4.363  15.180  0.00  0.00    +0.000 NA
ATOM     28  C   UNL     1       5.257   4.057  13.829  0.00  0.00    +0.000 C 
BRANCH  27  29
ATOM     29  C   UNL     1       7.118   4.904  15.162  0.00  0.00    +0.000 C 
BRANCH  29  30
ATOM     30  C   UNL     1       7.567   5.423  16.516  0.00  0.00    +0.000 A 
ATOM     31  C   UNL     1       7.499   6.785  16.798  0.00  0.00    +0.000 A 
ATOM     32  C   UNL     1       7.653   7.198  18.117  0.00  0.00    +0.000 A 
ATOM     33  C   UNL     1       7.885   6.248  19.109  0.00  0.00    +0.000 A 
ATOM     34  C   UNL     1       7.984   4.919  18.734  0.00  0.00    +0.000 A 
ATOM     35  N   UNL     1       7.836   4.489  17.466  0.00  0.00    +0.000 NA
ENDBRANCH  29  30
ENDBRANCH  27  29
ENDBRANCH  26  27
ENDBRANCH  14  26
TORSDOF 8
ENDMDL
