MODEL 1
REMARK VINA RESULT:      -8.5      0.000      0.000
REMARK  Name = 
REMARK  6 active torsions:
REMARK  status: ('A' for Active; 'I' for Inactive)
REMARK    1  A    between atoms: C_1  and  C_2
REMARK    2  A    between atoms: C_2  and  C_3
REMARK    3  A    between atoms: C_3  and  N_4
REMARK    4  A    between atoms: C_5  and  C_7
REMARK    5  A    between atoms: C_10  and  N_11
REMARK    6  A    between atoms: C_19  and  C_20
REMARK                            x       y       z     vdW  Elec       q    Type
REMARK                         _______ _______ _______ _____ _____    ______ ____
ROOT
ATOM      1  N   UNL     1       2.521   7.578  18.737  0.00  0.00    +0.000 N 
ATOM      2  C   UNL     1       1.862   8.696  18.285  0.00  0.00    +0.000 C 
ATOM      3  O   UNL     1       1.900   9.076  17.114  0.00  0.00    +0.000 OA
ATOM      4  N   UNL     1       1.167   9.478  19.162  0.00  0.00    +0.000 N 
ATOM      5  C   UNL     1       0.867  10.801  18.640  0.00  0.00    +0.000 C 
ATOM      6  C   UNL     1       0.513  11.562  19.860  0.00  0.00    +0.000 A 
ATOM      7  C   UNL     1       0.740  12.889  20.138  0.00  0.00    +0.000 A 
ATOM      8  C   UNL     1       0.208  13.395  21.311  0.00  0.00    +0.000 A 
ATOM      9  C   UNL     1      -0.647  12.606  22.093  0.00  0.00    +0.000 A 
ATOM     10  C   UNL     1      -0.712  11.209  21.895  0.00  0.00    +0.000 A 
ATOM     11  C   UNL     1       0.006  10.688  20.824  0.00  0.00    +0.000 A 
ATOM     12  C   UNL     1       0.628   9.327  20.533  0.00  0.00    +0.000 C 
ATOM     13  H   UNL     1       2.443   7.344  19.715  0.00  0.00    +0.000 HD
ENDROOT
BRANCH   9  14
ATOM     14  C   UNL     1      -1.413  13.353  23.133  0.00  0.00    +0.000 C 
ATOM     15  O   UNL     1      -0.792  13.851  24.047  0.00  0.00    +0.000 OA
ATOM     16  N   UNL     1      -2.787  13.547  22.932  0.00  0.00    +0.000 N 
ATOM     17  C   UNL     1      -3.469  14.571  23.748  0.00  0.00    +0.000 C 
ATOM     18  C   UNL     1      -4.945  14.222  23.965  0.00  0.00    +0.000 C 
ATOM     19  O   UNL     1      -5.618  13.938  22.725  0.00  0.00    +0.000 OA
ATOM     20  C   UNL     1      -4.968  12.865  22.030  0.00  0.00    +0.000 C 
ATOM     21  C   UNL     1      -3.517  13.225  21.704  0.00  0.00    +0.000 C 
ENDBRANCH   9  14
BRANCH   1  25
ATOM     22  C   UNL     1       5.107   5.211  16.259  0.00  0.00    +0.000 A 
ATOM     23  C   UNL     1       4.085   4.608  16.996  0.00  0.00    +0.000 A 
ATOM     24  C   UNL     1       3.253   5.383  17.795  0.00  0.00    +0.000 A 
ATOM     25  C   UNL     1       3.389   6.775  17.916  0.00  0.00    +0.000 A 
ATOM     26  C   UNL     1       4.422   7.376  17.197  0.00  0.00    +0.000 A 
ATOM     27  C   UNL     1       5.289   6.590  16.376  0.00  0.00    +0.000 A 
BRANCH  22  29
ATOM     28  N   UNL     1       5.629   4.307  14.051  0.00  0.00    +0.000 N 
ATOM     29  C   UNL     1       5.992   4.371  15.384  0.00  0.00    +0.000 C 
ATOM     30  O   UNL     1       6.967   3.810  15.862  0.00  0.00    +0.000 OA
ATOM     31  H   UNL     1       4.868   4.879  13.711  0.00  0.00    +0.000 HD
BRANCH  28  32
ATOM     32  C   UNL     1       6.361   3.530  13.068  0.00  0.00    +0.000 C 
BRANCH  32  34
ATOM     33  C   UNL     1       4.316   3.557  11.545  0.00  0.00    +0.000 C 
ATOM     34  C   UNL     1       5.449   2.729  12.138  0.00  0.00    +0.000 C 
ENDBRANCH  32  34
ENDBRANCH  28  32
ENDBRANCH  22  29
ENDBRANCH   1  25
TORSDOF 5
ENDMDL
MODEL 2
REMARK VINA RESULT:      -8.1      1.572      2.220
REMARK  Name = 
REMARK  6 active torsions:
REMARK  status: ('A' for Active; 'I' for Inactive)
REMARK    1  A    between atoms: C_1  and  C_2
REMARK    2  A    between atoms: C_2  and  C_3
REMARK    3  A    between atoms: C_3  and  N_4
REMARK    4  A    between atoms: C_5  and  C_7
REMARK    5  A    between atoms: C_10  and  N_11
REMARK    6  A    between atoms: C_19  and  C_20
REMARK                            x       y       z     vdW  Elec       q    Type
REMARK                         _______ _______ _______ _____ _____    ______ ____
ROOT
ATOM      1  N   UNL     1       1.489   8.143  20.225  0.00  0.00    +0.000 N 
ATOM      2  C   UNL     1       0.970   9.289  19.671  0.00  0.00    +0.000 C 
ATOM      3  O   UNL     1       1.018   9.540  18.467  0.00  0.00    +0.000 OA
ATOM      4  N   UNL     1       0.416  10.243  20.475  0.00  0.00    +0.000 N 
ATOM      5  C   UNL     1       0.277  11.535  19.824  0.00  0.00    +0.000 C 
ATOM      6  C   UNL     1       0.070  12.456  20.964  0.00  0.00    +0.000 A 
ATOM      7  C   UNL     1       0.481  13.761  21.098  0.00  0.00    +0.000 A 
ATOM      8  C   UNL     1       0.061  14.451  22.222  0.00  0.00    +0.000 A 
ATOM      9  C   UNL     1      -0.864  13.869  23.099  0.00  0.00    +0.000 A 
ATOM     10  C   UNL     1      -1.122  12.481  23.049  0.00  0.00    +0.000 A 
ATOM     11  C   UNL     1      -0.516  11.762  22.024  0.00  0.00    +0.000 A 
ATOM     12  C   UNL     1      -0.092  10.306  21.866  0.00  0.00    +0.000 C 
ATOM     13  H   UNL     1       1.413   8.022  21.223  0.00  0.00    +0.000 HD
ENDROOT
BRANCH   9  14
ATOM     14  C   UNL     1      -1.489  14.814  24.070  0.00  0.00    +0.000 C 
ATOM     15  O   UNL     1      -0.816  15.196  25.003  0.00  0.00    +0.000 OA
ATOM     16  N   UNL     1      -2.769  15.308  23.784  0.00  0.00    +0.000 N 
ATOM     17  C   UNL     1      -3.237  16.494  24.528  0.00  0.00    +0.000 C 
ATOM     18  C   UNL     1      -4.762  16.501  24.670  0.00  0.00    +0.000 C 
ATOM     19  O   UNL     1      -5.421  16.326  23.403  0.00  0.00    +0.000 OA
ATOM     20  C   UNL     1      -5.002  15.104  22.779  0.00  0.00    +0.000 C 
ATOM     21  C   UNL     1      -3.493  15.109  22.527  0.00  0.00    +0.000 C 
ENDBRANCH   9  14
BRANCH   1  25
ATOM     22  C   UNL     1       3.664   5.166  18.026  0.00  0.00    +0.000 A 
ATOM     23  C   UNL     1       3.692   6.504  17.626  0.00  0.00    +0.000 A 
ATOM     24  C   UNL     1       2.985   7.460  18.344  0.00  0.00    +0.000 A 
ATOM     25  C   UNL     1       2.214   7.150  19.476  0.00  0.00    +0.000 A 
ATOM     26  C   UNL     1       2.169   5.811  19.865  0.00  0.00    +0.000 A 
ATOM     27  C   UNL     1       2.886   4.817  19.132  0.00  0.00    +0.000 A 
BRANCH  22  29
ATOM     28  N   UNL     1       5.188   4.625  16.196  0.00  0.00    +0.000 N 
ATOM     29  C   UNL     1       4.444   4.140  17.256  0.00  0.00    +0.000 C 
ATOM     30  O   UNL     1       4.404   2.965  17.592  0.00  0.00    +0.000 OA
ATOM     31  H   UNL     1       5.251   5.622  16.043  0.00  0.00    +0.000 HD
BRANCH  28  32
ATOM     32  C   UNL     1       5.989   3.774  15.336  0.00  0.00    +0.000 C 
BRANCH  32  34
ATOM     33  C   UNL     1       6.356   3.698  12.814  0.00  0.00    +0.000 C 
ATOM     34  C   UNL     1       6.517   4.500  14.098  0.00  0.00    +0.000 C 
ENDBRANCH  32  34
ENDBRANCH  28  32
ENDBRANCH  22  29
ENDBRANCH   1  25
TORSDOF 5
ENDMDL
MODEL 3
REMARK VINA RESULT:      -7.8      2.524      4.068
REMARK  Name = 
REMARK  6 active torsions:
REMARK  status: ('A' for Active; 'I' for Inactive)
REMARK    1  A    between atoms: C_1  and  C_2
REMARK    2  A    between atoms: C_2  and  C_3
REMARK    3  A    between atoms: C_3  and  N_4
REMARK    4  A    between atoms: C_5  and  C_7
REMARK    5  A    between atoms: C_10  and  N_11
REMARK    6  A    between atoms: C_19  and  C_20
REMARK                            x       y       z     vdW  Elec       q    Type
REMARK                         _______ _______ _______ _____ _____    ______ ____
ROOT
ATOM      1  N   UNL     1       0.650   9.708  19.711  0.00  0.00    +0.000 N 
ATOM      2  C   UNL     1       0.552  10.246  20.972  0.00  0.00    +0.000 C 
ATOM      3  O   UNL     1       1.253   9.885  21.917  0.00  0.00    +0.000 OA
ATOM      4  N   UNL     1      -0.397  11.191  21.238  0.00  0.00    +0.000 N 
ATOM      5  C   UNL     1      -0.647  11.372  22.658  0.00  0.00    +0.000 C 
ATOM      6  C   UNL     1      -1.942  12.088  22.673  0.00  0.00    +0.000 A 
ATOM      7  C   UNL     1      -2.962  11.997  23.592  0.00  0.00    +0.000 A 
ATOM      8  C   UNL     1      -4.032  12.862  23.446  0.00  0.00    +0.000 A 
ATOM      9  C   UNL     1      -3.988  13.879  22.482  0.00  0.00    +0.000 A 
ATOM     10  C   UNL     1      -3.034  13.837  21.441  0.00  0.00    +0.000 A 
ATOM     11  C   UNL     1      -2.084  12.823  21.494  0.00  0.00    +0.000 A 
ATOM     12  C   UNL     1      -1.255  12.098  20.440  0.00  0.00    +0.000 C 
ATOM     13  H   UNL     1       0.031  10.058  18.996  0.00  0.00    +0.000 HD
ENDROOT
BRANCH   9  14
ATOM     14  C   UNL     1      -5.027  14.938  22.640  0.00  0.00    +0.000 C 
ATOM     15  O   UNL     1      -6.029  14.854  21.963  0.00  0.00    +0.000 OA
ATOM     16  N   UNL     1      -4.849  15.897  23.646  0.00  0.00    +0.000 N 
ATOM     17  C   UNL     1      -6.014  16.711  24.044  0.00  0.00    +0.000 C 
ATOM     18  C   UNL     1      -5.587  18.089  24.558  0.00  0.00    +0.000 C 
ATOM     19  O   UNL     1      -4.583  17.992  25.584  0.00  0.00    +0.000 OA
ATOM     20  C   UNL     1      -3.433  17.282  25.102  0.00  0.00    +0.000 C 
ATOM     21  C   UNL     1      -3.808  15.861  24.677  0.00  0.00    +0.000 C 
ENDBRANCH   9  14
BRANCH   1  25
ATOM     22  C   UNL     1       3.234   6.443  18.667  0.00  0.00    +0.000 A 
ATOM     23  C   UNL     1       2.548   6.443  19.884  0.00  0.00    +0.000 A 
ATOM     24  C   UNL     1       1.713   7.504  20.212  0.00  0.00    +0.000 A 
ATOM     25  C   UNL     1       1.522   8.614  19.374  0.00  0.00    +0.000 A 
ATOM     26  C   UNL     1       2.223   8.625  18.168  0.00  0.00    +0.000 A 
ATOM     27  C   UNL     1       3.090   7.544  17.820  0.00  0.00    +0.000 A 
BRANCH  22  29
ATOM     28  N   UNL     1       4.558   5.248  16.999  0.00  0.00    +0.000 N 
ATOM     29  C   UNL     1       4.121   5.285  18.310  0.00  0.00    +0.000 C 
ATOM     30  O   UNL     1       4.422   4.462  19.162  0.00  0.00    +0.000 OA
ATOM     31  H   UNL     1       4.350   6.020  16.379  0.00  0.00    +0.000 HD
BRANCH  28  32
ATOM     32  C   UNL     1       5.408   4.194  16.477  0.00  0.00    +0.000 C 
BRANCH  32  34
ATOM     33  C   UNL     1       7.640   4.605  17.640  0.00  0.00    +0.000 C 
ATOM     34  C   UNL     1       6.869   4.622  16.327  0.00  0.00    +0.000 C 
ENDBRANCH  32  34
ENDBRANCH  28  32
ENDBRANCH  22  29
ENDBRANCH   1  25
TORSDOF 5
ENDMDL
MODEL 4
REMARK VINA RESULT:      -7.7      2.990      4.463
REMARK  Name = 
REMARK  6 active torsions:
REMARK  status: ('A' for Active; 'I' for Inactive)
REMARK    1  A    between atoms: C_1  and  C_2
REMARK    2  A    between atoms: C_2  and  C_3
REMARK    3  A    between atoms: C_3  and  N_4
REMARK    4  A    between atoms: C_5  and  C_7
REMARK    5  A    between atoms: C_10  and  N_11
REMARK    6  A    between atoms: C_19  and  C_20
REMARK                            x       y       z     vdW  Elec       q    Type
REMARK                         _______ _______ _______ _____ _____    ______ ____
ROOT
ATOM      1  N   UNL     1       0.629   9.996  19.900  0.00  0.00    +0.000 N 
ATOM      2  C   UNL     1       0.449  10.323  21.223  0.00  0.00    +0.000 C 
ATOM      3  O   UNL     1       1.013   9.735  22.147  0.00  0.00    +0.000 OA
ATOM      4  N   UNL     1      -0.432  11.306  21.568  0.00  0.00    +0.000 N 
ATOM      5  C   UNL     1      -0.811  11.274  22.970  0.00  0.00    +0.000 C 
ATOM      6  C   UNL     1      -2.031  12.113  23.000  0.00  0.00    +0.000 A 
ATOM      7  C   UNL     1      -3.145  11.979  23.795  0.00  0.00    +0.000 A 
ATOM      8  C   UNL     1      -4.111  12.966  23.712  0.00  0.00    +0.000 A 
ATOM      9  C   UNL     1      -3.874  14.120  22.951  0.00  0.00    +0.000 A 
ATOM     10  C   UNL     1      -2.824  14.150  22.005  0.00  0.00    +0.000 A 
ATOM     11  C   UNL     1      -1.981  13.044  21.961  0.00  0.00    +0.000 A 
ATOM     12  C   UNL     1      -1.116  12.421  20.872  0.00  0.00    +0.000 C 
ATOM     13  H   UNL     1       0.122  10.525  19.208  0.00  0.00    +0.000 HD
ENDROOT
BRANCH   9  14
ATOM     14  C   UNL     1      -4.823  15.243  23.202  0.00  0.00    +0.000 C 
ATOM     15  O   UNL     1      -5.941  15.155  22.742  0.00  0.00    +0.000 OA
ATOM     16  N   UNL     1      -4.416  16.275  24.058  0.00  0.00    +0.000 N 
ATOM     17  C   UNL     1      -5.451  17.182  24.592  0.00  0.00    +0.000 C 
ATOM     18  C   UNL     1      -4.882  18.575  24.879  0.00  0.00    +0.000 C 
ATOM     19  O   UNL     1      -3.700  18.515  25.697  0.00  0.00    +0.000 OA
ATOM     20  C   UNL     1      -2.694  17.704  25.074  0.00  0.00    +0.000 C 
ATOM     21  C   UNL     1      -3.196  16.274  24.868  0.00  0.00    +0.000 C 
ENDBRANCH   9  14
BRANCH   1  25
ATOM     22  C   UNL     1       2.992   6.685  18.528  0.00  0.00    +0.000 A 
ATOM     23  C   UNL     1       2.439   6.678  19.810  0.00  0.00    +0.000 A 
ATOM     24  C   UNL     1       1.675   7.753  20.245  0.00  0.00    +0.000 A 
ATOM     25  C   UNL     1       1.428   8.886  19.452  0.00  0.00    +0.000 A 
ATOM     26  C   UNL     1       1.997   8.904  18.179  0.00  0.00    +0.000 A 
ATOM     27  C   UNL     1       2.790   7.807  17.721  0.00  0.00    +0.000 A 
BRANCH  22  29
ATOM     28  N   UNL     1       3.720   4.375  18.840  0.00  0.00    +0.000 N 
ATOM     29  C   UNL     1       3.802   5.512  18.057  0.00  0.00    +0.000 C 
ATOM     30  O   UNL     1       4.464   5.599  17.033  0.00  0.00    +0.000 OA
ATOM     31  H   UNL     1       3.072   4.347  19.616  0.00  0.00    +0.000 HD
BRANCH  28  32
ATOM     32  C   UNL     1       4.448   3.156  18.543  0.00  0.00    +0.000 C 
BRANCH  32  34
ATOM     33  C   UNL     1       2.122   2.131  18.749  0.00  0.00    +0.000 C 
ATOM     34  C   UNL     1       3.532   1.982  18.193  0.00  0.00    +0.000 C 
ENDBRANCH  32  34
ENDBRANCH  28  32
ENDBRANCH  22  29
ENDBRANCH   1  25
TORSDOF 5
ENDMDL
MODEL 5
REMARK VINA RESULT:      -7.6      2.341      4.041
REMARK  Name = 
REMARK  6 active torsions:
REMARK  status: ('A' for Active; 'I' for Inactive)
REMARK    1  A    between atoms: C_1  and  C_2
REMARK    2  A    between atoms: C_2  and  C_3
REMARK    3  A    between atoms: C_3  and  N_4
REMARK    4  A    between atoms: C_5  and  C_7
REMARK    5  A    between atoms: C_10  and  N_11
REMARK    6  A    between atoms: C_19  and  C_20
REMARK                            x       y       z     vdW  Elec       q    Type
REMARK                         _______ _______ _______ _____ _____    ______ ____
ROOT
ATOM      1  N   UNL     1       0.451   9.783  19.591  0.00  0.00    +0.000 N 
ATOM      2  C   UNL     1       0.412  10.432  20.803  0.00  0.00    +0.000 C 
ATOM      3  O   UNL     1       1.226  10.231  21.704  0.00  0.00    +0.000 OA
ATOM      4  N   UNL     1      -0.599  11.309  21.072  0.00  0.00    +0.000 N 
ATOM      5  C   UNL     1      -0.739  11.608  22.488  0.00  0.00    +0.000 C 
ATOM      6  C   UNL     1      -2.092  12.203  22.565  0.00  0.00    +0.000 A 
ATOM      7  C   UNL     1      -3.013  12.112  23.582  0.00  0.00    +0.000 A 
ATOM      8  C   UNL     1      -4.172  12.858  23.464  0.00  0.00    +0.000 A 
ATOM      9  C   UNL     1      -4.313  13.774  22.412  0.00  0.00    +0.000 A 
ATOM     10  C   UNL     1      -3.456  13.715  21.291  0.00  0.00    +0.000 A 
ATOM     11  C   UNL     1      -2.409  12.800  21.343  0.00  0.00    +0.000 A 
ATOM     12  C   UNL     1      -1.609  12.052  20.284  0.00  0.00    +0.000 C 
ATOM     13  H   UNL     1      -0.261  10.003  18.912  0.00  0.00    +0.000 HD
ENDROOT
BRANCH   9  14
ATOM     14  C   UNL     1      -5.434  14.746  22.574  0.00  0.00    +0.000 C 
ATOM     15  O   UNL     1      -6.555  14.368  22.308  0.00  0.00    +0.000 OA
ATOM     16  N   UNL     1      -5.151  15.996  23.142  0.00  0.00    +0.000 N 
ATOM     17  C   UNL     1      -6.283  16.807  23.631  0.00  0.00    +0.000 C 
ATOM     18  C   UNL     1      -5.973  18.305  23.553  0.00  0.00    +0.000 C 
ATOM     19  O   UNL     1      -4.723  18.630  24.186  0.00  0.00    +0.000 OA
ATOM     20  C   UNL     1      -3.647  17.886  23.594  0.00  0.00    +0.000 C 
ATOM     21  C   UNL     1      -3.875  16.381  23.749  0.00  0.00    +0.000 C 
ENDBRANCH   9  14
BRANCH   1  25
ATOM     22  C   UNL     1       3.275   6.682  18.678  0.00  0.00    +0.000 A 
ATOM     23  C   UNL     1       3.102   7.761  17.808  0.00  0.00    +0.000 A 
ATOM     24  C   UNL     1       2.186   8.760  18.113  0.00  0.00    +0.000 A 
ATOM     25  C   UNL     1       1.393   8.743  19.272  0.00  0.00    +0.000 A 
ATOM     26  C   UNL     1       1.551   7.655  20.131  0.00  0.00    +0.000 A 
ATOM     27  C   UNL     1       2.485   6.618  19.827  0.00  0.00    +0.000 A 
BRANCH  22  29
ATOM     28  N   UNL     1       4.010   4.864  17.222  0.00  0.00    +0.000 N 
ATOM     29  C   UNL     1       4.280   5.614  18.352  0.00  0.00    +0.000 C 
ATOM     30  O   UNL     1       5.264   5.465  19.061  0.00  0.00    +0.000 OA
ATOM     31  H   UNL     1       3.229   5.113  16.630  0.00  0.00    +0.000 HD
BRANCH  28  32
ATOM     32  C   UNL     1       4.864   3.782  16.768  0.00  0.00    +0.000 C 
BRANCH  32  34
ATOM     33  C   UNL     1       5.580   4.368  14.392  0.00  0.00    +0.000 C 
ATOM     34  C   UNL     1       5.995   4.255  15.853  0.00  0.00    +0.000 C 
ENDBRANCH  32  34
ENDBRANCH  28  32
ENDBRANCH  22  29
ENDBRANCH   1  25
TORSDOF 5
ENDMDL
MODEL 6
REMARK VINA RESULT:      -7.5      2.701      4.262
REMARK  Name = 
REMARK  6 active torsions:
REMARK  status: ('A' for Active; 'I' for Inactive)
REMARK    1  A    between atoms: C_1  and  C_2
REMARK    2  A    between atoms: C_2  and  C_3
REMARK    3  A    between atoms: C_3  and  N_4
REMARK    4  A    between atoms: C_5  and  C_7
REMARK    5  A    between atoms: C_10  and  N_11
REMARK    6  A    between atoms: C_19  and  C_20
REMARK                            x       y       z     vdW  Elec       q    Type
REMARK                         _______ _______ _______ _____ _____    ______ ____
ROOT
ATOM      1  N   UNL     1       0.621   9.594  19.579  0.00  0.00    +0.000 N 
ATOM      2  C   UNL     1       0.584  10.268  20.777  0.00  0.00    +0.000 C 
ATOM      3  O   UNL     1       1.392  10.075  21.686  0.00  0.00    +0.000 OA
ATOM      4  N   UNL     1      -0.416  11.164  21.023  0.00  0.00    +0.000 N 
ATOM      5  C   UNL     1      -0.559  11.493  22.431  0.00  0.00    +0.000 C 
ATOM      6  C   UNL     1      -1.905  12.107  22.489  0.00  0.00    +0.000 A 
ATOM      7  C   UNL     1      -2.831  12.049  23.504  0.00  0.00    +0.000 A 
ATOM      8  C   UNL     1      -3.980  12.807  23.365  0.00  0.00    +0.000 A 
ATOM      9  C   UNL     1      -4.105  13.704  22.294  0.00  0.00    +0.000 A 
ATOM     10  C   UNL     1      -3.243  13.610  21.178  0.00  0.00    +0.000 A 
ATOM     11  C   UNL     1      -2.208  12.684  21.255  0.00  0.00    +0.000 A 
ATOM     12  C   UNL     1      -1.413  11.904  20.214  0.00  0.00    +0.000 C 
ATOM     13  H   UNL     1      -0.085   9.809  18.892  0.00  0.00    +0.000 HD
ENDROOT
BRANCH   9  14
ATOM     14  C   UNL     1      -5.213  14.693  22.430  0.00  0.00    +0.000 C 
ATOM     15  O   UNL     1      -6.319  14.360  22.059  0.00  0.00    +0.000 OA
ATOM     16  N   UNL     1      -4.948  15.899  23.091  0.00  0.00    +0.000 N 
ATOM     17  C   UNL     1      -6.095  16.710  23.544  0.00  0.00    +0.000 C 
ATOM     18  C   UNL     1      -5.749  18.202  23.579  0.00  0.00    +0.000 C 
ATOM     19  O   UNL     1      -4.543  18.456  24.321  0.00  0.00    +0.000 OA
ATOM     20  C   UNL     1      -3.443  17.721  23.767  0.00  0.00    +0.000 C 
ATOM     21  C   UNL     1      -3.714  16.216  23.814  0.00  0.00    +0.000 C 
ENDBRANCH   9  14
BRANCH   1  25
ATOM     22  C   UNL     1       3.409   6.440  18.743  0.00  0.00    +0.000 A 
ATOM     23  C   UNL     1       3.234   7.489  17.838  0.00  0.00    +0.000 A 
ATOM     24  C   UNL     1       2.330   8.505  18.118  0.00  0.00    +0.000 A 
ATOM     25  C   UNL     1       1.551   8.536  19.286  0.00  0.00    +0.000 A 
ATOM     26  C   UNL     1       1.710   7.478  20.181  0.00  0.00    +0.000 A 
ATOM     27  C   UNL     1       2.632   6.422  19.903  0.00  0.00    +0.000 A 
BRANCH  22  29
ATOM     28  N   UNL     1       5.403   5.686  17.550  0.00  0.00    +0.000 N 
ATOM     29  C   UNL     1       4.401   5.353  18.444  0.00  0.00    +0.000 C 
ATOM     30  O   UNL     1       4.297   4.264  18.990  0.00  0.00    +0.000 OA
ATOM     31  H   UNL     1       5.481   6.638  17.218  0.00  0.00    +0.000 HD
BRANCH  28  32
ATOM     32  C   UNL     1       6.435   4.755  17.136  0.00  0.00    +0.000 C 
BRANCH  32  34
ATOM     33  C   UNL     1       7.790   6.138  18.795  0.00  0.00    +0.000 C 
ATOM     34  C   UNL     1       7.705   4.852  17.982  0.00  0.00    +0.000 C 
ENDBRANCH  32  34
ENDBRANCH  28  32
ENDBRANCH  22  29
ENDBRANCH   1  25
TORSDOF 5
ENDMDL
MODEL 7
REMARK VINA RESULT:      -7.5      3.520     11.910
REMARK  Name = 
REMARK  6 active torsions:
REMARK  status: ('A' for Active; 'I' for Inactive)
REMARK    1  A    between atoms: C_1  and  C_2
REMARK    2  A    between atoms: C_2  and  C_3
REMARK    3  A    between atoms: C_3  and  N_4
REMARK    4  A    between atoms: C_5  and  C_7
REMARK    5  A    between atoms: C_10  and  N_11
REMARK    6  A    between atoms: C_19  and  C_20
REMARK                            x       y       z     vdW  Elec       q    Type
REMARK                         _______ _______ _______ _____ _____    ______ ____
ROOT
ATOM      1  N   UNL     1      -1.856  11.625  20.857  0.00  0.00    +0.000 N 
ATOM      2  C   UNL     1      -0.682  11.677  20.144  0.00  0.00    +0.000 C 
ATOM      3  O   UNL     1      -0.332  12.659  19.489  0.00  0.00    +0.000 OA
ATOM      4  N   UNL     1       0.133  10.583  20.093  0.00  0.00    +0.000 N 
ATOM      5  C   UNL     1       1.104  10.638  19.013  0.00  0.00    +0.000 C 
ATOM      6  C   UNL     1       1.553   9.232  18.904  0.00  0.00    +0.000 A 
ATOM      7  C   UNL     1       1.930   8.537  17.779  0.00  0.00    +0.000 A 
ATOM      8  C   UNL     1       2.423   7.256  17.954  0.00  0.00    +0.000 A 
ATOM      9  C   UNL     1       2.656   6.764  19.246  0.00  0.00    +0.000 A 
ATOM     10  C   UNL     1       2.093   7.408  20.370  0.00  0.00    +0.000 A 
ATOM     11  C   UNL     1       1.415   8.601  20.141  0.00  0.00    +0.000 A 
ATOM     12  C   UNL     1       0.290   9.329  20.867  0.00  0.00    +0.000 C 
ATOM     13  H   UNL     1      -2.068  10.777  21.360  0.00  0.00    +0.000 HD
ENDROOT
BRANCH   9  14
ATOM     14  C   UNL     1       3.488   5.527  19.305  0.00  0.00    +0.000 C 
ATOM     15  O   UNL     1       4.682   5.654  19.481  0.00  0.00    +0.000 OA
ATOM     16  N   UNL     1       2.836   4.287  19.283  0.00  0.00    +0.000 N 
ATOM     17  C   UNL     1       3.598   3.094  19.698  0.00  0.00    +0.000 C 
ATOM     18  C   UNL     1       3.088   1.830  18.998  0.00  0.00    +0.000 C 
ATOM     19  O   UNL     1       1.665   1.675  19.139  0.00  0.00    +0.000 OA
ATOM     20  C   UNL     1       0.976   2.823  18.621  0.00  0.00    +0.000 C 
ATOM     21  C   UNL     1       1.387   4.090  19.373  0.00  0.00    +0.000 C 
ENDBRANCH   9  14
BRANCH   1  25
ATOM     22  C   UNL     1      -4.793  14.755  20.808  0.00  0.00    +0.000 A 
ATOM     23  C   UNL     1      -3.663  14.857  21.621  0.00  0.00    +0.000 A 
ATOM     24  C   UNL     1      -2.717  13.840  21.629  0.00  0.00    +0.000 A 
ATOM     25  C   UNL     1      -2.840  12.675  20.855  0.00  0.00    +0.000 A 
ATOM     26  C   UNL     1      -3.980  12.562  20.058  0.00  0.00    +0.000 A 
ATOM     27  C   UNL     1      -4.963  13.598  20.044  0.00  0.00    +0.000 A 
BRANCH  22  29
ATOM     28  N   UNL     1      -6.093  16.391  19.544  0.00  0.00    +0.000 N 
ATOM     29  C   UNL     1      -5.803  15.866  20.790  0.00  0.00    +0.000 C 
ATOM     30  O   UNL     1      -6.320  16.238  21.833  0.00  0.00    +0.000 OA
ATOM     31  H   UNL     1      -5.701  15.963  18.716  0.00  0.00    +0.000 HD
BRANCH  28  32
ATOM     32  C   UNL     1      -7.032  17.479  19.342  0.00  0.00    +0.000 C 
BRANCH  32  34
ATOM     33  C   UNL     1      -7.073  16.435  17.016  0.00  0.00    +0.000 C 
ATOM     34  C   UNL     1      -7.496  17.608  17.891  0.00  0.00    +0.000 C 
ENDBRANCH  32  34
ENDBRANCH  28  32
ENDBRANCH  22  29
ENDBRANCH   1  25
TORSDOF 5
ENDMDL
MODEL 8
REMARK VINA RESULT:      -7.4      1.792      2.755
REMARK  Name = 
REMARK  6 active torsions:
REMARK  status: ('A' for Active; 'I' for Inactive)
REMARK    1  A    between atoms: C_1  and  C_2
REMARK    2  A    between atoms: C_2  and  C_3
REMARK    3  A    between atoms: C_3  and  N_4
REMARK    4  A    between atoms: C_5  and  C_7
REMARK    5  A    between atoms: C_10  and  N_11
REMARK    6  A    between atoms: C_19  and  C_20
REMARK                            x       y       z     vdW  Elec       q    Type
REMARK                         _______ _______ _______ _____ _____    ______ ____
ROOT
ATOM      1  N   UNL     1       1.446   8.545  19.659  0.00  0.00    +0.000 N 
ATOM      2  C   UNL     1       0.741   9.472  18.928  0.00  0.00    +0.000 C 
ATOM      3  O   UNL     1       0.812   9.563  17.703  0.00  0.00    +0.000 OA
ATOM      4  N   UNL     1      -0.044  10.389  19.568  0.00  0.00    +0.000 N 
ATOM      5  C   UNL     1      -0.401  11.523  18.732  0.00  0.00    +0.000 C 
ATOM      6  C   UNL     1      -0.860  12.525  19.720  0.00  0.00    +0.000 A 
ATOM      7  C   UNL     1      -0.731  13.894  19.677  0.00  0.00    +0.000 A 
ATOM      8  C   UNL     1      -1.350  14.625  20.675  0.00  0.00    +0.000 A 
ATOM      9  C   UNL     1      -2.191  13.986  21.596  0.00  0.00    +0.000 A 
ATOM     10  C   UNL     1      -2.159  12.581  21.740  0.00  0.00    +0.000 A 
ATOM     11  C   UNL     1      -1.358  11.873  20.849  0.00  0.00    +0.000 A 
ATOM     12  C   UNL     1      -0.639  10.531  20.917  0.00  0.00    +0.000 C 
ATOM     13  H   UNL     1       1.334   8.546  20.661  0.00  0.00    +0.000 HD
ENDROOT
BRANCH   9  14
ATOM     14  C   UNL     1      -3.053  14.902  22.399  0.00  0.00    +0.000 C 
ATOM     15  O   UNL     1      -4.207  15.042  22.054  0.00  0.00    +0.000 OA
ATOM     16  N   UNL     1      -2.524  15.448  23.576  0.00  0.00    +0.000 N 
ATOM     17  C   UNL     1      -3.462  16.047  24.546  0.00  0.00    +0.000 C 
ATOM     18  C   UNL     1      -2.794  17.164  25.355  0.00  0.00    +0.000 C 
ATOM     19  O   UNL     1      -1.558  16.732  25.950  0.00  0.00    +0.000 OA
ATOM     20  C   UNL     1      -0.650  16.259  24.944  0.00  0.00    +0.000 C 
ATOM     21  C   UNL     1      -1.246  15.071  24.186  0.00  0.00    +0.000 C 
ENDBRANCH   9  14
BRANCH   1  25
ATOM     22  C   UNL     1       4.311   5.821  17.986  0.00  0.00    +0.000 A 
ATOM     23  C   UNL     1       4.081   7.062  17.389  0.00  0.00    +0.000 A 
ATOM     24  C   UNL     1       3.152   7.937  17.938  0.00  0.00    +0.000 A 
ATOM     25  C   UNL     1       2.401   7.634  19.085  0.00  0.00    +0.000 A 
ATOM     26  C   UNL     1       2.615   6.386  19.670  0.00  0.00    +0.000 A 
ATOM     27  C   UNL     1       3.562   5.474  19.112  0.00  0.00    +0.000 A 
BRANCH  22  29
ATOM     28  N   UNL     1       5.211   4.651  16.040  0.00  0.00    +0.000 N 
ATOM     29  C   UNL     1       5.328   4.887  17.398  0.00  0.00    +0.000 C 
ATOM     30  O   UNL     1       6.195   4.401  18.111  0.00  0.00    +0.000 OA
ATOM     31  H   UNL     1       4.531   5.167  15.499  0.00  0.00    +0.000 HD
BRANCH  28  32
ATOM     32  C   UNL     1       6.098   3.764  15.311  0.00  0.00    +0.000 C 
BRANCH  32  34
ATOM     33  C   UNL     1       5.890   3.488  12.785  0.00  0.00    +0.000 C 
ATOM     34  C   UNL     1       6.479   4.301  13.930  0.00  0.00    +0.000 C 
ENDBRANCH  32  34
ENDBRANCH  28  32
ENDBRANCH  22  29
ENDBRANCH   1  25
TORSDOF 5
ENDMDL
MODEL 9
REMARK VINA RESULT:      -7.4      3.140     12.265
REMARK  Name = 
REMARK  6 active torsions:
REMARK  status: ('A' for Active; 'I' for Inactive)
REMARK    1  A    between atoms: C_1  and  C_2
REMARK    2  A    between atoms: C_2  and  C_3
REMARK    3  A    between atoms: C_3  and  N_4
REMARK    4  A    between atoms: C_5  and  C_7
REMARK    5  A    between atoms: C_10  and  N_11
REMARK    6  A    between atoms: C_19  and  C_20
REMARK                            x       y       z     vdW  Elec       q    Type
REMARK                         _______ _______ _______ _____ _____    ______ ____
ROOT
ATOM      1  N   UNL     1      -1.693  11.324  21.925  0.00  0.00    +0.000 N 
ATOM      2  C   UNL     1      -0.616  11.527  21.095  0.00  0.00    +0.000 C 
ATOM      3  O   UNL     1      -0.346  12.617  20.592  0.00  0.00    +0.000 OA
ATOM      4  N   UNL     1       0.184  10.476  20.749  0.00  0.00    +0.000 N 
ATOM      5  C   UNL     1       1.015  10.744  19.588  0.00  0.00    +0.000 C 
ATOM      6  C   UNL     1       1.445   9.390  19.172  0.00  0.00    +0.000 A 
ATOM      7  C   UNL     1       1.679   8.916  17.902  0.00  0.00    +0.000 A 
ATOM      8  C   UNL     1       2.186   7.634  17.782  0.00  0.00    +0.000 A 
ATOM      9  C   UNL     1       2.576   6.923  18.926  0.00  0.00    +0.000 A 
ATOM     10  C   UNL     1       2.156   7.343  20.208  0.00  0.00    +0.000 A 
ATOM     11  C   UNL     1       1.458   8.543  20.282  0.00  0.00    +0.000 A 
ATOM     12  C   UNL     1       0.432   9.107  21.259  0.00  0.00    +0.000 C 
ATOM     13  H   UNL     1      -1.844  10.395  22.288  0.00  0.00    +0.000 HD
ENDROOT
BRANCH   9  14
ATOM     14  C   UNL     1       3.406   5.712  18.659  0.00  0.00    +0.000 C 
ATOM     15  O   UNL     1       4.578   5.875  18.395  0.00  0.00    +0.000 OA
ATOM     16  N   UNL     1       2.822   4.452  18.851  0.00  0.00    +0.000 N 
ATOM     17  C   UNL     1       3.715   3.281  18.942  0.00  0.00    +0.000 C 
ATOM     18  C   UNL     1       3.021   2.007  18.451  0.00  0.00    +0.000 C 
ATOM     19  O   UNL     1       1.749   1.806  19.092  0.00  0.00    +0.000 OA
ATOM     20  C   UNL     1       0.889   2.935  18.878  0.00  0.00    +0.000 C 
ATOM     21  C   UNL     1       1.510   4.210  19.454  0.00  0.00    +0.000 C 
ENDBRANCH   9  14
BRANCH   1  25
ATOM     22  C   UNL     1      -4.606  14.329  22.877  0.00  0.00    +0.000 A 
ATOM     23  C   UNL     1      -4.604  13.717  21.622  0.00  0.00    +0.000 A 
ATOM     24  C   UNL     1      -3.658  12.745  21.323  0.00  0.00    +0.000 A 
ATOM     25  C   UNL     1      -2.668  12.337  22.231  0.00  0.00    +0.000 A 
ATOM     26  C   UNL     1      -2.656  12.962  23.479  0.00  0.00    +0.000 A 
ATOM     27  C   UNL     1      -3.620  13.968  23.797  0.00  0.00    +0.000 A 
BRANCH  22  29
ATOM     28  N   UNL     1      -5.561  16.541  22.475  0.00  0.00    +0.000 N 
ATOM     29  C   UNL     1      -5.643  15.367  23.200  0.00  0.00    +0.000 C 
ATOM     30  O   UNL     1      -6.494  15.136  24.048  0.00  0.00    +0.000 OA
ATOM     31  H   UNL     1      -4.892  16.618  21.720  0.00  0.00    +0.000 HD
BRANCH  28  32
ATOM     32  C   UNL     1      -6.470  17.655  22.667  0.00  0.00    +0.000 C 
BRANCH  32  34
ATOM     33  C   UNL     1      -7.237  17.026  20.318  0.00  0.00    +0.000 C 
ATOM     34  C   UNL     1      -7.126  18.124  21.367  0.00  0.00    +0.000 C 
ENDBRANCH  32  34
ENDBRANCH  28  32
ENDBRANCH  22  29
ENDBRANCH   1  25
TORSDOF 5
ENDMDL
