MODEL 1
REMARK VINA RESULT:      -5.8      0.000      0.000
REMARK  Name = 
REMARK  8 active torsions:
REMARK  status: ('A' for Active; 'I' for Inactive)
REMARK    1  A    between atoms: C_1  and  N_2
REMARK    2  A    between atoms: N_2  and  C_3
REMARK    3  A    between atoms: N_2  and  C_4
REMARK    4  A    between atoms: C_4  and  C_5
REMARK    5  A    between atoms: C_5  and  C_6
REMARK    6  A    between atoms: C_6  and  N_7
REMARK    7  A    between atoms: C_8  and  C_10
REMARK    8  A    between atoms: C_10  and  C_11
REMARK                            x       y       z     vdW  Elec       q    Type
REMARK                         _______ _______ _______ _____ _____    ______ ____
ROOT
ATOM      1  N   UNL     1       3.637   3.037  18.423  0.00  0.00    +0.000 N 
ATOM      2  C   UNL     1       4.687   3.292  19.276  0.00  0.00    +0.000 C 
ATOM      3  O   UNL     1       5.073   2.502  20.132  0.00  0.00    +0.000 OA
ATOM      4  H   UNL     1       3.399   3.709  17.707  0.00  0.00    +0.000 HD
ENDROOT
BRANCH   1   5
ATOM      5  C   UNL     1       2.883   1.799  18.458  0.00  0.00    +0.000 C 
BRANCH   5   6
ATOM      6  C   UNL     1       1.562   1.954  19.208  0.00  0.00    +0.000 C 
BRANCH   6   7
ATOM      7  C   UNL     1       1.064   3.405  19.289  0.00  0.00    +0.000 C 
BRANCH   7   9
ATOM      8  C   UNL     1       1.731   3.069  21.607  0.00  0.00    +0.000 C 
ATOM      9  N   UNL     1       1.115   3.985  20.643  0.00  0.00    +0.000 NA
ATOM     10  C   UNL     1       1.851   5.250  20.626  0.00  0.00    +0.000 C 
ENDBRANCH   7   9
ENDBRANCH   6   7
ENDBRANCH   5   6
ENDBRANCH   1   5
BRANCH   2  11
ATOM     11  C   UNL     1       5.330   4.655  19.084  0.00  0.00    +0.000 C 
BRANCH  11  12
ATOM     12  C   UNL     1       5.617   4.976  17.636  0.00  0.00    +0.000 A 
ATOM     13  C   UNL     1       4.909   5.987  16.975  0.00  0.00    +0.000 A 
ATOM     14  C   UNL     1       5.209   6.321  15.652  0.00  0.00    +0.000 A 
ATOM     15  C   UNL     1       6.230   5.651  14.981  0.00  0.00    +0.000 A 
ATOM     16  C   UNL     1       6.939   4.640  15.626  0.00  0.00    +0.000 A 
ATOM     17  C   UNL     1       6.637   4.303  16.947  0.00  0.00    +0.000 A 
ENDBRANCH  11  12
ENDBRANCH   2  11
TORSDOF 6
ENDMDL
MODEL 2
REMARK VINA RESULT:      -5.7      1.822      3.003
REMARK  Name = 
REMARK  8 active torsions:
REMARK  status: ('A' for Active; 'I' for Inactive)
REMARK    1  A    between atoms: C_1  and  N_2
REMARK    2  A    between atoms: N_2  and  C_3
REMARK    3  A    between atoms: N_2  and  C_4
REMARK    4  A    between atoms: C_4  and  C_5
REMARK    5  A    between atoms: C_5  and  C_6
REMARK    6  A    between atoms: C_6  and  N_7
REMARK    7  A    between atoms: C_8  and  C_10
REMARK    8  A    between atoms: C_10  and  C_11
REMARK                            x       y       z     vdW  Elec       q    Type
REMARK                         _______ _______ _______ _____ _____    ______ ____
ROOT
ATOM      1  N   UNL     1       2.655   6.457  19.798  0.00  0.00    +0.000 N 
ATOM      2  C   UNL     1       2.723   6.205  18.447  0.00  0.00    +0.000 C 
ATOM      3  O   UNL     1       2.011   5.386  17.874  0.00  0.00    +0.000 OA
ATOM      4  H   UNL     1       3.235   7.180  20.202  0.00  0.00    +0.000 HD
ENDROOT
BRANCH   1   5
ATOM      5  C   UNL     1       1.729   5.771  20.677  0.00  0.00    +0.000 C 
BRANCH   5   6
ATOM      6  C   UNL     1       2.276   4.424  21.147  0.00  0.00    +0.000 C 
BRANCH   6   7
ATOM      7  C   UNL     1       1.312   3.251  20.916  0.00  0.00    +0.000 C 
BRANCH   7   9
ATOM      8  C   UNL     1       0.971   2.266  18.715  0.00  0.00    +0.000 C 
ATOM      9  N   UNL     1       1.790   2.265  19.929  0.00  0.00    +0.000 NA
ATOM     10  C   UNL     1       3.187   2.532  19.581  0.00  0.00    +0.000 C 
ENDBRANCH   7   9
ENDBRANCH   6   7
ENDBRANCH   5   6
ENDBRANCH   1   5
BRANCH   2  11
ATOM     11  C   UNL     1       3.772   7.021  17.711  0.00  0.00    +0.000 C 
BRANCH  11  12
ATOM     12  C   UNL     1       4.963   6.200  17.276  0.00  0.00    +0.000 A 
ATOM     13  C   UNL     1       5.796   5.592  18.224  0.00  0.00    +0.000 A 
ATOM     14  C   UNL     1       6.866   4.789  17.822  0.00  0.00    +0.000 A 
ATOM     15  C   UNL     1       7.106   4.578  16.466  0.00  0.00    +0.000 A 
ATOM     16  C   UNL     1       6.287   5.181  15.513  0.00  0.00    +0.000 A 
ATOM     17  C   UNL     1       5.219   5.987  15.914  0.00  0.00    +0.000 A 
ENDBRANCH  11  12
ENDBRANCH   2  11
TORSDOF 6
ENDMDL
MODEL 3
REMARK VINA RESULT:      -5.7      2.165      5.895
REMARK  Name = 
REMARK  8 active torsions:
REMARK  status: ('A' for Active; 'I' for Inactive)
REMARK    1  A    between atoms: C_1  and  N_2
REMARK    2  A    between atoms: N_2  and  C_3
REMARK    3  A    between atoms: N_2  and  C_4
REMARK    4  A    between atoms: C_4  and  C_5
REMARK    5  A    between atoms: C_5  and  C_6
REMARK    6  A    between atoms: C_6  and  N_7
REMARK    7  A    between atoms: C_8  and  C_10
REMARK    8  A    between atoms: C_10  and  C_11
REMARK                            x       y       z     vdW  Elec       q    Type
REMARK                         _______ _______ _______ _____ _____    ______ ____
ROOT
ATOM      1  N   UNL     1       6.682   4.354  18.745  0.00  0.00    +0.000 N 
ATOM      2  C   UNL     1       5.362   4.353  19.134  0.00  0.00    +0.000 C 
ATOM      3  O   UNL     1       4.746   5.367  19.447  0.00  0.00    +0.000 OA
ATOM      4  H   UNL     1       7.118   3.490  18.453  0.00  0.00    +0.000 HD
ENDROOT
BRANCH   1   5
ATOM      5  C   UNL     1       7.475   5.565  18.669  0.00  0.00    +0.000 C 
BRANCH   5   6
ATOM      6  C   UNL     1       7.344   6.250  17.310  0.00  0.00    +0.000 C 
BRANCH   6   7
ATOM      7  C   UNL     1       7.172   5.271  16.139  0.00  0.00    +0.000 C 
BRANCH   7   9
ATOM      8  C   UNL     1       5.485   4.468  14.576  0.00  0.00    +0.000 C 
ATOM      9  N   UNL     1       6.102   5.643  15.195  0.00  0.00    +0.000 NA
ATOM     10  C   UNL     1       5.078   6.437  15.877  0.00  0.00    +0.000 C 
ENDBRANCH   7   9
ENDBRANCH   6   7
ENDBRANCH   5   6
ENDBRANCH   1   5
BRANCH   2  11
ATOM     11  C   UNL     1       4.720   2.976  19.162  0.00  0.00    +0.000 C 
BRANCH  11  12
ATOM     12  C   UNL     1       3.248   3.016  19.498  0.00  0.00    +0.000 A 
ATOM     13  C   UNL     1       2.813   2.861  20.821  0.00  0.00    +0.000 A 
ATOM     14  C   UNL     1       1.456   2.950  21.141  0.00  0.00    +0.000 A 
ATOM     15  C   UNL     1       0.522   3.206  20.139  0.00  0.00    +0.000 A 
ATOM     16  C   UNL     1       0.941   3.357  18.819  0.00  0.00    +0.000 A 
ATOM     17  C   UNL     1       2.297   3.265  18.498  0.00  0.00    +0.000 A 
ENDBRANCH  11  12
ENDBRANCH   2  11
TORSDOF 6
ENDMDL
MODEL 4
REMARK VINA RESULT:      -5.7      1.700      2.286
REMARK  Name = 
REMARK  8 active torsions:
REMARK  status: ('A' for Active; 'I' for Inactive)
REMARK    1  A    between atoms: C_1  and  N_2
REMARK    2  A    between atoms: N_2  and  C_3
REMARK    3  A    between atoms: N_2  and  C_4
REMARK    4  A    between atoms: C_4  and  C_5
REMARK    5  A    between atoms: C_5  and  C_6
REMARK    6  A    between atoms: C_6  and  N_7
REMARK    7  A    between atoms: C_8  and  C_10
REMARK    8  A    between atoms: C_10  and  C_11
REMARK                            x       y       z     vdW  Elec       q    Type
REMARK                         _______ _______ _______ _____ _____    ______ ____
ROOT
ATOM      1  N   UNL     1       5.220   3.229  19.313  0.00  0.00    +0.000 N 
ATOM      2  C   UNL     1       5.041   4.588  19.433  0.00  0.00    +0.000 C 
ATOM      3  O   UNL     1       4.070   5.098  19.982  0.00  0.00    +0.000 OA
ATOM      4  H   UNL     1       6.066   2.871  18.892  0.00  0.00    +0.000 HD
ENDROOT
BRANCH   1   5
ATOM      5  C   UNL     1       4.267   2.265  19.828  0.00  0.00    +0.000 C 
BRANCH   5   6
ATOM      6  C   UNL     1       3.450   1.615  18.713  0.00  0.00    +0.000 C 
BRANCH   6   7
ATOM      7  C   UNL     1       3.064   2.584  17.585  0.00  0.00    +0.000 C 
BRANCH   7   9
ATOM      8  C   UNL     1       0.931   2.433  18.752  0.00  0.00    +0.000 C 
ATOM      9  N   UNL     1       1.663   3.040  17.638  0.00  0.00    +0.000 NA
ATOM     10  C   UNL     1       1.608   4.499  17.748  0.00  0.00    +0.000 C 
ENDBRANCH   7   9
ENDBRANCH   6   7
ENDBRANCH   5   6
ENDBRANCH   1   5
BRANCH   2  11
ATOM     11  C   UNL     1       6.149   5.421  18.811  0.00  0.00    +0.000 C 
BRANCH  11  12
ATOM     12  C   UNL     1       6.184   5.328  17.304  0.00  0.00    +0.000 A 
ATOM     13  C   UNL     1       7.159   4.556  16.659  0.00  0.00    +0.000 A 
ATOM     14  C   UNL     1       7.161   4.427  15.267  0.00  0.00    +0.000 A 
ATOM     15  C   UNL     1       6.179   5.061  14.509  0.00  0.00    +0.000 A 
ATOM     16  C   UNL     1       5.207   5.835  15.138  0.00  0.00    +0.000 A 
ATOM     17  C   UNL     1       5.206   5.968  16.528  0.00  0.00    +0.000 A 
ENDBRANCH  11  12
ENDBRANCH   2  11
TORSDOF 6
ENDMDL
MODEL 5
REMARK VINA RESULT:      -5.7      2.630      6.574
REMARK  Name = 
REMARK  8 active torsions:
REMARK  status: ('A' for Active; 'I' for Inactive)
REMARK    1  A    between atoms: C_1  and  N_2
REMARK    2  A    between atoms: N_2  and  C_3
REMARK    3  A    between atoms: N_2  and  C_4
REMARK    4  A    between atoms: C_4  and  C_5
REMARK    5  A    between atoms: C_5  and  C_6
REMARK    6  A    between atoms: C_6  and  N_7
REMARK    7  A    between atoms: C_8  and  C_10
REMARK    8  A    between atoms: C_10  and  C_11
REMARK                            x       y       z     vdW  Elec       q    Type
REMARK                         _______ _______ _______ _____ _____    ______ ____
ROOT
ATOM      1  N   UNL     1       5.506   3.526  16.551  0.00  0.00    +0.000 N 
ATOM      2  C   UNL     1       4.377   4.100  17.089  0.00  0.00    +0.000 C 
ATOM      3  O   UNL     1       4.291   5.290  17.374  0.00  0.00    +0.000 OA
ATOM      4  H   UNL     1       5.496   2.549  16.292  0.00  0.00    +0.000 HD
ENDROOT
BRANCH   1   5
ATOM      5  C   UNL     1       6.710   4.282  16.269  0.00  0.00    +0.000 C 
BRANCH   5   6
ATOM      6  C   UNL     1       6.722   4.831  14.844  0.00  0.00    +0.000 C 
BRANCH   6   7
ATOM      7  C   UNL     1       5.723   4.135  13.906  0.00  0.00    +0.000 C 
BRANCH   7   9
ATOM      8  C   UNL     1       5.348   2.913  11.833  0.00  0.00    +0.000 C 
ATOM      9  N   UNL     1       6.347   3.472  12.747  0.00  0.00    +0.000 NA
ATOM     10  C   UNL     1       7.204   4.415  12.024  0.00  0.00    +0.000 C 
ENDBRANCH   7   9
ENDBRANCH   6   7
ENDBRANCH   5   6
ENDBRANCH   1   5
BRANCH   2  11
ATOM     11  C   UNL     1       3.232   3.128  17.320  0.00  0.00    +0.000 C 
BRANCH  11  12
ATOM     12  C   UNL     1       2.651   3.218  18.711  0.00  0.00    +0.000 A 
ATOM     13  C   UNL     1       1.377   3.761  18.920  0.00  0.00    +0.000 A 
ATOM     14  C   UNL     1       0.817   3.796  20.199  0.00  0.00    +0.000 A 
ATOM     15  C   UNL     1       1.524   3.278  21.282  0.00  0.00    +0.000 A 
ATOM     16  C   UNL     1       2.794   2.739  21.088  0.00  0.00    +0.000 A 
ATOM     17  C   UNL     1       3.356   2.707  19.811  0.00  0.00    +0.000 A 
ENDBRANCH  11  12
ENDBRANCH   2  11
TORSDOF 6
ENDMDL
MODEL 6
REMARK VINA RESULT:      -5.7      2.223      5.830
REMARK  Name = 
REMARK  8 active torsions:
REMARK  status: ('A' for Active; 'I' for Inactive)
REMARK    1  A    between atoms: C_1  and  N_2
REMARK    2  A    between atoms: N_2  and  C_3
REMARK    3  A    between atoms: N_2  and  C_4
REMARK    4  A    between atoms: C_4  and  C_5
REMARK    5  A    between atoms: C_5  and  C_6
REMARK    6  A    between atoms: C_6  and  N_7
REMARK    7  A    between atoms: C_8  and  C_10
REMARK    8  A    between atoms: C_10  and  C_11
REMARK                            x       y       z     vdW  Elec       q    Type
REMARK                         _______ _______ _______ _____ _____    ______ ____
ROOT
ATOM      1  N   UNL     1       6.147   5.902  18.365  0.00  0.00    +0.000 N 
ATOM      2  C   UNL     1       5.321   5.108  19.127  0.00  0.00    +0.000 C 
ATOM      3  O   UNL     1       5.630   3.987  19.518  0.00  0.00    +0.000 OA
ATOM      4  H   UNL     1       5.853   6.836  18.116  0.00  0.00    +0.000 HD
ENDROOT
BRANCH   1   5
ATOM      5  C   UNL     1       7.472   5.483  17.950  0.00  0.00    +0.000 C 
BRANCH   5   6
ATOM      6  C   UNL     1       7.424   4.546  16.745  0.00  0.00    +0.000 C 
BRANCH   6   7
ATOM      7  C   UNL     1       6.977   5.233  15.446  0.00  0.00    +0.000 C 
BRANCH   7   9
ATOM      8  C   UNL     1       6.154   3.841  13.624  0.00  0.00    +0.000 C 
ATOM      9  N   UNL     1       5.796   4.616  14.815  0.00  0.00    +0.000 NA
ATOM     10  C   UNL     1       5.100   3.755  15.773  0.00  0.00    +0.000 C 
ENDBRANCH   7   9
ENDBRANCH   6   7
ENDBRANCH   5   6
ENDBRANCH   1   5
BRANCH   2  11
ATOM     11  C   UNL     1       3.970   5.730  19.438  0.00  0.00    +0.000 C 
BRANCH  11  12
ATOM     12  C   UNL     1       2.854   4.715  19.512  0.00  0.00    +0.000 A 
ATOM     13  C   UNL     1       2.301   4.351  20.746  0.00  0.00    +0.000 A 
ATOM     14  C   UNL     1       1.233   3.453  20.812  0.00  0.00    +0.000 A 
ATOM     15  C   UNL     1       0.702   2.918  19.640  0.00  0.00    +0.000 A 
ATOM     16  C   UNL     1       1.246   3.268  18.407  0.00  0.00    +0.000 A 
ATOM     17  C   UNL     1       2.316   4.164  18.340  0.00  0.00    +0.000 A 
ENDBRANCH  11  12
ENDBRANCH   2  11
TORSDOF 6
ENDMDL
MODEL 7
REMARK VINA RESULT:      -5.6      1.603      2.646
REMARK  Name = 
REMARK  8 active torsions:
REMARK  status: ('A' for Active; 'I' for Inactive)
REMARK    1  A    between atoms: C_1  and  N_2
REMARK    2  A    between atoms: N_2  and  C_3
REMARK    3  A    between atoms: N_2  and  C_4
REMARK    4  A    between atoms: C_4  and  C_5
REMARK    5  A    between atoms: C_5  and  C_6
REMARK    6  A    between atoms: C_6  and  N_7
REMARK    7  A    between atoms: C_8  and  C_10
REMARK    8  A    between atoms: C_10  and  C_11
REMARK                            x       y       z     vdW  Elec       q    Type
REMARK                         _______ _______ _______ _____ _____    ______ ____
ROOT
ATOM      1  N   UNL     1       2.173   5.539  19.453  0.00  0.00    +0.000 N 
ATOM      2  C   UNL     1       3.462   5.703  19.003  0.00  0.00    +0.000 C 
ATOM      3  O   UNL     1       4.454   5.506  19.698  0.00  0.00    +0.000 OA
ATOM      4  H   UNL     1       1.399   5.670  18.815  0.00  0.00    +0.000 HD
ENDROOT
BRANCH   1   5
ATOM      5  C   UNL     1       1.863   5.116  20.805  0.00  0.00    +0.000 C 
BRANCH   5   6
ATOM      6  C   UNL     1       1.251   3.717  20.840  0.00  0.00    +0.000 C 
BRANCH   6   7
ATOM      7  C   UNL     1       2.267   2.592  20.594  0.00  0.00    +0.000 C 
BRANCH   7   9
ATOM      8  C   UNL     1       0.855   2.312  18.630  0.00  0.00    +0.000 C 
ATOM      9  N   UNL     1       2.038   1.835  19.350  0.00  0.00    +0.000 NA
ATOM     10  C   UNL     1       3.213   1.921  18.480  0.00  0.00    +0.000 C 
ENDBRANCH   7   9
ENDBRANCH   6   7
ENDBRANCH   5   6
ENDBRANCH   1   5
BRANCH   2  11
ATOM     11  C   UNL     1       3.566   6.168  17.560  0.00  0.00    +0.000 C 
BRANCH  11  12
ATOM     12  C   UNL     1       4.781   5.622  16.848  0.00  0.00    +0.000 A 
ATOM     13  C   UNL     1       5.998   6.315  16.877  0.00  0.00    +0.000 A 
ATOM     14  C   UNL     1       7.136   5.785  16.264  0.00  0.00    +0.000 A 
ATOM     15  C   UNL     1       7.068   4.550  15.623  0.00  0.00    +0.000 A 
ATOM     16  C   UNL     1       5.862   3.853  15.582  0.00  0.00    +0.000 A 
ATOM     17  C   UNL     1       4.724   4.383  16.192  0.00  0.00    +0.000 A 
ENDBRANCH  11  12
ENDBRANCH   2  11
TORSDOF 6
ENDMDL
MODEL 8
REMARK VINA RESULT:      -5.6      2.276      5.850
REMARK  Name = 
REMARK  8 active torsions:
REMARK  status: ('A' for Active; 'I' for Inactive)
REMARK    1  A    between atoms: C_1  and  N_2
REMARK    2  A    between atoms: N_2  and  C_3
REMARK    3  A    between atoms: N_2  and  C_4
REMARK    4  A    between atoms: C_4  and  C_5
REMARK    5  A    between atoms: C_5  and  C_6
REMARK    6  A    between atoms: C_6  and  N_7
REMARK    7  A    between atoms: C_8  and  C_10
REMARK    8  A    between atoms: C_10  and  C_11
REMARK                            x       y       z     vdW  Elec       q    Type
REMARK                         _______ _______ _______ _____ _____    ______ ____
ROOT
ATOM      1  N   UNL     1       4.611   5.584  19.046  0.00  0.00    +0.000 N 
ATOM      2  C   UNL     1       3.894   6.362  18.166  0.00  0.00    +0.000 C 
ATOM      3  O   UNL     1       4.413   7.094  17.328  0.00  0.00    +0.000 OA
ATOM      4  H   UNL     1       4.123   4.966  19.679  0.00  0.00    +0.000 HD
ENDROOT
BRANCH   1   5
ATOM      5  C   UNL     1       6.060   5.557  19.065  0.00  0.00    +0.000 C 
BRANCH   5   6
ATOM      6  C   UNL     1       6.624   4.451  18.175  0.00  0.00    +0.000 C 
BRANCH   6   7
ATOM      7  C   UNL     1       7.132   4.952  16.815  0.00  0.00    +0.000 C 
BRANCH   7   9
ATOM      8  C   UNL     1       5.163   4.027  15.720  0.00  0.00    +0.000 C 
ATOM      9  N   UNL     1       6.617   4.191  15.662  0.00  0.00    +0.000 NA
ATOM     10  C   UNL     1       6.989   4.853  14.410  0.00  0.00    +0.000 C 
ENDBRANCH   7   9
ENDBRANCH   6   7
ENDBRANCH   5   6
ENDBRANCH   1   5
BRANCH   2  11
ATOM     11  C   UNL     1       2.386   6.256  18.323  0.00  0.00    +0.000 C 
BRANCH  11  12
ATOM     12  C   UNL     1       1.931   4.884  18.760  0.00  0.00    +0.000 A 
ATOM     13  C   UNL     1       1.997   3.796  17.880  0.00  0.00    +0.000 A 
ATOM     14  C   UNL     1       1.626   2.516  18.299  0.00  0.00    +0.000 A 
ATOM     15  C   UNL     1       1.196   2.311  19.608  0.00  0.00    +0.000 A 
ATOM     16  C   UNL     1       1.122   3.386  20.492  0.00  0.00    +0.000 A 
ATOM     17  C   UNL     1       1.489   4.666  20.073  0.00  0.00    +0.000 A 
ENDBRANCH  11  12
ENDBRANCH   2  11
TORSDOF 6
ENDMDL
MODEL 9
REMARK VINA RESULT:      -5.5      1.992      2.699
REMARK  Name = 
REMARK  8 active torsions:
REMARK  status: ('A' for Active; 'I' for Inactive)
REMARK    1  A    between atoms: C_1  and  N_2
REMARK    2  A    between atoms: N_2  and  C_3
REMARK    3  A    between atoms: N_2  and  C_4
REMARK    4  A    between atoms: C_4  and  C_5
REMARK    5  A    between atoms: C_5  and  C_6
REMARK    6  A    between atoms: C_6  and  N_7
REMARK    7  A    between atoms: C_8  and  C_10
REMARK    8  A    between atoms: C_10  and  C_11
REMARK                            x       y       z     vdW  Elec       q    Type
REMARK                         _______ _______ _______ _____ _____    ______ ____
ROOT
ATOM      1  N   UNL     1       3.667   3.744  17.730  0.00  0.00    +0.000 N 
ATOM      2  C   UNL     1       4.594   4.142  16.794  0.00  0.00    +0.000 C 
ATOM      3  O   UNL     1       5.243   3.359  16.107  0.00  0.00    +0.000 OA
ATOM      4  H   UNL     1       3.130   4.440  18.229  0.00  0.00    +0.000 HD
ENDROOT
BRANCH   1   5
ATOM      5  C   UNL     1       3.369   2.350  17.994  0.00  0.00    +0.000 C 
BRANCH   5   6
ATOM      6  C   UNL     1       1.884   2.124  18.269  0.00  0.00    +0.000 C 
BRANCH   6   7
ATOM      7  C   UNL     1       1.253   3.197  19.170  0.00  0.00    +0.000 C 
BRANCH   7   9
ATOM      8  C   UNL     1       1.974   4.918  20.735  0.00  0.00    +0.000 C 
ATOM      9  N   UNL     1       2.032   3.497  20.385  0.00  0.00    +0.000 NA
ATOM     10  C   UNL     1       1.550   2.691  21.509  0.00  0.00    +0.000 C 
ENDBRANCH   7   9
ENDBRANCH   6   7
ENDBRANCH   5   6
ENDBRANCH   1   5
BRANCH   2  11
ATOM     11  C   UNL     1       4.766   5.648  16.686  0.00  0.00    +0.000 C 
BRANCH  11  12
ATOM     12  C   UNL     1       5.979   6.160  17.426  0.00  0.00    +0.000 A 
ATOM     13  C   UNL     1       6.562   5.405  18.452  0.00  0.00    +0.000 A 
ATOM     14  C   UNL     1       7.715   5.853  19.101  0.00  0.00    +0.000 A 
ATOM     15  C   UNL     1       8.301   7.059  18.722  0.00  0.00    +0.000 A 
ATOM     16  C   UNL     1       7.729   7.822  17.707  0.00  0.00    +0.000 A 
ATOM     17  C   UNL     1       6.574   7.376  17.060  0.00  0.00    +0.000 A 
ENDBRANCH  11  12
ENDBRANCH   2  11
TORSDOF 6
ENDMDL
