MODEL 1
REMARK VINA RESULT:      -9.7      0.000      0.000
REMARK  Name = 
REMARK  6 active torsions:
REMARK  status: ('A' for Active; 'I' for Inactive)
REMARK    1  A    between atoms: C_1  and  C_2
REMARK    2  A    between atoms: C_8  and  C_9
REMARK    3  A    between atoms: C_9  and  N_10
REMARK    4  A    between atoms: C_9  and  C_17
REMARK    5  A    between atoms: N_10  and  C_11
REMARK    6  A    between atoms: C_25  and  O_26
REMARK                            x       y       z     vdW  Elec       q    Type
REMARK                         _______ _______ _______ _____ _____    ______ ____
ROOT
ATOM      1  C   UNL     1       3.308   5.757  17.812  0.00  0.00    +0.000 C 
ENDROOT
BRANCH   1   9
ATOM      2  C   UNL     1      -0.309   9.444  23.086  0.00  0.00    +0.000 C 
ATOM      3  C   UNL     1       0.283   9.478  21.709  0.00  0.00    +0.000 A 
ATOM      4  C   UNL     1      -0.100  10.461  20.810  0.00  0.00    +0.000 A 
ATOM      5  C   UNL     1       0.385  10.397  19.516  0.00  0.00    +0.000 A 
ATOM      6  C   UNL     1       1.206   9.326  19.139  0.00  0.00    +0.000 A 
ATOM      7  C   UNL     1       1.604   9.208  17.808  0.00  0.00    +0.000 A 
ATOM      8  C   UNL     1       2.292   8.071  17.386  0.00  0.00    +0.000 A 
ATOM      9  C   UNL     1       2.669   7.070  18.294  0.00  0.00    +0.000 A 
ATOM     10  C   UNL     1       2.368   7.285  19.652  0.00  0.00    +0.000 A 
ATOM     11  C   UNL     1       1.573   8.367  20.101  0.00  0.00    +0.000 A 
ATOM     12  N   UNL     1       1.127   8.466  21.376  0.00  0.00    +0.000 NA
BRANCH  10  13
ATOM     13  O   UNL     1       2.877   6.413  20.586  0.00  0.00    +0.000 OA
ATOM     14  H   UNL     1       3.010   5.562  20.134  0.00  0.00    +0.000 HD
ENDBRANCH  10  13
ENDBRANCH   1   9
BRANCH   1  15
ATOM     15  C   UNL     1       2.839   4.548  18.631  0.00  0.00    +0.000 A 
ATOM     16  C   UNL     1       3.574   3.991  19.700  0.00  0.00    +0.000 A 
ATOM     17  C   UNL     1       2.996   3.044  20.549  0.00  0.00    +0.000 A 
ATOM     18  C   UNL     1       1.680   2.649  20.341  0.00  0.00    +0.000 A 
ATOM     19  F   UNL     1       1.112   1.790  21.196  0.00  0.00    +0.000 F 
ATOM     20  C   UNL     1       0.941   3.156  19.284  0.00  0.00    +0.000 A 
ATOM     21  C   UNL     1       1.525   4.093  18.438  0.00  0.00    +0.000 A 
ATOM     22  F   UNL     1       0.781   4.608  17.449  0.00  0.00    +0.000 F 
ENDBRANCH   1  15
BRANCH   1  23
ATOM     23  N   UNL     1       4.779   5.943  17.878  0.00  0.00    +0.000 N 
ATOM     24  H   UNL     1       5.160   5.553  18.734  0.00  0.00    +0.000 HD
BRANCH  23  25
ATOM     25  C   UNL     1       5.613   5.481  16.854  0.00  0.00    +0.000 A 
ATOM     26  C   UNL     1       5.086   4.556  15.941  0.00  0.00    +0.000 A 
ATOM     27  C   UNL     1       5.810   4.175  14.813  0.00  0.00    +0.000 A 
ATOM     28  C   UNL     1       7.045   4.762  14.605  0.00  0.00    +0.000 A 
ATOM     29  N   UNL     1       7.590   5.670  15.440  0.00  0.00    +0.000 NA
ATOM     30  C   UNL     1       6.861   6.009  16.532  0.00  0.00    +0.000 A 
ENDBRANCH  23  25
ENDBRANCH   1  23
TORSDOF 5
ENDMDL
MODEL 2
REMARK VINA RESULT:      -9.6      1.534      2.199
REMARK  Name = 
REMARK  6 active torsions:
REMARK  status: ('A' for Active; 'I' for Inactive)
REMARK    1  A    between atoms: C_1  and  C_2
REMARK    2  A    between atoms: C_8  and  C_9
REMARK    3  A    between atoms: C_9  and  N_10
REMARK    4  A    between atoms: C_9  and  C_17
REMARK    5  A    between atoms: N_10  and  C_11
REMARK    6  A    between atoms: C_25  and  O_26
REMARK                            x       y       z     vdW  Elec       q    Type
REMARK                         _______ _______ _______ _____ _____    ______ ____
ROOT
ATOM      1  C   UNL     1       2.970   6.379  18.095  0.00  0.00    +0.000 C 
ENDROOT
BRANCH   1   9
ATOM      2  C   UNL     1       0.966  13.387  19.260  0.00  0.00    +0.000 C 
ATOM      3  C   UNL     1       0.896  11.964  19.729  0.00  0.00    +0.000 A 
ATOM      4  C   UNL     1       0.523  11.679  21.033  0.00  0.00    +0.000 A 
ATOM      5  C   UNL     1       0.573  10.365  21.462  0.00  0.00    +0.000 A 
ATOM      6  C   UNL     1       1.040   9.373  20.590  0.00  0.00    +0.000 A 
ATOM      7  C   UNL     1       1.192   8.068  21.059  0.00  0.00    +0.000 A 
ATOM      8  C   UNL     1       1.795   7.105  20.253  0.00  0.00    +0.000 A 
ATOM      9  C   UNL     1       2.185   7.397  18.937  0.00  0.00    +0.000 A 
ATOM     10  C   UNL     1       1.897   8.686  18.451  0.00  0.00    +0.000 A 
ATOM     11  C   UNL     1       1.391   9.721  19.272  0.00  0.00    +0.000 A 
ATOM     12  N   UNL     1       1.295  11.006  18.852  0.00  0.00    +0.000 NA
BRANCH  10  13
ATOM     13  O   UNL     1       2.103   8.948  17.116  0.00  0.00    +0.000 OA
ATOM     14  H   UNL     1       2.459   9.852  17.059  0.00  0.00    +0.000 HD
ENDBRANCH  10  13
ENDBRANCH   1   9
BRANCH   1  15
ATOM     15  C   UNL     1       2.756   4.938  18.575  0.00  0.00    +0.000 A 
ATOM     16  C   UNL     1       3.488   4.344  19.627  0.00  0.00    +0.000 A 
ATOM     17  C   UNL     1       3.095   3.118  20.168  0.00  0.00    +0.000 A 
ATOM     18  C   UNL     1       1.967   2.477  19.668  0.00  0.00    +0.000 A 
ATOM     19  F   UNL     1       1.559   1.335  20.234  0.00  0.00    +0.000 F 
ATOM     20  C   UNL     1       1.244   3.020  18.619  0.00  0.00    +0.000 A 
ATOM     21  C   UNL     1       1.645   4.237  18.079  0.00  0.00    +0.000 A 
ATOM     22  F   UNL     1       0.907   4.771  17.096  0.00  0.00    +0.000 F 
ENDBRANCH   1  15
BRANCH   1  23
ATOM     23  N   UNL     1       4.397   6.782  18.150  0.00  0.00    +0.000 N 
ATOM     24  H   UNL     1       4.788   6.624  19.073  0.00  0.00    +0.000 HD
BRANCH  23  25
ATOM     25  C   UNL     1       5.333   6.252  17.254  0.00  0.00    +0.000 A 
ATOM     26  C   UNL     1       6.367   5.459  17.771  0.00  0.00    +0.000 A 
ATOM     27  C   UNL     1       7.238   4.779  16.922  0.00  0.00    +0.000 A 
ATOM     28  C   UNL     1       7.029   4.881  15.559  0.00  0.00    +0.000 A 
ATOM     29  N   UNL     1       6.039   5.614  15.009  0.00  0.00    +0.000 NA
ATOM     30  C   UNL     1       5.217   6.270  15.865  0.00  0.00    +0.000 A 
ENDBRANCH  23  25
ENDBRANCH   1  23
TORSDOF 5
ENDMDL
MODEL 3
REMARK VINA RESULT:      -9.5      1.735      2.364
REMARK  Name = 
REMARK  6 active torsions:
REMARK  status: ('A' for Active; 'I' for Inactive)
REMARK    1  A    between atoms: C_1  and  C_2
REMARK    2  A    between atoms: C_8  and  C_9
REMARK    3  A    between atoms: C_9  and  N_10
REMARK    4  A    between atoms: C_9  and  C_17
REMARK    5  A    between atoms: N_10  and  C_11
REMARK    6  A    between atoms: C_25  and  O_26
REMARK                            x       y       z     vdW  Elec       q    Type
REMARK                         _______ _______ _______ _____ _____    ______ ____
ROOT
ATOM      1  C   UNL     1       2.862   6.065  18.614  0.00  0.00    +0.000 C 
ENDROOT
BRANCH   1   9
ATOM      2  C   UNL     1       2.153  13.388  18.009  0.00  0.00    +0.000 C 
ATOM      3  C   UNL     1       1.721  12.137  18.713  0.00  0.00    +0.000 A 
ATOM      4  C   UNL     1       1.088  12.214  19.944  0.00  0.00    +0.000 A 
ATOM      5  C   UNL     1       0.800  11.038  20.613  0.00  0.00    +0.000 A 
ATOM      6  C   UNL     1       1.194   9.814  20.057  0.00  0.00    +0.000 A 
ATOM      7  C   UNL     1       0.999   8.640  20.784  0.00  0.00    +0.000 A 
ATOM      8  C   UNL     1       1.520   7.436  20.313  0.00  0.00    +0.000 A 
ATOM      9  C   UNL     1       2.172   7.360  19.073  0.00  0.00    +0.000 A 
ATOM     10  C   UNL     1       2.234   8.537  18.305  0.00  0.00    +0.000 A 
ATOM     11  C   UNL     1       1.820   9.798  18.796  0.00  0.00    +0.000 A 
ATOM     12  N   UNL     1       2.056  10.955  18.131  0.00  0.00    +0.000 NA
BRANCH  10  13
ATOM     13  O   UNL     1       2.706   8.459  17.015  0.00  0.00    +0.000 OA
ATOM     14  H   UNL     1       3.534   8.969  16.987  0.00  0.00    +0.000 HD
ENDBRANCH  10  13
ENDBRANCH   1   9
BRANCH   1  15
ATOM     15  C   UNL     1       2.490   4.865  19.494  0.00  0.00    +0.000 A 
ATOM     16  C   UNL     1       2.974   4.674  20.806  0.00  0.00    +0.000 A 
ATOM     17  C   UNL     1       2.426   3.692  21.635  0.00  0.00    +0.000 A 
ATOM     18  C   UNL     1       1.388   2.897  21.163  0.00  0.00    +0.000 A 
ATOM     19  F   UNL     1       0.824   2.002  21.983  0.00  0.00    +0.000 F 
ATOM     20  C   UNL     1       0.910   3.041  19.870  0.00  0.00    +0.000 A 
ATOM     21  C   UNL     1       1.465   4.015  19.048  0.00  0.00    +0.000 A 
ATOM     22  F   UNL     1       0.960   4.173  17.817  0.00  0.00    +0.000 F 
ENDBRANCH   1  15
BRANCH   1  23
ATOM     23  N   UNL     1       4.322   6.331  18.616  0.00  0.00    +0.000 N 
ATOM     24  H   UNL     1       4.715   6.215  19.545  0.00  0.00    +0.000 HD
BRANCH  23  25
ATOM     25  C   UNL     1       5.184   5.639  17.758  0.00  0.00    +0.000 A 
ATOM     26  C   UNL     1       4.781   5.452  16.428  0.00  0.00    +0.000 A 
ATOM     27  C   UNL     1       5.655   4.910  15.487  0.00  0.00    +0.000 A 
ATOM     28  C   UNL     1       6.938   4.597  15.896  0.00  0.00    +0.000 A 
ATOM     29  N   UNL     1       7.383   4.774  17.157  0.00  0.00    +0.000 NA
ATOM     30  C   UNL     1       6.502   5.295  18.047  0.00  0.00    +0.000 A 
ENDBRANCH  23  25
ENDBRANCH   1  23
TORSDOF 5
ENDMDL
MODEL 4
REMARK VINA RESULT:      -9.4      2.387      5.063
REMARK  Name = 
REMARK  6 active torsions:
REMARK  status: ('A' for Active; 'I' for Inactive)
REMARK    1  A    between atoms: C_1  and  C_2
REMARK    2  A    between atoms: C_8  and  C_9
REMARK    3  A    between atoms: C_9  and  N_10
REMARK    4  A    between atoms: C_9  and  C_17
REMARK    5  A    between atoms: N_10  and  C_11
REMARK    6  A    between atoms: C_25  and  O_26
REMARK                            x       y       z     vdW  Elec       q    Type
REMARK                         _______ _______ _______ _____ _____    ______ ____
ROOT
ATOM      1  C   UNL     1       4.231   4.703  18.153  0.00  0.00    +0.000 C 
ENDROOT
BRANCH   1   9
ATOM      2  C   UNL     1      -0.292   9.217  21.848  0.00  0.00    +0.000 C 
ATOM      3  C   UNL     1       0.618   9.037  20.671  0.00  0.00    +0.000 A 
ATOM      4  C   UNL     1       0.536   9.900  19.589  0.00  0.00    +0.000 A 
ATOM      5  C   UNL     1       1.315   9.639  18.476  0.00  0.00    +0.000 A 
ATOM      6  C   UNL     1       2.125   8.496  18.453  0.00  0.00    +0.000 A 
ATOM      7  C   UNL     1       2.827   8.180  17.291  0.00  0.00    +0.000 A 
ATOM      8  C   UNL     1       3.515   6.971  17.201  0.00  0.00    +0.000 A 
ATOM      9  C   UNL     1       3.588   6.092  18.292  0.00  0.00    +0.000 A 
ATOM     10  C   UNL     1       2.981   6.504  19.493  0.00  0.00    +0.000 A 
ATOM     11  C   UNL     1       2.179   7.667  19.589  0.00  0.00    +0.000 A 
ATOM     12  N   UNL     1       1.444   7.958  20.690  0.00  0.00    +0.000 NA
BRANCH  10  13
ATOM     13  O   UNL     1       3.185   5.752  20.627  0.00  0.00    +0.000 OA
ATOM     14  H   UNL     1       3.178   4.819  20.350  0.00  0.00    +0.000 HD
ENDBRANCH  10  13
ENDBRANCH   1   9
BRANCH   1  15
ATOM     15  C   UNL     1       5.189   4.622  16.958  0.00  0.00    +0.000 A 
ATOM     16  C   UNL     1       4.808   4.170  15.676  0.00  0.00    +0.000 A 
ATOM     17  C   UNL     1       5.657   4.334  14.579  0.00  0.00    +0.000 A 
ATOM     18  C   UNL     1       6.889   4.953  14.751  0.00  0.00    +0.000 A 
ATOM     19  F   UNL     1       7.670   5.165  13.685  0.00  0.00    +0.000 F 
ATOM     20  C   UNL     1       7.304   5.382  16.002  0.00  0.00    +0.000 A 
ATOM     21  C   UNL     1       6.457   5.209  17.091  0.00  0.00    +0.000 A 
ATOM     22  F   UNL     1       6.854   5.672  18.285  0.00  0.00    +0.000 F 
ENDBRANCH   1  15
BRANCH   1  23
ATOM     23  N   UNL     1       3.121   3.723  18.050  0.00  0.00    +0.000 N 
ATOM     24  H   UNL     1       3.393   2.917  17.495  0.00  0.00    +0.000 HD
BRANCH  23  25
ATOM     25  C   UNL     1       2.511   3.197  19.195  0.00  0.00    +0.000 A 
ATOM     26  C   UNL     1       3.337   2.717  20.221  0.00  0.00    +0.000 A 
ATOM     27  C   UNL     1       2.799   2.326  21.446  0.00  0.00    +0.000 A 
ATOM     28  C   UNL     1       1.435   2.459  21.629  0.00  0.00    +0.000 A 
ATOM     29  N   UNL     1       0.598   2.933  20.683  0.00  0.00    +0.000 NA
ATOM     30  C   UNL     1       1.156   3.294  19.501  0.00  0.00    +0.000 A 
ENDBRANCH  23  25
ENDBRANCH   1  23
TORSDOF 5
ENDMDL
MODEL 5
REMARK VINA RESULT:      -9.3      0.966      1.327
REMARK  Name = 
REMARK  6 active torsions:
REMARK  status: ('A' for Active; 'I' for Inactive)
REMARK    1  A    between atoms: C_1  and  C_2
REMARK    2  A    between atoms: C_8  and  C_9
REMARK    3  A    between atoms: C_9  and  N_10
REMARK    4  A    between atoms: C_9  and  C_17
REMARK    5  A    between atoms: N_10  and  C_11
REMARK    6  A    between atoms: C_25  and  O_26
REMARK                            x       y       z     vdW  Elec       q    Type
REMARK                         _______ _______ _______ _____ _____    ______ ____
ROOT
ATOM      1  C   UNL     1       3.194   5.928  17.751  0.00  0.00    +0.000 C 
ENDROOT
BRANCH   1   9
ATOM      2  C   UNL     1      -0.388   9.428  23.173  0.00  0.00    +0.000 C 
ATOM      3  C   UNL     1       0.235   9.522  21.813  0.00  0.00    +0.000 A 
ATOM      4  C   UNL     1      -0.089  10.573  20.970  0.00  0.00    +0.000 A 
ATOM      5  C   UNL     1       0.421  10.570  19.684  0.00  0.00    +0.000 A 
ATOM      6  C   UNL     1       1.207   9.491  19.257  0.00  0.00    +0.000 A 
ATOM      7  C   UNL     1       1.630   9.439  17.929  0.00  0.00    +0.000 A 
ATOM      8  C   UNL     1       2.281   8.303  17.451  0.00  0.00    +0.000 A 
ATOM      9  C   UNL     1       2.598   7.234  18.301  0.00  0.00    +0.000 A 
ATOM     10  C   UNL     1       2.275   7.376  19.664  0.00  0.00    +0.000 A 
ATOM     11  C   UNL     1       1.515   8.460  20.164  0.00  0.00    +0.000 A 
ATOM     12  N   UNL     1       1.045   8.498  21.435  0.00  0.00    +0.000 NA
BRANCH  10  13
ATOM     13  O   UNL     1       2.729   6.428  20.552  0.00  0.00    +0.000 OA
ATOM     14  H   UNL     1       3.076   6.909  21.324  0.00  0.00    +0.000 HD
ENDBRANCH  10  13
ENDBRANCH   1   9
BRANCH   1  15
ATOM     15  C   UNL     1       2.587   4.686  18.416  0.00  0.00    +0.000 A 
ATOM     16  C   UNL     1       1.325   4.152  18.076  0.00  0.00    +0.000 A 
ATOM     17  C   UNL     1       0.929   2.898  18.549  0.00  0.00    +0.000 A 
ATOM     18  C   UNL     1       1.788   2.168  19.360  0.00  0.00    +0.000 A 
ATOM     19  F   UNL     1       1.428   0.941  19.756  0.00  0.00    +0.000 F 
ATOM     20  C   UNL     1       3.021   2.677  19.735  0.00  0.00    +0.000 A 
ATOM     21  C   UNL     1       3.407   3.928  19.267  0.00  0.00    +0.000 A 
ATOM     22  F   UNL     1       4.622   4.385  19.601  0.00  0.00    +0.000 F 
ENDBRANCH   1  15
BRANCH   1  23
ATOM     23  N   UNL     1       4.663   6.008  17.948  0.00  0.00    +0.000 N 
ATOM     24  H   UNL     1       4.946   5.537  18.802  0.00  0.00    +0.000 HD
BRANCH  23  25
ATOM     25  C   UNL     1       5.550   5.557  16.964  0.00  0.00    +0.000 A 
ATOM     26  C   UNL     1       5.087   4.606  16.043  0.00  0.00    +0.000 A 
ATOM     27  C   UNL     1       5.866   4.233  14.950  0.00  0.00    +0.000 A 
ATOM     28  C   UNL     1       7.091   4.853  14.782  0.00  0.00    +0.000 A 
ATOM     29  N   UNL     1       7.575   5.787  15.626  0.00  0.00    +0.000 NA
ATOM     30  C   UNL     1       6.794   6.118  16.684  0.00  0.00    +0.000 A 
ENDBRANCH  23  25
ENDBRANCH   1  23
TORSDOF 5
ENDMDL
MODEL 6
REMARK VINA RESULT:      -9.2      1.892      2.581
REMARK  Name = 
REMARK  6 active torsions:
REMARK  status: ('A' for Active; 'I' for Inactive)
REMARK    1  A    between atoms: C_1  and  C_2
REMARK    2  A    between atoms: C_8  and  C_9
REMARK    3  A    between atoms: C_9  and  N_10
REMARK    4  A    between atoms: C_9  and  C_17
REMARK    5  A    between atoms: N_10  and  C_11
REMARK    6  A    between atoms: C_25  and  O_26
REMARK                            x       y       z     vdW  Elec       q    Type
REMARK                         _______ _______ _______ _____ _____    ______ ____
ROOT
ATOM      1  C   UNL     1       3.079   6.204  17.801  0.00  0.00    +0.000 C 
ENDROOT
BRANCH   1   9
ATOM      2  C   UNL     1       0.864  12.895  19.994  0.00  0.00    +0.000 C 
ATOM      3  C   UNL     1       0.852  11.419  20.256  0.00  0.00    +0.000 A 
ATOM      4  C   UNL     1       0.517  10.937  21.511  0.00  0.00    +0.000 A 
ATOM      5  C   UNL     1       0.622   9.577  21.745  0.00  0.00    +0.000 A 
ATOM      6  C   UNL     1       1.103   8.738  20.733  0.00  0.00    +0.000 A 
ATOM      7  C   UNL     1       1.309   7.386  21.007  0.00  0.00    +0.000 A 
ATOM      8  C   UNL     1       1.927   6.571  20.061  0.00  0.00    +0.000 A 
ATOM      9  C   UNL     1       2.278   7.062  18.795  0.00  0.00    +0.000 A 
ATOM     10  C   UNL     1       1.936   8.395  18.503  0.00  0.00    +0.000 A 
ATOM     11  C   UNL     1       1.412   9.284  19.473  0.00  0.00    +0.000 A 
ATOM     12  N   UNL     1       1.264  10.611  19.243  0.00  0.00    +0.000 NA
BRANCH  10  13
ATOM     13  O   UNL     1       2.104   8.853  17.217  0.00  0.00    +0.000 OA
ATOM     14  H   UNL     1       2.603   8.169  16.737  0.00  0.00    +0.000 HD
ENDBRANCH  10  13
ENDBRANCH   1   9
BRANCH   1  15
ATOM     15  C   UNL     1       3.034   4.712  18.155  0.00  0.00    +0.000 A 
ATOM     16  C   UNL     1       2.336   3.746  17.397  0.00  0.00    +0.000 A 
ATOM     17  C   UNL     1       2.520   2.382  17.635  0.00  0.00    +0.000 A 
ATOM     18  C   UNL     1       3.402   1.971  18.626  0.00  0.00    +0.000 A 
ATOM     19  F   UNL     1       3.622   0.663  18.806  0.00  0.00    +0.000 F 
ATOM     20  C   UNL     1       4.081   2.894  19.406  0.00  0.00    +0.000 A 
ATOM     21  C   UNL     1       3.889   4.250  19.169  0.00  0.00    +0.000 A 
ATOM     22  F   UNL     1       4.588   5.130  19.900  0.00  0.00    +0.000 F 
ENDBRANCH   1  15
BRANCH   1  23
ATOM     23  N   UNL     1       4.464   6.737  17.790  0.00  0.00    +0.000 N 
ATOM     24  H   UNL     1       4.884   6.687  18.712  0.00  0.00    +0.000 HD
BRANCH  23  25
ATOM     25  C   UNL     1       5.427   6.226  16.913  0.00  0.00    +0.000 A 
ATOM     26  C   UNL     1       6.535   5.564  17.463  0.00  0.00    +0.000 A 
ATOM     27  C   UNL     1       7.447   4.900  16.644  0.00  0.00    +0.000 A 
ATOM     28  C   UNL     1       7.208   4.885  15.283  0.00  0.00    +0.000 A 
ATOM     29  N   UNL     1       6.150   5.488  14.704  0.00  0.00    +0.000 NA
ATOM     30  C   UNL     1       5.288   6.132  15.530  0.00  0.00    +0.000 A 
ENDBRANCH  23  25
ENDBRANCH   1  23
TORSDOF 5
ENDMDL
MODEL 7
REMARK VINA RESULT:      -9.0      4.020      8.284
REMARK  Name = 
REMARK  6 active torsions:
REMARK  status: ('A' for Active; 'I' for Inactive)
REMARK    1  A    between atoms: C_1  and  C_2
REMARK    2  A    between atoms: C_8  and  C_9
REMARK    3  A    between atoms: C_9  and  N_10
REMARK    4  A    between atoms: C_9  and  C_17
REMARK    5  A    between atoms: N_10  and  C_11
REMARK    6  A    between atoms: C_25  and  O_26
REMARK                            x       y       z     vdW  Elec       q    Type
REMARK                         _______ _______ _______ _____ _____    ______ ____
ROOT
ATOM      1  C   UNL     1       0.233  10.774  18.836  0.00  0.00    +0.000 C 
ENDROOT
BRANCH   1   9
ATOM      2  C   UNL     1       3.850   4.537  17.255  0.00  0.00    +0.000 C 
ATOM      3  C   UNL     1       3.297   5.434  18.322  0.00  0.00    +0.000 A 
ATOM      4  C   UNL     1       3.092   4.947  19.603  0.00  0.00    +0.000 A 
ATOM      5  C   UNL     1       2.480   5.770  20.532  0.00  0.00    +0.000 A 
ATOM      6  C   UNL     1       2.047   7.044  20.145  0.00  0.00    +0.000 A 
ATOM      7  C   UNL     1       1.336   7.828  21.052  0.00  0.00    +0.000 A 
ATOM      8  C   UNL     1       0.768   9.032  20.637  0.00  0.00    +0.000 A 
ATOM      9  C   UNL     1       0.965   9.519  19.336  0.00  0.00    +0.000 A 
ATOM     10  C   UNL     1       1.798   8.767  18.486  0.00  0.00    +0.000 A 
ATOM     11  C   UNL     1       2.298   7.489  18.833  0.00  0.00    +0.000 A 
ATOM     12  N   UNL     1       2.937   6.689  17.946  0.00  0.00    +0.000 NA
BRANCH  10  13
ATOM     13  O   UNL     1       2.155   9.303  17.270  0.00  0.00    +0.000 OA
ATOM     14  H   UNL     1       3.048   9.675  17.377  0.00  0.00    +0.000 HD
ENDBRANCH  10  13
ENDBRANCH   1   9
BRANCH   1  15
ATOM     15  C   UNL     1       0.646  12.034  19.608  0.00  0.00    +0.000 A 
ATOM     16  C   UNL     1      -0.057  12.536  20.725  0.00  0.00    +0.000 A 
ATOM     17  C   UNL     1       0.492  13.545  21.520  0.00  0.00    +0.000 A 
ATOM     18  C   UNL     1       1.746  14.058  21.210  0.00  0.00    +0.000 A 
ATOM     19  F   UNL     1       2.293  14.979  22.012  0.00  0.00    +0.000 F 
ATOM     20  C   UNL     1       2.448  13.607  20.104  0.00  0.00    +0.000 A 
ATOM     21  C   UNL     1       1.893  12.607  19.312  0.00  0.00    +0.000 A 
ATOM     22  F   UNL     1       2.606  12.148  18.274  0.00  0.00    +0.000 F 
ENDBRANCH   1  15
BRANCH   1  23
ATOM     23  N   UNL     1      -1.221  10.499  18.949  0.00  0.00    +0.000 N 
ATOM     24  H   UNL     1      -1.636  11.021  19.715  0.00  0.00    +0.000 HD
BRANCH  23  25
ATOM     25  C   UNL     1      -2.080  10.690  17.861  0.00  0.00    +0.000 A 
ATOM     26  C   UNL     1      -1.930   9.851  16.747  0.00  0.00    +0.000 A 
ATOM     27  C   UNL     1      -2.849   9.887  15.699  0.00  0.00    +0.000 A 
ATOM     28  C   UNL     1      -3.926  10.747  15.807  0.00  0.00    +0.000 A 
ATOM     29  N   UNL     1      -4.128  11.561  16.864  0.00  0.00    +0.000 NA
ATOM     30  C   UNL     1      -3.209  11.506  17.860  0.00  0.00    +0.000 A 
ENDBRANCH  23  25
ENDBRANCH   1  23
TORSDOF 5
ENDMDL
MODEL 8
REMARK VINA RESULT:      -8.9      1.812      2.527
REMARK  Name = 
REMARK  6 active torsions:
REMARK  status: ('A' for Active; 'I' for Inactive)
REMARK    1  A    between atoms: C_1  and  C_2
REMARK    2  A    between atoms: C_8  and  C_9
REMARK    3  A    between atoms: C_9  and  N_10
REMARK    4  A    between atoms: C_9  and  C_17
REMARK    5  A    between atoms: N_10  and  C_11
REMARK    6  A    between atoms: C_25  and  O_26
REMARK                            x       y       z     vdW  Elec       q    Type
REMARK                         _______ _______ _______ _____ _____    ______ ____
ROOT
ATOM      1  C   UNL     1       3.007   6.299  18.470  0.00  0.00    +0.000 C 
ENDROOT
BRANCH   1   9
ATOM      2  C   UNL     1       0.887  13.362  18.783  0.00  0.00    +0.000 C 
ATOM      3  C   UNL     1       0.835  12.004  19.418  0.00  0.00    +0.000 A 
ATOM      4  C   UNL     1       0.457  11.870  20.745  0.00  0.00    +0.000 A 
ATOM      5  C   UNL     1       0.525  10.617  21.327  0.00  0.00    +0.000 A 
ATOM      6  C   UNL     1       1.013   9.536  20.582  0.00  0.00    +0.000 A 
ATOM      7  C   UNL     1       1.181   8.299  21.203  0.00  0.00    +0.000 A 
ATOM      8  C   UNL     1       1.806   7.257  20.521  0.00  0.00    +0.000 A 
ATOM      9  C   UNL     1       2.201   7.397  19.182  0.00  0.00    +0.000 A 
ATOM     10  C   UNL     1       1.896   8.614  18.544  0.00  0.00    +0.000 A 
ATOM     11  C   UNL     1       1.368   9.731  19.234  0.00  0.00    +0.000 A 
ATOM     12  N   UNL     1       1.255  10.955  18.663  0.00  0.00    +0.000 NA
BRANCH  10  13
ATOM     13  O   UNL     1       2.108   8.719  17.189  0.00  0.00    +0.000 OA
ATOM     14  H   UNL     1       1.515   8.077  16.761  0.00  0.00    +0.000 HD
ENDBRANCH  10  13
ENDBRANCH   1   9
BRANCH   1  15
ATOM     15  C   UNL     1       2.430   4.899  18.721  0.00  0.00    +0.000 A 
ATOM     16  C   UNL     1       1.539   4.595  19.772  0.00  0.00    +0.000 A 
ATOM     17  C   UNL     1       0.874   3.367  19.812  0.00  0.00    +0.000 A 
ATOM     18  C   UNL     1       1.089   2.436  18.803  0.00  0.00    +0.000 A 
ATOM     19  F   UNL     1       0.400   1.289  18.813  0.00  0.00    +0.000 F 
ATOM     20  C   UNL     1       1.979   2.694  17.773  0.00  0.00    +0.000 A 
ATOM     21  C   UNL     1       2.643   3.915  17.742  0.00  0.00    +0.000 A 
ATOM     22  F   UNL     1       3.465   4.167  16.714  0.00  0.00    +0.000 F 
ENDBRANCH   1  15
BRANCH   1  23
ATOM     23  N   UNL     1       4.409   6.419  18.941  0.00  0.00    +0.000 N 
ATOM     24  H   UNL     1       4.559   5.887  19.792  0.00  0.00    +0.000 HD
BRANCH  23  25
ATOM     25  C   UNL     1       5.483   6.094  18.105  0.00  0.00    +0.000 A 
ATOM     26  C   UNL     1       6.352   5.072  18.514  0.00  0.00    +0.000 A 
ATOM     27  C   UNL     1       7.346   4.596  17.660  0.00  0.00    +0.000 A 
ATOM     28  C   UNL     1       7.425   5.136  16.390  0.00  0.00    +0.000 A 
ATOM     29  N   UNL     1       6.603   6.106  15.939  0.00  0.00    +0.000 NA
ATOM     30  C   UNL     1       5.655   6.551  16.800  0.00  0.00    +0.000 A 
ENDBRANCH  23  25
ENDBRANCH   1  23
TORSDOF 5
ENDMDL
MODEL 9
REMARK VINA RESULT:      -8.9      1.124      1.261
REMARK  Name = 
REMARK  6 active torsions:
REMARK  status: ('A' for Active; 'I' for Inactive)
REMARK    1  A    between atoms: C_1  and  C_2
REMARK    2  A    between atoms: C_8  and  C_9
REMARK    3  A    between atoms: C_9  and  N_10
REMARK    4  A    between atoms: C_9  and  C_17
REMARK    5  A    between atoms: N_10  and  C_11
REMARK    6  A    between atoms: C_25  and  O_26
REMARK                            x       y       z     vdW  Elec       q    Type
REMARK                         _______ _______ _______ _____ _____    ______ ____
ROOT
ATOM      1  C   UNL     1       2.970   6.463  18.159  0.00  0.00    +0.000 C 
ENDROOT
BRANCH   1   9
ATOM      2  C   UNL     1      -0.895  10.296  23.145  0.00  0.00    +0.000 C 
ATOM      3  C   UNL     1      -0.364  10.233  21.744  0.00  0.00    +0.000 A 
ATOM      4  C   UNL     1      -0.905  11.042  20.757  0.00  0.00    +0.000 A 
ATOM      5  C   UNL     1      -0.464  10.879  19.456  0.00  0.00    +0.000 A 
ATOM      6  C   UNL     1       0.474   9.880  19.165  0.00  0.00    +0.000 A 
ATOM      7  C   UNL     1       0.834   9.648  17.838  0.00  0.00    +0.000 A 
ATOM      8  C   UNL     1       1.648   8.562  17.518  0.00  0.00    +0.000 A 
ATOM      9  C   UNL     1       2.185   7.736  18.516  0.00  0.00    +0.000 A 
ATOM     10  C   UNL     1       1.909   8.078  19.853  0.00  0.00    +0.000 A 
ATOM     11  C   UNL     1       0.998   9.100  20.213  0.00  0.00    +0.000 A 
ATOM     12  N   UNL     1       0.590   9.299  21.490  0.00  0.00    +0.000 NA
BRANCH  10  13
ATOM     13  O   UNL     1       2.562   7.398  20.856  0.00  0.00    +0.000 OA
ATOM     14  H   UNL     1       3.066   8.059  21.362  0.00  0.00    +0.000 HD
ENDBRANCH  10  13
ENDBRANCH   1   9
BRANCH   1  15
ATOM     15  C   UNL     1       2.525   5.254  18.992  0.00  0.00    +0.000 A 
ATOM     16  C   UNL     1       2.989   4.988  20.299  0.00  0.00    +0.000 A 
ATOM     17  C   UNL     1       2.381   4.008  21.087  0.00  0.00    +0.000 A 
ATOM     18  C   UNL     1       1.304   3.290  20.581  0.00  0.00    +0.000 A 
ATOM     19  F   UNL     1       0.685   2.399  21.365  0.00  0.00    +0.000 F 
ATOM     20  C   UNL     1       0.844   3.508  19.292  0.00  0.00    +0.000 A 
ATOM     21  C   UNL     1       1.458   4.480  18.510  0.00  0.00    +0.000 A 
ATOM     22  F   UNL     1       0.971   4.710  17.283  0.00  0.00    +0.000 F 
ENDBRANCH   1  15
BRANCH   1  23
ATOM     23  N   UNL     1       4.408   6.776  18.348  0.00  0.00    +0.000 N 
ATOM     24  H   UNL     1       4.623   6.941  19.327  0.00  0.00    +0.000 HD
BRANCH  23  25
ATOM     25  C   UNL     1       5.403   5.906  17.890  0.00  0.00    +0.000 A 
ATOM     26  C   UNL     1       5.596   5.794  16.506  0.00  0.00    +0.000 A 
ATOM     27  C   UNL     1       6.668   5.066  15.991  0.00  0.00    +0.000 A 
ATOM     28  C   UNL     1       7.551   4.490  16.885  0.00  0.00    +0.000 A 
ATOM     29  N   UNL     1       7.424   4.582  18.225  0.00  0.00    +0.000 NA
ATOM     30  C   UNL     1       6.364   5.290  18.689  0.00  0.00    +0.000 A 
ENDBRANCH  23  25
ENDBRANCH   1  23
TORSDOF 5
ENDMDL
