MODEL 1
REMARK VINA RESULT:      -7.5      0.000      0.000
REMARK  Name = 
REMARK  5 active torsions:
REMARK  status: ('A' for Active; 'I' for Inactive)
REMARK    1  A    between atoms: C_1  and  C_2
REMARK    2  A    between atoms: N_5  and  S_6
REMARK    3  A    between atoms: S_6  and  C_9
REMARK    4  A    between atoms: N_13  and  C_14
REMARK    5  A    between atoms: C_14  and  C_15
REMARK                            x       y       z     vdW  Elec       q    Type
REMARK                         _______ _______ _______ _____ _____    ______ ____
ROOT
ATOM      1  C   UNL     1       2.212   7.623  19.172  0.00  0.00    +0.000 A 
ATOM      2  C   UNL     1       2.430   8.262  18.009  0.00  0.00    +0.000 A 
ATOM      3  C   UNL     1       1.886   9.579  17.787  0.00  0.00    +0.000 A 
ATOM      4  C   UNL     1       1.033  10.098  18.677  0.00  0.00    +0.000 A 
ATOM      5  N   UNL     1       0.786   9.454  19.877  0.00  0.00    +0.000 N 
ATOM      6  C   UNL     1       1.481   8.301  20.259  0.00  0.00    +0.000 A 
ATOM      7  O   UNL     1       1.489   7.876  21.409  0.00  0.00    +0.000 OA
ENDROOT
BRANCH   1   8
ATOM      8  S   UNL     1       2.637   5.963  19.350  0.00  0.00    +0.000 S 
ATOM      9  O   UNL     1       1.653   5.346  20.225  0.00  0.00    +0.000 OA
ATOM     10  O   UNL     1       4.029   5.866  19.735  0.00  0.00    +0.000 OA
BRANCH   8  15
ATOM     11  C   UNL     1       3.718   1.172  18.677  0.00  0.00    +0.000 C 
ATOM     12  C   UNL     1       3.241   2.342  17.826  0.00  0.00    +0.000 C 
ATOM     13  C   UNL     1       4.297   3.465  17.808  0.00  0.00    +0.000 C 
ATOM     14  C   UNL     1       3.770   4.766  17.205  0.00  0.00    +0.000 C 
ATOM     15  N   UNL     1       2.489   5.170  17.844  0.00  0.00    +0.000 NA
ATOM     16  C   UNL     1       1.454   4.133  17.678  0.00  0.00    +0.000 C 
ATOM     17  C   UNL     1       1.875   2.832  18.335  0.00  0.00    +0.000 C 
ENDBRANCH   8  15
ENDBRANCH   1   8
BRANCH   5  18
ATOM     18  C   UNL     1      -0.121  10.050  20.853  0.00  0.00    +0.000 C 
BRANCH  18  19
ATOM     19  C   UNL     1       0.168  11.527  21.140  0.00  0.00    +0.000 C 
ATOM     20  O   UNL     1       1.270  11.918  21.529  0.00  0.00    +0.000 OA
ATOM     21  N   UNL     1      -0.881  12.408  20.915  0.00  0.00    +0.000 N 
ATOM     22  C   UNL     1      -0.725  13.815  21.282  0.00  0.00    +0.000 C 
ATOM     23  C   UNL     1      -2.071  14.413  21.709  0.00  0.00    +0.000 C 
ATOM     24  O   UNL     1      -3.085  14.198  20.712  0.00  0.00    +0.000 OA
ATOM     25  C   UNL     1      -3.269  12.796  20.465  0.00  0.00    +0.000 C 
ATOM     26  C   UNL     1      -1.972  12.161  19.968  0.00  0.00    +0.000 C 
ENDBRANCH  18  19
ENDBRANCH   5  18
TORSDOF 4
ENDMDL
MODEL 2
REMARK VINA RESULT:      -7.3      1.083      1.324
REMARK  Name = 
REMARK  5 active torsions:
REMARK  status: ('A' for Active; 'I' for Inactive)
REMARK    1  A    between atoms: C_1  and  C_2
REMARK    2  A    between atoms: N_5  and  S_6
REMARK    3  A    between atoms: S_6  and  C_9
REMARK    4  A    between atoms: N_13  and  C_14
REMARK    5  A    between atoms: C_14  and  C_15
REMARK                            x       y       z     vdW  Elec       q    Type
REMARK                         _______ _______ _______ _____ _____    ______ ____
ROOT
ATOM      1  C   UNL     1       2.441   7.632  18.821  0.00  0.00    +0.000 A 
ATOM      2  C   UNL     1       2.671   8.509  17.828  0.00  0.00    +0.000 A 
ATOM      3  C   UNL     1       1.968   9.768  17.787  0.00  0.00    +0.000 A 
ATOM      4  C   UNL     1       0.973   9.993  18.651  0.00  0.00    +0.000 A 
ATOM      5  N   UNL     1       0.711   9.102  19.676  0.00  0.00    +0.000 N 
ATOM      6  C   UNL     1       1.525   7.990  19.920  0.00  0.00    +0.000 A 
ATOM      7  O   UNL     1       1.488   7.352  20.966  0.00  0.00    +0.000 OA
ENDROOT
BRANCH   1   8
ATOM      8  S   UNL     1       3.080   6.035  18.742  0.00  0.00    +0.000 S 
ATOM      9  O   UNL     1       3.916   5.833  19.915  0.00  0.00    +0.000 OA
ATOM     10  O   UNL     1       3.688   5.828  17.445  0.00  0.00    +0.000 OA
BRANCH   8  15
ATOM     11  C   UNL     1       3.763   1.129  18.514  0.00  0.00    +0.000 C 
ATOM     12  C   UNL     1       2.591   2.091  18.667  0.00  0.00    +0.000 C 
ATOM     13  C   UNL     1       2.462   2.992  17.424  0.00  0.00    +0.000 C 
ATOM     14  C   UNL     1       1.489   4.151  17.629  0.00  0.00    +0.000 C 
ATOM     15  N   UNL     1       1.807   4.903  18.872  0.00  0.00    +0.000 NA
ATOM     16  C   UNL     1       1.741   4.030  20.060  0.00  0.00    +0.000 C 
ATOM     17  C   UNL     1       2.750   2.902  19.965  0.00  0.00    +0.000 C 
ENDBRANCH   8  15
ENDBRANCH   1   8
BRANCH   5  18
ATOM     18  C   UNL     1      -0.358   9.380  20.631  0.00  0.00    +0.000 C 
BRANCH  18  19
ATOM     19  C   UNL     1      -0.044  10.536  21.587  0.00  0.00    +0.000 C 
ATOM     20  O   UNL     1       0.898  10.496  22.380  0.00  0.00    +0.000 OA
ATOM     21  N   UNL     1      -0.872  11.646  21.491  0.00  0.00    +0.000 N 
ATOM     22  C   UNL     1      -0.716  12.739  22.450  0.00  0.00    +0.000 C 
ATOM     23  C   UNL     1      -2.066  13.415  22.720  0.00  0.00    +0.000 C 
ATOM     24  O   UNL     1      -2.706  13.822  21.499  0.00  0.00    +0.000 OA
ATOM     25  C   UNL     1      -2.928  12.695  20.638  0.00  0.00    +0.000 C 
ATOM     26  C   UNL     1      -1.604  12.022  20.279  0.00  0.00    +0.000 C 
ENDBRANCH  18  19
ENDBRANCH   5  18
TORSDOF 4
ENDMDL
MODEL 3
REMARK VINA RESULT:      -7.2      5.839      9.009
REMARK  Name = 
REMARK  5 active torsions:
REMARK  status: ('A' for Active; 'I' for Inactive)
REMARK    1  A    between atoms: C_1  and  C_2
REMARK    2  A    between atoms: N_5  and  S_6
REMARK    3  A    between atoms: S_6  and  C_9
REMARK    4  A    between atoms: N_13  and  C_14
REMARK    5  A    between atoms: C_14  and  C_15
REMARK                            x       y       z     vdW  Elec       q    Type
REMARK                         _______ _______ _______ _____ _____    ______ ____
ROOT
ATOM      1  C   UNL     1       4.443   3.744  18.766  0.00  0.00    +0.000 A 
ATOM      2  C   UNL     1       5.108   4.490  19.665  0.00  0.00    +0.000 A 
ATOM      3  C   UNL     1       5.746   5.720  19.266  0.00  0.00    +0.000 A 
ATOM      4  C   UNL     1       5.807   6.037  17.968  0.00  0.00    +0.000 A 
ATOM      5  N   UNL     1       5.139   5.281  17.023  0.00  0.00    +0.000 N 
ATOM      6  C   UNL     1       4.293   4.224  17.379  0.00  0.00    +0.000 A 
ATOM      7  O   UNL     1       3.484   3.724  16.605  0.00  0.00    +0.000 OA
ENDROOT
BRANCH   1   8
ATOM      8  S   UNL     1       3.900   2.161  19.174  0.00  0.00    +0.000 S 
ATOM      9  O   UNL     1       4.739   1.670  20.256  0.00  0.00    +0.000 OA
ATOM     10  O   UNL     1       3.825   1.359  17.971  0.00  0.00    +0.000 OA
BRANCH   8  15
ATOM     11  C   UNL     1       1.757   6.396  20.605  0.00  0.00    +0.000 C 
ATOM     12  C   UNL     1       1.397   4.916  20.567  0.00  0.00    +0.000 C 
ATOM     13  C   UNL     1       2.355   4.102  21.458  0.00  0.00    +0.000 C 
ATOM     14  C   UNL     1       2.222   2.594  21.250  0.00  0.00    +0.000 C 
ATOM     15  N   UNL     1       2.317   2.244  19.808  0.00  0.00    +0.000 NA
ATOM     16  C   UNL     1       1.263   2.912  19.022  0.00  0.00    +0.000 C 
ATOM     17  C   UNL     1       1.390   4.421  19.110  0.00  0.00    +0.000 C 
ENDBRANCH   8  15
ENDBRANCH   1   8
BRANCH   5  18
ATOM     18  C   UNL     1       5.188   5.660  15.614  0.00  0.00    +0.000 C 
BRANCH  18  19
ATOM     19  C   UNL     1       6.470   5.217  14.902  0.00  0.00    +0.000 C 
ATOM     20  O   UNL     1       7.589   5.567  15.283  0.00  0.00    +0.000 OA
ATOM     21  N   UNL     1       6.301   4.377  13.810  0.00  0.00    +0.000 N 
ATOM     22  C   UNL     1       7.463   4.010  13.003  0.00  0.00    +0.000 C 
ATOM     23  C   UNL     1       7.059   3.801  11.538  0.00  0.00    +0.000 C 
ATOM     24  O   UNL     1       5.970   2.869  11.419  0.00  0.00    +0.000 OA
ATOM     25  C   UNL     1       4.821   3.329  12.146  0.00  0.00    +0.000 C 
ATOM     26  C   UNL     1       5.150   3.487  13.629  0.00  0.00    +0.000 C 
ENDBRANCH  18  19
ENDBRANCH   5  18
TORSDOF 4
ENDMDL
MODEL 4
REMARK VINA RESULT:      -7.1      1.960      3.015
REMARK  Name = 
REMARK  5 active torsions:
REMARK  status: ('A' for Active; 'I' for Inactive)
REMARK    1  A    between atoms: C_1  and  C_2
REMARK    2  A    between atoms: N_5  and  S_6
REMARK    3  A    between atoms: S_6  and  C_9
REMARK    4  A    between atoms: N_13  and  C_14
REMARK    5  A    between atoms: C_14  and  C_15
REMARK                            x       y       z     vdW  Elec       q    Type
REMARK                         _______ _______ _______ _____ _____    ______ ____
ROOT
ATOM      1  C   UNL     1       2.142   5.610  18.837  0.00  0.00    +0.000 A 
ATOM      2  C   UNL     1       2.427   6.353  17.754  0.00  0.00    +0.000 A 
ATOM      3  C   UNL     1       2.520   7.789  17.857  0.00  0.00    +0.000 A 
ATOM      4  C   UNL     1       2.167   8.390  18.998  0.00  0.00    +0.000 A 
ATOM      5  N   UNL     1       1.860   7.647  20.123  0.00  0.00    +0.000 N 
ATOM      6  C   UNL     1       2.002   6.255  20.156  0.00  0.00    +0.000 A 
ATOM      7  O   UNL     1       2.009   5.608  21.198  0.00  0.00    +0.000 OA
ENDROOT
BRANCH   1   8
ATOM      8  S   UNL     1       1.781   3.933  18.676  0.00  0.00    +0.000 S 
ATOM      9  O   UNL     1       1.225   3.726  17.348  0.00  0.00    +0.000 OA
ATOM     10  O   UNL     1       0.986   3.507  19.808  0.00  0.00    +0.000 OA
BRANCH   8  15
ATOM     11  C   UNL     1       6.181   5.754  17.295  0.00  0.00    +0.000 C 
ATOM     12  C   UNL     1       5.628   4.431  17.810  0.00  0.00    +0.000 C 
ATOM     13  C   UNL     1       4.596   3.852  16.822  0.00  0.00    +0.000 C 
ATOM     14  C   UNL     1       3.811   2.679  17.403  0.00  0.00    +0.000 C 
ATOM     15  N   UNL     1       3.228   3.029  18.726  0.00  0.00    +0.000 NA
ATOM     16  C   UNL     1       4.277   3.405  19.692  0.00  0.00    +0.000 C 
ATOM     17  C   UNL     1       5.043   4.625  19.219  0.00  0.00    +0.000 C 
ENDBRANCH   8  15
ENDBRANCH   1   8
BRANCH   5  18
ATOM     18  C   UNL     1       1.509   8.320  21.371  0.00  0.00    +0.000 C 
BRANCH  18  19
ATOM     19  C   UNL     1       0.101   8.925  21.368  0.00  0.00    +0.000 C 
ATOM     20  O   UNL     1      -0.889   8.290  21.734  0.00  0.00    +0.000 OA
ATOM     21  N   UNL     1       0.008  10.246  20.950  0.00  0.00    +0.000 N 
ATOM     22  C   UNL     1      -1.312  10.857  20.802  0.00  0.00    +0.000 C 
ATOM     23  C   UNL     1      -1.301  11.897  19.674  0.00  0.00    +0.000 C 
ATOM     24  O   UNL     1      -0.249  12.860  19.854  0.00  0.00    +0.000 OA
ATOM     25  C   UNL     1       1.034  12.216  19.890  0.00  0.00    +0.000 C 
ATOM     26  C   UNL     1       1.102  11.216  21.043  0.00  0.00    +0.000 C 
ENDBRANCH  18  19
ENDBRANCH   5  18
TORSDOF 4
ENDMDL
MODEL 5
REMARK VINA RESULT:      -7.1      1.341      1.840
REMARK  Name = 
REMARK  5 active torsions:
REMARK  status: ('A' for Active; 'I' for Inactive)
REMARK    1  A    between atoms: C_1  and  C_2
REMARK    2  A    between atoms: N_5  and  S_6
REMARK    3  A    between atoms: S_6  and  C_9
REMARK    4  A    between atoms: N_13  and  C_14
REMARK    5  A    between atoms: C_14  and  C_15
REMARK                            x       y       z     vdW  Elec       q    Type
REMARK                         _______ _______ _______ _____ _____    ______ ____
ROOT
ATOM      1  C   UNL     1       2.226   7.588  19.166  0.00  0.00    +0.000 A 
ATOM      2  C   UNL     1       2.546   8.200  18.013  0.00  0.00    +0.000 A 
ATOM      3  C   UNL     1       2.089   9.542  17.747  0.00  0.00    +0.000 A 
ATOM      4  C   UNL     1       1.216  10.116  18.580  0.00  0.00    +0.000 A 
ATOM      5  N   UNL     1       0.863   9.502  19.769  0.00  0.00    +0.000 N 
ATOM      6  C   UNL     1       1.471   8.318  20.202  0.00  0.00    +0.000 A 
ATOM      7  O   UNL     1       1.388   7.906  21.354  0.00  0.00    +0.000 OA
ENDROOT
BRANCH   1   8
ATOM      8  S   UNL     1       2.548   5.910  19.383  0.00  0.00    +0.000 S 
ATOM      9  O   UNL     1       1.490   5.360  20.217  0.00  0.00    +0.000 OA
ATOM     10  O   UNL     1       3.913   5.741  19.837  0.00  0.00    +0.000 OA
BRANCH   8  15
ATOM     11  C   UNL     1       3.734   1.138  18.748  0.00  0.00    +0.000 C 
ATOM     12  C   UNL     1       3.240   2.293  17.887  0.00  0.00    +0.000 C 
ATOM     13  C   UNL     1       4.272   3.438  17.869  0.00  0.00    +0.000 C 
ATOM     14  C   UNL     1       3.723   4.723  17.255  0.00  0.00    +0.000 C 
ATOM     15  N   UNL     1       2.429   5.105  17.882  0.00  0.00    +0.000 NA
ATOM     16  C   UNL     1       1.417   4.045  17.714  0.00  0.00    +0.000 C 
ATOM     17  C   UNL     1       1.859   2.757  18.382  0.00  0.00    +0.000 C 
ENDBRANCH   8  15
ENDBRANCH   1   8
BRANCH   5  18
ATOM     18  C   UNL     1      -0.066  10.158  20.684  0.00  0.00    +0.000 C 
BRANCH  18  19
ATOM     19  C   UNL     1      -0.825  11.330  20.054  0.00  0.00    +0.000 C 
ATOM     20  O   UNL     1      -1.908  11.183  19.485  0.00  0.00    +0.000 OA
ATOM     21  N   UNL     1      -0.232  12.579  20.183  0.00  0.00    +0.000 N 
ATOM     22  C   UNL     1      -0.830  13.728  19.505  0.00  0.00    +0.000 C 
ATOM     23  C   UNL     1       0.253  14.732  19.091  0.00  0.00    +0.000 C 
ATOM     24  O   UNL     1       1.084  15.103  20.204  0.00  0.00    +0.000 OA
ATOM     25  C   UNL     1       1.727  13.950  20.768  0.00  0.00    +0.000 C 
ATOM     26  C   UNL     1       0.690  12.943  21.262  0.00  0.00    +0.000 C 
ENDBRANCH  18  19
ENDBRANCH   5  18
TORSDOF 4
ENDMDL
MODEL 6
REMARK VINA RESULT:      -7.1      1.643      2.268
REMARK  Name = 
REMARK  5 active torsions:
REMARK  status: ('A' for Active; 'I' for Inactive)
REMARK    1  A    between atoms: C_1  and  C_2
REMARK    2  A    between atoms: N_5  and  S_6
REMARK    3  A    between atoms: S_6  and  C_9
REMARK    4  A    between atoms: N_13  and  C_14
REMARK    5  A    between atoms: C_14  and  C_15
REMARK                            x       y       z     vdW  Elec       q    Type
REMARK                         _______ _______ _______ _____ _____    ______ ____
ROOT
ATOM      1  C   UNL     1       2.605   7.036  19.119  0.00  0.00    +0.000 A 
ATOM      2  C   UNL     1       2.119   6.832  20.355  0.00  0.00    +0.000 A 
ATOM      3  C   UNL     1       1.244   7.803  20.966  0.00  0.00    +0.000 A 
ATOM      4  C   UNL     1       1.045   8.979  20.363  0.00  0.00    +0.000 A 
ATOM      5  N   UNL     1       1.542   9.217  19.094  0.00  0.00    +0.000 N 
ATOM      6  C   UNL     1       2.180   8.220  18.347  0.00  0.00    +0.000 A 
ATOM      7  O   UNL     1       2.378   8.312  17.141  0.00  0.00    +0.000 OA
ENDROOT
BRANCH   1   8
ATOM      8  S   UNL     1       3.841   6.017  18.486  0.00  0.00    +0.000 S 
ATOM      9  O   UNL     1       4.653   5.560  19.603  0.00  0.00    +0.000 OA
ATOM     10  O   UNL     1       4.517   6.703  17.405  0.00  0.00    +0.000 OA
BRANCH   8  15
ATOM     11  C   UNL     1       1.654   2.492  21.201  0.00  0.00    +0.000 C 
ATOM     12  C   UNL     1       1.960   2.745  19.730  0.00  0.00    +0.000 C 
ATOM     13  C   UNL     1       3.481   2.820  19.497  0.00  0.00    +0.000 C 
ATOM     14  C   UNL     1       3.844   3.339  18.107  0.00  0.00    +0.000 C 
ATOM     15  N   UNL     1       3.137   4.615  17.812  0.00  0.00    +0.000 NA
ATOM     16  C   UNL     1       1.674   4.445  17.873  0.00  0.00    +0.000 C 
ATOM     17  C   UNL     1       1.231   4.015  19.259  0.00  0.00    +0.000 C 
ENDBRANCH   8  15
ENDBRANCH   1   8
BRANCH   5  18
ATOM     18  C   UNL     1       1.287  10.494  18.436  0.00  0.00    +0.000 C 
BRANCH  18  19
ATOM     19  C   UNL     1       0.835  11.602  19.394  0.00  0.00    +0.000 C 
ATOM     20  O   UNL     1       1.621  12.182  20.145  0.00  0.00    +0.000 OA
ATOM     21  N   UNL     1      -0.512  11.931  19.352  0.00  0.00    +0.000 N 
ATOM     22  C   UNL     1      -1.045  12.888  20.320  0.00  0.00    +0.000 C 
ATOM     23  C   UNL     1      -2.504  12.558  20.659  0.00  0.00    +0.000 C 
ATOM     24  O   UNL     1      -3.309  12.445  19.473  0.00  0.00    +0.000 OA
ATOM     25  C   UNL     1      -2.801  11.420  18.606  0.00  0.00    +0.000 C 
ATOM     26  C   UNL     1      -1.369  11.737  18.179  0.00  0.00    +0.000 C 
ENDBRANCH  18  19
ENDBRANCH   5  18
TORSDOF 4
ENDMDL
MODEL 7
REMARK VINA RESULT:      -7.1      2.670      8.656
REMARK  Name = 
REMARK  5 active torsions:
REMARK  status: ('A' for Active; 'I' for Inactive)
REMARK    1  A    between atoms: C_1  and  C_2
REMARK    2  A    between atoms: N_5  and  S_6
REMARK    3  A    between atoms: S_6  and  C_9
REMARK    4  A    between atoms: N_13  and  C_14
REMARK    5  A    between atoms: C_14  and  C_15
REMARK                            x       y       z     vdW  Elec       q    Type
REMARK                         _______ _______ _______ _____ _____    ______ ____
ROOT
ATOM      1  C   UNL     1       1.628   8.653  19.262  0.00  0.00    +0.000 A 
ATOM      2  C   UNL     1       1.390   8.209  20.508  0.00  0.00    +0.000 A 
ATOM      3  C   UNL     1       1.791   6.880  20.899  0.00  0.00    +0.000 A 
ATOM      4  C   UNL     1       2.257   6.035  19.975  0.00  0.00    +0.000 A 
ATOM      5  N   UNL     1       2.502   6.465  18.683  0.00  0.00    +0.000 N 
ATOM      6  C   UNL     1       2.375   7.808  18.310  0.00  0.00    +0.000 A 
ATOM      7  O   UNL     1       2.844   8.262  17.272  0.00  0.00    +0.000 OA
ENDROOT
BRANCH   1   8
ATOM      8  S   UNL     1       0.933  10.130  18.711  0.00  0.00    +0.000 S 
ATOM      9  O   UNL     1      -0.096   9.799  17.738  0.00  0.00    +0.000 OA
ATOM     10  O   UNL     1       1.989  11.026  18.290  0.00  0.00    +0.000 OA
BRANCH   8  15
ATOM     11  C   UNL     1      -0.116  14.975  18.773  0.00  0.00    +0.000 C 
ATOM     12  C   UNL     1      -0.298  13.778  19.698  0.00  0.00    +0.000 C 
ATOM     13  C   UNL     1       1.068  13.196  20.109  0.00  0.00    +0.000 C 
ATOM     14  C   UNL     1       0.952  11.842  20.805  0.00  0.00    +0.000 C 
ATOM     15  N   UNL     1       0.125  10.899  20.005  0.00  0.00    +0.000 NA
ATOM     16  C   UNL     1      -1.235  11.425  19.791  0.00  0.00    +0.000 C 
ATOM     17  C   UNL     1      -1.201  12.732  19.021  0.00  0.00    +0.000 C 
ENDBRANCH   8  15
ENDBRANCH   1   8
BRANCH   5  18
ATOM     18  C   UNL     1       3.044   5.539  17.693  0.00  0.00    +0.000 C 
BRANCH  18  19
ATOM     19  C   UNL     1       4.299   4.797  18.167  0.00  0.00    +0.000 C 
ATOM     20  O   UNL     1       4.249   3.672  18.667  0.00  0.00    +0.000 OA
ATOM     21  N   UNL     1       5.504   5.460  17.979  0.00  0.00    +0.000 N 
ATOM     22  C   UNL     1       6.733   4.875  18.514  0.00  0.00    +0.000 C 
ATOM     23  C   UNL     1       7.721   5.976  18.921  0.00  0.00    +0.000 C 
ATOM     24  O   UNL     1       7.957   6.898  17.844  0.00  0.00    +0.000 OA
ATOM     25  C   UNL     1       6.732   7.520  17.426  0.00  0.00    +0.000 C 
ATOM     26  C   UNL     1       5.733   6.471  16.942  0.00  0.00    +0.000 C 
ENDBRANCH  18  19
ENDBRANCH   5  18
TORSDOF 4
ENDMDL
MODEL 8
REMARK VINA RESULT:      -7.0      1.864      2.557
REMARK  Name = 
REMARK  5 active torsions:
REMARK  status: ('A' for Active; 'I' for Inactive)
REMARK    1  A    between atoms: C_1  and  C_2
REMARK    2  A    between atoms: N_5  and  S_6
REMARK    3  A    between atoms: S_6  and  C_9
REMARK    4  A    between atoms: N_13  and  C_14
REMARK    5  A    between atoms: C_14  and  C_15
REMARK                            x       y       z     vdW  Elec       q    Type
REMARK                         _______ _______ _______ _____ _____    ______ ____
ROOT
ATOM      1  C   UNL     1       1.926   7.861  19.316  0.00  0.00    +0.000 A 
ATOM      2  C   UNL     1       1.598   7.737  20.614  0.00  0.00    +0.000 A 
ATOM      3  C   UNL     1       1.022   8.847  21.331  0.00  0.00    +0.000 A 
ATOM      4  C   UNL     1       0.960  10.048  20.745  0.00  0.00    +0.000 A 
ATOM      5  N   UNL     1       1.301  10.203  19.413  0.00  0.00    +0.000 N 
ATOM      6  C   UNL     1       1.622   9.112  18.597  0.00  0.00    +0.000 A 
ATOM      7  O   UNL     1       1.653   9.180  17.373  0.00  0.00    +0.000 OA
ENDROOT
BRANCH   1   8
ATOM      8  S   UNL     1       2.841   6.635  18.524  0.00  0.00    +0.000 S 
ATOM      9  O   UNL     1       3.896   7.289  17.768  0.00  0.00    +0.000 OA
ATOM     10  O   UNL     1       1.941   5.762  17.800  0.00  0.00    +0.000 OA
BRANCH   8  15
ATOM     11  C   UNL     1       3.485   1.745  18.020  0.00  0.00    +0.000 C 
ATOM     12  C   UNL     1       3.801   2.815  19.058  0.00  0.00    +0.000 C 
ATOM     13  C   UNL     1       2.504   3.453  19.591  0.00  0.00    +0.000 C 
ATOM     14  C   UNL     1       2.758   4.709  20.422  0.00  0.00    +0.000 C 
ATOM     15  N   UNL     1       3.629   5.667  19.690  0.00  0.00    +0.000 NA
ATOM     16  C   UNL     1       4.933   5.062  19.358  0.00  0.00    +0.000 C 
ATOM     17  C   UNL     1       4.761   3.855  18.455  0.00  0.00    +0.000 C 
ENDBRANCH   8  15
ENDBRANCH   1   8
BRANCH   5  18
ATOM     18  C   UNL     1       1.196  11.513  18.779  0.00  0.00    +0.000 C 
BRANCH  18  19
ATOM     19  C   UNL     1       0.325  12.505  19.557  0.00  0.00    +0.000 C 
ATOM     20  O   UNL     1       0.803  13.325  20.344  0.00  0.00    +0.000 OA
ATOM     21  N   UNL     1      -1.039  12.443  19.308  0.00  0.00    +0.000 N 
ATOM     22  C   UNL     1      -1.950  13.270  20.098  0.00  0.00    +0.000 C 
ATOM     23  C   UNL     1      -3.301  12.566  20.274  0.00  0.00    +0.000 C 
ATOM     24  O   UNL     1      -3.857  12.165  19.011  0.00  0.00    +0.000 OA
ATOM     25  C   UNL     1      -2.967  11.272  18.322  0.00  0.00    +0.000 C 
ATOM     26  C   UNL     1      -1.624  11.950  18.057  0.00  0.00    +0.000 C 
ENDBRANCH  18  19
ENDBRANCH   5  18
TORSDOF 4
ENDMDL
MODEL 9
REMARK VINA RESULT:      -7.0      2.444      8.665
REMARK  Name = 
REMARK  5 active torsions:
REMARK  status: ('A' for Active; 'I' for Inactive)
REMARK    1  A    between atoms: C_1  and  C_2
REMARK    2  A    between atoms: N_5  and  S_6
REMARK    3  A    between atoms: S_6  and  C_9
REMARK    4  A    between atoms: N_13  and  C_14
REMARK    5  A    between atoms: C_14  and  C_15
REMARK                            x       y       z     vdW  Elec       q    Type
REMARK                         _______ _______ _______ _____ _____    ______ ____
ROOT
ATOM      1  C   UNL     1       0.738   9.653  19.581  0.00  0.00    +0.000 A 
ATOM      2  C   UNL     1       0.711   9.325  20.885  0.00  0.00    +0.000 A 
ATOM      3  C   UNL     1       1.440   8.177  21.365  0.00  0.00    +0.000 A 
ATOM      4  C   UNL     1       2.013   7.348  20.486  0.00  0.00    +0.000 A 
ATOM      5  N   UNL     1       2.046   7.658  19.138  0.00  0.00    +0.000 N 
ATOM      6  C   UNL     1       1.581   8.883  18.646  0.00  0.00    +0.000 A 
ATOM      7  O   UNL     1       1.846   9.297  17.523  0.00  0.00    +0.000 OA
ENDROOT
BRANCH   1   8
ATOM      8  S   UNL     1      -0.323  10.860  18.961  0.00  0.00    +0.000 S 
ATOM      9  O   UNL     1      -1.218  11.257  20.037  0.00  0.00    +0.000 OA
ATOM     10  O   UNL     1      -0.923  10.382  17.734  0.00  0.00    +0.000 OA
BRANCH   8  15
ATOM     11  C   UNL     1       0.350  14.661  22.073  0.00  0.00    +0.000 C 
ATOM     12  C   UNL     1       0.735  14.303  20.642  0.00  0.00    +0.000 C 
ATOM     13  C   UNL     1      -0.523  14.128  19.770  0.00  0.00    +0.000 C 
ATOM     14  C   UNL     1      -0.220  13.506  18.408  0.00  0.00    +0.000 C 
ATOM     15  N   UNL     1       0.574  12.256  18.557  0.00  0.00    +0.000 NA
ATOM     16  C   UNL     1       1.854  12.511  19.243  0.00  0.00    +0.000 C 
ATOM     17  C   UNL     1       1.626  13.049  20.642  0.00  0.00    +0.000 C 
ENDBRANCH   8  15
ENDBRANCH   1   8
BRANCH   5  18
ATOM     18  C   UNL     1       2.705   6.759  18.196  0.00  0.00    +0.000 C 
BRANCH  18  19
ATOM     19  C   UNL     1       3.594   5.707  18.869  0.00  0.00    +0.000 C 
ATOM     20  O   UNL     1       4.724   5.970  19.286  0.00  0.00    +0.000 OA
ATOM     21  N   UNL     1       3.043   4.440  19.002  0.00  0.00    +0.000 N 
ATOM     22  C   UNL     1       3.870   3.352  19.520  0.00  0.00    +0.000 C 
ATOM     23  C   UNL     1       3.451   2.014  18.898  0.00  0.00    +0.000 C 
ATOM     24  O   UNL     1       2.042   1.776  19.054  0.00  0.00    +0.000 OA
ATOM     25  C   UNL     1       1.276   2.823  18.438  0.00  0.00    +0.000 C 
ATOM     26  C   UNL     1       1.604   4.174  19.071  0.00  0.00    +0.000 C 
ENDBRANCH  18  19
ENDBRANCH   5  18
TORSDOF 4
ENDMDL
