MODEL 1
REMARK VINA RESULT:      -9.0      0.000      0.000
REMARK  Name = 
REMARK  4 active torsions:
REMARK  status: ('A' for Active; 'I' for Inactive)
REMARK    1  A    between atoms: C_2  and  O_3
REMARK    2  A    between atoms: O_3  and  C_4
REMARK    3  A    between atoms: C_4  and  C_5
REMARK    4  A    between atoms: C_19  and  C_20
REMARK                            x       y       z     vdW  Elec       q    Type
REMARK                         _______ _______ _______ _____ _____    ______ ____
ROOT
ATOM      1  O   UNL     1       6.687   6.194  16.007  0.00  0.00    +0.000 OA
ATOM      2  C   UNL     1       5.753   5.416  15.837  0.00  0.00    +0.000 C 
ATOM      3  N   UNL     1       4.835   5.111  16.832  0.00  0.00    +0.000 N 
ATOM      4  C   UNL     1       3.854   4.025  16.736  0.00  0.00    +0.000 C 
ATOM      5  C   UNL     1       3.971   3.014  17.906  0.00  0.00    +0.000 C 
ATOM      6  C   UNL     1       4.403   3.654  19.244  0.00  0.00    +0.000 C 
ATOM      7  C   UNL     1       5.650   4.531  19.014  0.00  0.00    +0.000 C 
ATOM      8  C   UNL     1       5.060   5.675  18.166  0.00  0.00    +0.000 C 
ATOM      9  C   UNL     1       3.791   5.921  18.965  0.00  0.00    +0.000 A 
ATOM     10  C   UNL     1       3.055   7.082  19.139  0.00  0.00    +0.000 A 
ATOM     11  C   UNL     1       1.984   7.095  20.064  0.00  0.00    +0.000 A 
ATOM     12  C   UNL     1       1.671   5.883  20.737  0.00  0.00    +0.000 A 
ATOM     13  C   UNL     1       2.379   4.698  20.517  0.00  0.00    +0.000 A 
ATOM     14  C   UNL     1       3.439   4.740  19.637  0.00  0.00    +0.000 A 
ENDROOT
BRANCH  11  15
ATOM     15  C   UNL     1       1.253   8.344  20.397  0.00  0.00    +0.000 A 
ATOM     16  C   UNL     1       1.071   9.376  19.455  0.00  0.00    +0.000 A 
ATOM     17  C   UNL     1       0.304  10.510  19.746  0.00  0.00    +0.000 A 
ATOM     18  C   UNL     1      -0.285  10.648  20.999  0.00  0.00    +0.000 A 
ATOM     19  C   UNL     1      -0.103   9.658  21.959  0.00  0.00    +0.000 A 
ATOM     20  C   UNL     1       0.652   8.520  21.657  0.00  0.00    +0.000 A 
ENDBRANCH  11  15
BRANCH   2  21
ATOM     21  O   UNL     1       5.484   4.814  14.645  0.00  0.00    +0.000 OA
BRANCH  21  22
ATOM     22  C   UNL     1       6.610   4.696  13.759  0.00  0.00    +0.000 C 
BRANCH  22  23
ATOM     23  C   UNL     1       6.426   3.681  12.655  0.00  0.00    +0.000 A 
ATOM     24  C   UNL     1       7.527   3.069  12.040  0.00  0.00    +0.000 A 
ATOM     25  C   UNL     1       7.341   2.028  11.125  0.00  0.00    +0.000 A 
ATOM     26  C   UNL     1       6.054   1.591  10.808  0.00  0.00    +0.000 A 
ATOM     27  C   UNL     1       4.952   2.205  11.396  0.00  0.00    +0.000 A 
ATOM     28  C   UNL     1       5.135   3.244  12.310  0.00  0.00    +0.000 A 
ENDBRANCH  22  23
ENDBRANCH  21  22
ENDBRANCH   2  21
TORSDOF 4
ENDMDL
MODEL 2
REMARK VINA RESULT:      -8.5      0.366      1.334
REMARK  Name = 
REMARK  4 active torsions:
REMARK  status: ('A' for Active; 'I' for Inactive)
REMARK    1  A    between atoms: C_2  and  O_3
REMARK    2  A    between atoms: O_3  and  C_4
REMARK    3  A    between atoms: C_4  and  C_5
REMARK    4  A    between atoms: C_19  and  C_20
REMARK                            x       y       z     vdW  Elec       q    Type
REMARK                         _______ _______ _______ _____ _____    ______ ____
ROOT
ATOM      1  O   UNL     1       6.592   6.595  16.174  0.00  0.00    +0.000 OA
ATOM      2  C   UNL     1       5.685   5.800  15.948  0.00  0.00    +0.000 C 
ATOM      3  N   UNL     1       4.777   5.396  16.917  0.00  0.00    +0.000 N 
ATOM      4  C   UNL     1       3.834   4.286  16.744  0.00  0.00    +0.000 C 
ATOM      5  C   UNL     1       3.985   3.203  17.843  0.00  0.00    +0.000 C 
ATOM      6  C   UNL     1       4.392   3.765  19.223  0.00  0.00    +0.000 C 
ATOM      7  C   UNL     1       5.609   4.698  19.058  0.00  0.00    +0.000 C 
ATOM      8  C   UNL     1       4.981   5.876  18.287  0.00  0.00    +0.000 C 
ATOM      9  C   UNL     1       3.702   6.024  19.096  0.00  0.00    +0.000 A 
ATOM     10  C   UNL     1       2.926   7.144  19.345  0.00  0.00    +0.000 A 
ATOM     11  C   UNL     1       1.855   7.058  20.265  0.00  0.00    +0.000 A 
ATOM     12  C   UNL     1       1.583   5.793  20.853  0.00  0.00    +0.000 A 
ATOM     13  C   UNL     1       2.332   4.650  20.556  0.00  0.00    +0.000 A 
ATOM     14  C   UNL     1       3.390   4.788  19.685  0.00  0.00    +0.000 A 
ENDROOT
BRANCH  11  15
ATOM     15  C   UNL     1       1.080   8.256  20.679  0.00  0.00    +0.000 A 
ATOM     16  C   UNL     1       0.506   8.366  21.961  0.00  0.00    +0.000 A 
ATOM     17  C   UNL     1      -0.144   9.534  22.377  0.00  0.00    +0.000 A 
ATOM     18  C   UNL     1      -0.252  10.616  21.509  0.00  0.00    +0.000 A 
ATOM     19  C   UNL     1       0.282  10.528  20.228  0.00  0.00    +0.000 A 
ATOM     20  C   UNL     1       0.945   9.364  19.823  0.00  0.00    +0.000 A 
ENDBRANCH  11  15
BRANCH   2  21
ATOM     21  O   UNL     1       5.440   5.270  14.717  0.00  0.00    +0.000 OA
BRANCH  21  22
ATOM     22  C   UNL     1       6.575   4.656  14.085  0.00  0.00    +0.000 C 
BRANCH  22  23
ATOM     23  C   UNL     1       6.219   3.667  12.999  0.00  0.00    +0.000 A 
ATOM     24  C   UNL     1       4.892   3.491  12.584  0.00  0.00    +0.000 A 
ATOM     25  C   UNL     1       4.594   2.684  11.481  0.00  0.00    +0.000 A 
ATOM     26  C   UNL     1       5.616   2.040  10.785  0.00  0.00    +0.000 A 
ATOM     27  C   UNL     1       6.937   2.190  11.199  0.00  0.00    +0.000 A 
ATOM     28  C   UNL     1       7.236   2.995  12.300  0.00  0.00    +0.000 A 
ENDBRANCH  22  23
ENDBRANCH  21  22
ENDBRANCH   2  21
TORSDOF 4
ENDMDL
MODEL 3
REMARK VINA RESULT:      -8.2      1.250      1.897
REMARK  Name = 
REMARK  4 active torsions:
REMARK  status: ('A' for Active; 'I' for Inactive)
REMARK    1  A    between atoms: C_2  and  O_3
REMARK    2  A    between atoms: O_3  and  C_4
REMARK    3  A    between atoms: C_4  and  C_5
REMARK    4  A    between atoms: C_19  and  C_20
REMARK                            x       y       z     vdW  Elec       q    Type
REMARK                         _______ _______ _______ _____ _____    ______ ____
ROOT
ATOM      1  O   UNL     1       7.203   4.519  18.406  0.00  0.00    +0.000 OA
ATOM      2  C   UNL     1       6.285   4.163  17.673  0.00  0.00    +0.000 C 
ATOM      3  N   UNL     1       4.965   4.097  18.097  0.00  0.00    +0.000 N 
ATOM      4  C   UNL     1       3.888   3.464  17.328  0.00  0.00    +0.000 C 
ATOM      5  C   UNL     1       3.166   2.347  18.125  0.00  0.00    +0.000 C 
ATOM      6  C   UNL     1       3.079   2.620  19.642  0.00  0.00    +0.000 C 
ATOM      7  C   UNL     1       4.475   3.002  20.176  0.00  0.00    +0.000 C 
ATOM      8  C   UNL     1       4.685   4.375  19.509  0.00  0.00    +0.000 C 
ATOM      9  C   UNL     1       3.311   4.970  19.770  0.00  0.00    +0.000 A 
ATOM     10  C   UNL     1       2.926   6.289  19.945  0.00  0.00    +0.000 A 
ATOM     11  C   UNL     1       1.598   6.581  20.332  0.00  0.00    +0.000 A 
ATOM     12  C   UNL     1       0.690   5.496  20.468  0.00  0.00    +0.000 A 
ATOM     13  C   UNL     1       1.066   4.169  20.235  0.00  0.00    +0.000 A 
ATOM     14  C   UNL     1       2.380   3.927  19.898  0.00  0.00    +0.000 A 
ENDROOT
BRANCH  11  15
ATOM     15  C   UNL     1       1.167   7.961  20.673  0.00  0.00    +0.000 A 
ATOM     16  C   UNL     1       0.661   8.292  21.946  0.00  0.00    +0.000 A 
ATOM     17  C   UNL     1       0.342   9.611  22.289  0.00  0.00    +0.000 A 
ATOM     18  C   UNL     1       0.504  10.631  21.357  0.00  0.00    +0.000 A 
ATOM     19  C   UNL     1       0.977  10.332  20.083  0.00  0.00    +0.000 A 
ATOM     20  C   UNL     1       1.309   9.014  19.751  0.00  0.00    +0.000 A 
ENDBRANCH  11  15
BRANCH   2  21
ATOM     21  O   UNL     1       6.451   3.848  16.358  0.00  0.00    +0.000 OA
BRANCH  21  22
ATOM     22  C   UNL     1       6.853   4.944  15.520  0.00  0.00    +0.000 C 
BRANCH  22  23
ATOM     23  C   UNL     1       6.776   4.651  14.039  0.00  0.00    +0.000 A 
ATOM     24  C   UNL     1       7.663   5.250  13.134  0.00  0.00    +0.000 A 
ATOM     25  C   UNL     1       7.677   4.861  11.791  0.00  0.00    +0.000 A 
ATOM     26  C   UNL     1       6.802   3.874  11.336  0.00  0.00    +0.000 A 
ATOM     27  C   UNL     1       5.903   3.285  12.220  0.00  0.00    +0.000 A 
ATOM     28  C   UNL     1       5.887   3.673  13.561  0.00  0.00    +0.000 A 
ENDBRANCH  22  23
ENDBRANCH  21  22
ENDBRANCH   2  21
TORSDOF 4
ENDMDL
MODEL 4
REMARK VINA RESULT:      -8.2      0.923      1.472
REMARK  Name = 
REMARK  4 active torsions:
REMARK  status: ('A' for Active; 'I' for Inactive)
REMARK    1  A    between atoms: C_2  and  O_3
REMARK    2  A    between atoms: O_3  and  C_4
REMARK    3  A    between atoms: C_4  and  C_5
REMARK    4  A    between atoms: C_19  and  C_20
REMARK                            x       y       z     vdW  Elec       q    Type
REMARK                         _______ _______ _______ _____ _____    ______ ____
ROOT
ATOM      1  O   UNL     1       7.407   5.375  16.194  0.00  0.00    +0.000 OA
ATOM      2  C   UNL     1       6.436   4.634  16.075  0.00  0.00    +0.000 C 
ATOM      3  N   UNL     1       5.369   4.640  16.964  0.00  0.00    +0.000 N 
ATOM      4  C   UNL     1       4.313   3.623  16.984  0.00  0.00    +0.000 C 
ATOM      5  C   UNL     1       4.180   2.932  18.366  0.00  0.00    +0.000 C 
ATOM      6  C   UNL     1       4.487   3.862  19.560  0.00  0.00    +0.000 C 
ATOM      7  C   UNL     1       5.830   4.581  19.319  0.00  0.00    +0.000 C 
ATOM      8  C   UNL     1       5.466   5.507  18.142  0.00  0.00    +0.000 C 
ATOM      9  C   UNL     1       4.130   6.018  18.656  0.00  0.00    +0.000 A 
ATOM     10  C   UNL     1       3.488   7.225  18.433  0.00  0.00    +0.000 A 
ATOM     11  C   UNL     1       2.310   7.531  19.154  0.00  0.00    +0.000 A 
ATOM     12  C   UNL     1       1.799   6.546  20.042  0.00  0.00    +0.000 A 
ATOM     13  C   UNL     1       2.417   5.305  20.223  0.00  0.00    +0.000 A 
ATOM     14  C   UNL     1       3.584   5.065  19.530  0.00  0.00    +0.000 A 
ENDROOT
BRANCH  11  15
ATOM     15  C   UNL     1       1.660   8.863  19.063  0.00  0.00    +0.000 A 
ATOM     16  C   UNL     1       0.692   9.286  19.996  0.00  0.00    +0.000 A 
ATOM     17  C   UNL     1       0.150  10.576  19.958  0.00  0.00    +0.000 A 
ATOM     18  C   UNL     1       0.551  11.470  18.971  0.00  0.00    +0.000 A 
ATOM     19  C   UNL     1       1.486  11.074  18.020  0.00  0.00    +0.000 A 
ATOM     20  C   UNL     1       2.036   9.788  18.072  0.00  0.00    +0.000 A 
ENDBRANCH  11  15
BRANCH   2  21
ATOM     21  O   UNL     1       6.274   3.768  15.036  0.00  0.00    +0.000 OA
BRANCH  21  22
ATOM     22  C   UNL     1       6.572   4.314  13.741  0.00  0.00    +0.000 C 
BRANCH  22  23
ATOM     23  C   UNL     1       6.003   3.520  12.588  0.00  0.00    +0.000 A 
ATOM     24  C   UNL     1       6.715   2.457  12.017  0.00  0.00    +0.000 A 
ATOM     25  C   UNL     1       6.119   1.640  11.051  0.00  0.00    +0.000 A 
ATOM     26  C   UNL     1       4.807   1.879  10.641  0.00  0.00    +0.000 A 
ATOM     27  C   UNL     1       4.095   2.944  11.185  0.00  0.00    +0.000 A 
ATOM     28  C   UNL     1       4.689   3.762  12.149  0.00  0.00    +0.000 A 
ENDBRANCH  22  23
ENDBRANCH  21  22
ENDBRANCH   2  21
TORSDOF 4
ENDMDL
MODEL 5
REMARK VINA RESULT:      -8.1      5.619     11.622
REMARK  Name = 
REMARK  4 active torsions:
REMARK  status: ('A' for Active; 'I' for Inactive)
REMARK    1  A    between atoms: C_2  and  O_3
REMARK    2  A    between atoms: O_3  and  C_4
REMARK    3  A    between atoms: C_4  and  C_5
REMARK    4  A    between atoms: C_19  and  C_20
REMARK                            x       y       z     vdW  Elec       q    Type
REMARK                         _______ _______ _______ _____ _____    ______ ____
ROOT
ATOM      1  O   UNL     1      -0.625  11.912  23.109  0.00  0.00    +0.000 OA
ATOM      2  C   UNL     1      -1.236  11.738  22.059  0.00  0.00    +0.000 C 
ATOM      3  N   UNL     1      -0.650  11.186  20.928  0.00  0.00    +0.000 N 
ATOM      4  C   UNL     1      -1.278  11.175  19.603  0.00  0.00    +0.000 C 
ATOM      5  C   UNL     1      -0.395  11.852  18.523  0.00  0.00    +0.000 C 
ATOM      6  C   UNL     1       1.121  11.663  18.746  0.00  0.00    +0.000 C 
ATOM      7  C   UNL     1       1.475  12.032  20.201  0.00  0.00    +0.000 C 
ATOM      8  C   UNL     1       0.786  10.893  20.976  0.00  0.00    +0.000 C 
ATOM      9  C   UNL     1       1.216   9.727  20.101  0.00  0.00    +0.000 A 
ATOM     10  C   UNL     1       1.436   8.398  20.427  0.00  0.00    +0.000 A 
ATOM     11  C   UNL     1       1.987   7.527  19.458  0.00  0.00    +0.000 A 
ATOM     12  C   UNL     1       2.237   8.048  18.160  0.00  0.00    +0.000 A 
ATOM     13  C   UNL     1       1.960   9.375  17.817  0.00  0.00    +0.000 A 
ATOM     14  C   UNL     1       1.461  10.198  18.802  0.00  0.00    +0.000 A 
ENDROOT
BRANCH  11  15
ATOM     15  C   UNL     1       2.378   6.133  19.791  0.00  0.00    +0.000 A 
ATOM     16  C   UNL     1       1.628   5.342  20.685  0.00  0.00    +0.000 A 
ATOM     17  C   UNL     1       1.949   4.001  20.924  0.00  0.00    +0.000 A 
ATOM     18  C   UNL     1       3.042   3.422  20.287  0.00  0.00    +0.000 A 
ATOM     19  C   UNL     1       3.817   4.185  19.419  0.00  0.00    +0.000 A 
ATOM     20  C   UNL     1       3.482   5.520  19.171  0.00  0.00    +0.000 A 
ENDBRANCH  11  15
BRANCH   2  21
ATOM     21  O   UNL     1      -2.561  12.014  21.906  0.00  0.00    +0.000 OA
BRANCH  21  22
ATOM     22  C   UNL     1      -3.166  12.709  23.010  0.00  0.00    +0.000 C 
BRANCH  22  23
ATOM     23  C   UNL     1      -4.676  12.732  22.974  0.00  0.00    +0.000 A 
ATOM     24  C   UNL     1      -5.429  12.816  24.153  0.00  0.00    +0.000 A 
ATOM     25  C   UNL     1      -6.816  12.985  24.099  0.00  0.00    +0.000 A 
ATOM     26  C   UNL     1      -7.468  13.064  22.869  0.00  0.00    +0.000 A 
ATOM     27  C   UNL     1      -6.735  12.961  21.690  0.00  0.00    +0.000 A 
ATOM     28  C   UNL     1      -5.349  12.793  21.742  0.00  0.00    +0.000 A 
ENDBRANCH  22  23
ENDBRANCH  21  22
ENDBRANCH   2  21
TORSDOF 4
ENDMDL
MODEL 6
REMARK VINA RESULT:      -8.1      4.898     10.462
REMARK  Name = 
REMARK  4 active torsions:
REMARK  status: ('A' for Active; 'I' for Inactive)
REMARK    1  A    between atoms: C_2  and  O_3
REMARK    2  A    between atoms: O_3  and  C_4
REMARK    3  A    between atoms: C_4  and  C_5
REMARK    4  A    between atoms: C_19  and  C_20
REMARK                            x       y       z     vdW  Elec       q    Type
REMARK                         _______ _______ _______ _____ _____    ______ ____
ROOT
ATOM      1  O   UNL     1      -0.335  13.073  17.712  0.00  0.00    +0.000 OA
ATOM      2  C   UNL     1       0.314  13.082  18.753  0.00  0.00    +0.000 C 
ATOM      3  N   UNL     1       0.632  11.926  19.454  0.00  0.00    +0.000 N 
ATOM      4  C   UNL     1       1.202  11.918  20.805  0.00  0.00    +0.000 C 
ATOM      5  C   UNL     1       0.340  11.107  21.808  0.00  0.00    +0.000 C 
ATOM      6  C   UNL     1      -0.370   9.889  21.178  0.00  0.00    +0.000 C 
ATOM      7  C   UNL     1      -1.106  10.331  19.896  0.00  0.00    +0.000 C 
ATOM      8  C   UNL     1       0.080  10.658  18.968  0.00  0.00    +0.000 C 
ATOM      9  C   UNL     1       0.944   9.444  19.263  0.00  0.00    +0.000 A 
ATOM     10  C   UNL     1       1.862   8.782  18.462  0.00  0.00    +0.000 A 
ATOM     11  C   UNL     1       2.434   7.571  18.915  0.00  0.00    +0.000 A 
ATOM     12  C   UNL     1       2.083   7.113  20.213  0.00  0.00    +0.000 A 
ATOM     13  C   UNL     1       1.201   7.812  21.043  0.00  0.00    +0.000 A 
ATOM     14  C   UNL     1       0.637   8.967  20.547  0.00  0.00    +0.000 A 
ENDROOT
BRANCH  11  15
ATOM     15  C   UNL     1       3.310   6.746  18.044  0.00  0.00    +0.000 A 
ATOM     16  C   UNL     1       3.215   5.340  18.007  0.00  0.00    +0.000 A 
ATOM     17  C   UNL     1       3.980   4.576  17.118  0.00  0.00    +0.000 A 
ATOM     18  C   UNL     1       4.876   5.200  16.256  0.00  0.00    +0.000 A 
ATOM     19  C   UNL     1       5.011   6.584  16.287  0.00  0.00    +0.000 A 
ATOM     20  C   UNL     1       4.232   7.345  17.166  0.00  0.00    +0.000 A 
ENDBRANCH  11  15
BRANCH   2  21
ATOM     21  O   UNL     1       0.837  14.213  19.303  0.00  0.00    +0.000 OA
BRANCH  21  22
ATOM     22  C   UNL     1      -0.061  15.334  19.350  0.00  0.00    +0.000 C 
BRANCH  22  23
ATOM     23  C   UNL     1       0.262  16.428  18.358  0.00  0.00    +0.000 A 
ATOM     24  C   UNL     1      -0.735  17.285  17.873  0.00  0.00    +0.000 A 
ATOM     25  C   UNL     1      -0.400  18.382  17.072  0.00  0.00    +0.000 A 
ATOM     26  C   UNL     1       0.932  18.631  16.742  0.00  0.00    +0.000 A 
ATOM     27  C   UNL     1       1.930  17.774  17.200  0.00  0.00    +0.000 A 
ATOM     28  C   UNL     1       1.597  16.679  17.999  0.00  0.00    +0.000 A 
ENDBRANCH  22  23
ENDBRANCH  21  22
ENDBRANCH   2  21
TORSDOF 4
ENDMDL
MODEL 7
REMARK VINA RESULT:      -8.1      5.689     11.627
REMARK  Name = 
REMARK  4 active torsions:
REMARK  status: ('A' for Active; 'I' for Inactive)
REMARK    1  A    between atoms: C_2  and  O_3
REMARK    2  A    between atoms: O_3  and  C_4
REMARK    3  A    between atoms: C_4  and  C_5
REMARK    4  A    between atoms: C_19  and  C_20
REMARK                            x       y       z     vdW  Elec       q    Type
REMARK                         _______ _______ _______ _____ _____    ______ ____
ROOT
ATOM      1  O   UNL     1      -0.623  12.101  23.149  0.00  0.00    +0.000 OA
ATOM      2  C   UNL     1      -1.244  11.953  22.102  0.00  0.00    +0.000 C 
ATOM      3  N   UNL     1      -0.674  11.411  20.957  0.00  0.00    +0.000 N 
ATOM      4  C   UNL     1      -1.312  11.431  19.637  0.00  0.00    +0.000 C 
ATOM      5  C   UNL     1      -0.428  12.112  18.561  0.00  0.00    +0.000 C 
ATOM      6  C   UNL     1       1.087  11.897  18.770  0.00  0.00    +0.000 C 
ATOM      7  C   UNL     1       1.457  12.238  20.227  0.00  0.00    +0.000 C 
ATOM      8  C   UNL     1       0.757  11.096  20.989  0.00  0.00    +0.000 C 
ATOM      9  C   UNL     1       1.164   9.938  20.093  0.00  0.00    +0.000 A 
ATOM     10  C   UNL     1       1.367   8.601  20.395  0.00  0.00    +0.000 A 
ATOM     11  C   UNL     1       1.898   7.738  19.408  0.00  0.00    +0.000 A 
ATOM     12  C   UNL     1       2.145   8.276  18.117  0.00  0.00    +0.000 A 
ATOM     13  C   UNL     1       1.885   9.612  17.797  0.00  0.00    +0.000 A 
ATOM     14  C   UNL     1       1.405  10.427  18.799  0.00  0.00    +0.000 A 
ENDROOT
BRANCH  11  15
ATOM     15  C   UNL     1       2.270   6.333  19.716  0.00  0.00    +0.000 A 
ATOM     16  C   UNL     1       3.376   5.705  19.109  0.00  0.00    +0.000 A 
ATOM     17  C   UNL     1       3.775   4.413  19.470  0.00  0.00    +0.000 A 
ATOM     18  C   UNL     1       3.064   3.709  20.436  0.00  0.00    +0.000 A 
ATOM     19  C   UNL     1       1.952   4.293  21.035  0.00  0.00    +0.000 A 
ATOM     20  C   UNL     1       1.567   5.590  20.682  0.00  0.00    +0.000 A 
ENDBRANCH  11  15
BRANCH   2  21
ATOM     21  O   UNL     1      -2.566  12.251  21.963  0.00  0.00    +0.000 OA
BRANCH  21  22
ATOM     22  C   UNL     1      -3.275  12.444  23.198  0.00  0.00    +0.000 C 
BRANCH  22  23
ATOM     23  C   UNL     1      -4.755  12.700  23.029  0.00  0.00    +0.000 A 
ATOM     24  C   UNL     1      -5.349  12.711  21.760  0.00  0.00    +0.000 A 
ATOM     25  C   UNL     1      -6.739  12.803  21.627  0.00  0.00    +0.000 A 
ATOM     26  C   UNL     1      -7.549  12.890  22.759  0.00  0.00    +0.000 A 
ATOM     27  C   UNL     1      -6.970  12.900  24.025  0.00  0.00    +0.000 A 
ATOM     28  C   UNL     1      -5.583  12.809  24.159  0.00  0.00    +0.000 A 
ENDBRANCH  22  23
ENDBRANCH  21  22
ENDBRANCH   2  21
TORSDOF 4
ENDMDL
MODEL 8
REMARK VINA RESULT:      -8.0      0.978      1.377
REMARK  Name = 
REMARK  4 active torsions:
REMARK  status: ('A' for Active; 'I' for Inactive)
REMARK    1  A    between atoms: C_2  and  O_3
REMARK    2  A    between atoms: O_3  and  C_4
REMARK    3  A    between atoms: C_4  and  C_5
REMARK    4  A    between atoms: C_19  and  C_20
REMARK                            x       y       z     vdW  Elec       q    Type
REMARK                         _______ _______ _______ _____ _____    ______ ____
ROOT
ATOM      1  O   UNL     1       7.261   4.772  17.256  0.00  0.00    +0.000 OA
ATOM      2  C   UNL     1       6.257   4.191  16.855  0.00  0.00    +0.000 C 
ATOM      3  N   UNL     1       5.082   4.121  17.591  0.00  0.00    +0.000 N 
ATOM      4  C   UNL     1       3.952   3.251  17.249  0.00  0.00    +0.000 C 
ATOM      5  C   UNL     1       3.571   2.290  18.404  0.00  0.00    +0.000 C 
ATOM      6  C   UNL     1       3.787   2.889  19.811  0.00  0.00    +0.000 C 
ATOM      7  C   UNL     1       5.205   3.487  19.903  0.00  0.00    +0.000 C 
ATOM      8  C   UNL     1       5.087   4.687  18.943  0.00  0.00    +0.000 C 
ATOM      9  C   UNL     1       3.740   5.218  19.405  0.00  0.00    +0.000 A 
ATOM     10  C   UNL     1       3.238   6.510  19.400  0.00  0.00    +0.000 A 
ATOM     11  C   UNL     1       2.002   6.779  20.031  0.00  0.00    +0.000 A 
ATOM     12  C   UNL     1       1.292   5.686  20.598  0.00  0.00    +0.000 A 
ATOM     13  C   UNL     1       1.773   4.373  20.552  0.00  0.00    +0.000 A 
ATOM     14  C   UNL     1       3.000   4.163  19.961  0.00  0.00    +0.000 A 
ENDROOT
BRANCH  11  15
ATOM     15  C   UNL     1       1.484   8.163  20.182  0.00  0.00    +0.000 A 
ATOM     16  C   UNL     1       1.113   8.688  21.436  0.00  0.00    +0.000 A 
ATOM     17  C   UNL     1       0.713  10.021  21.585  0.00  0.00    +0.000 A 
ATOM     18  C   UNL     1       0.655  10.858  20.475  0.00  0.00    +0.000 A 
ATOM     19  C   UNL     1       0.991  10.362  19.219  0.00  0.00    +0.000 A 
ATOM     20  C   UNL     1       1.405   9.033  19.079  0.00  0.00    +0.000 A 
ENDBRANCH  11  15
BRANCH   2  21
ATOM     21  O   UNL     1       6.168   3.603  15.630  0.00  0.00    +0.000 OA
BRANCH  21  22
ATOM     22  C   UNL     1       6.014   4.515  14.530  0.00  0.00    +0.000 C 
BRANCH  22  23
ATOM     23  C   UNL     1       5.806   3.842  13.192  0.00  0.00    +0.000 A 
ATOM     24  C   UNL     1       6.834   3.114  12.579  0.00  0.00    +0.000 A 
ATOM     25  C   UNL     1       6.585   2.377  11.416  0.00  0.00    +0.000 A 
ATOM     26  C   UNL     1       5.311   2.364  10.851  0.00  0.00    +0.000 A 
ATOM     27  C   UNL     1       4.286   3.100  11.438  0.00  0.00    +0.000 A 
ATOM     28  C   UNL     1       4.532   3.837  12.599  0.00  0.00    +0.000 A 
ENDBRANCH  22  23
ENDBRANCH  21  22
ENDBRANCH   2  21
TORSDOF 4
ENDMDL
MODEL 9
REMARK VINA RESULT:      -8.0      4.712      8.076
REMARK  Name = 
REMARK  4 active torsions:
REMARK  status: ('A' for Active; 'I' for Inactive)
REMARK    1  A    between atoms: C_2  and  O_3
REMARK    2  A    between atoms: O_3  and  C_4
REMARK    3  A    between atoms: C_4  and  C_5
REMARK    4  A    between atoms: C_19  and  C_20
REMARK                            x       y       z     vdW  Elec       q    Type
REMARK                         _______ _______ _______ _____ _____    ______ ____
ROOT
ATOM      1  O   UNL     1       1.791   9.153  17.400  0.00  0.00    +0.000 OA
ATOM      2  C   UNL     1       1.610   8.999  18.605  0.00  0.00    +0.000 C 
ATOM      3  N   UNL     1       0.868   9.883  19.375  0.00  0.00    +0.000 N 
ATOM      4  C   UNL     1       0.824   9.855  20.841  0.00  0.00    +0.000 C 
ATOM      5  C   UNL     1       1.249  11.205  21.473  0.00  0.00    +0.000 C 
ATOM      6  C   UNL     1       0.852  12.440  20.634  0.00  0.00    +0.000 C 
ATOM      7  C   UNL     1       1.303  12.235  19.174  0.00  0.00    +0.000 C 
ATOM      8  C   UNL     1       0.363  11.097  18.728  0.00  0.00    +0.000 C 
ATOM      9  C   UNL     1      -0.934  11.628  19.314  0.00  0.00    +0.000 A 
ATOM     10  C   UNL     1      -2.243  11.454  18.893  0.00  0.00    +0.000 A 
ATOM     11  C   UNL     1      -3.279  12.183  19.523  0.00  0.00    +0.000 A 
ATOM     12  C   UNL     1      -2.932  13.026  20.613  0.00  0.00    +0.000 A 
ATOM     13  C   UNL     1      -1.618  13.156  21.073  0.00  0.00    +0.000 A 
ATOM     14  C   UNL     1      -0.635  12.458  20.406  0.00  0.00    +0.000 A 
ENDROOT
BRANCH  11  15
ATOM     15  C   UNL     1      -4.677  12.147  19.023  0.00  0.00    +0.000 A 
ATOM     16  C   UNL     1      -5.782  12.271  19.888  0.00  0.00    +0.000 A 
ATOM     17  C   UNL     1      -7.093  12.328  19.401  0.00  0.00    +0.000 A 
ATOM     18  C   UNL     1      -7.332  12.241  18.034  0.00  0.00    +0.000 A 
ATOM     19  C   UNL     1      -6.263  12.092  17.156  0.00  0.00    +0.000 A 
ATOM     20  C   UNL     1      -4.954  12.052  17.646  0.00  0.00    +0.000 A 
ENDBRANCH  11  15
BRANCH   2  21
ATOM     21  O   UNL     1       2.071   7.923  19.302  0.00  0.00    +0.000 OA
BRANCH  21  22
ATOM     22  C   UNL     1       2.587   6.853  18.492  0.00  0.00    +0.000 C 
BRANCH  22  23
ATOM     23  C   UNL     1       2.120   5.478  18.912  0.00  0.00    +0.000 A 
ATOM     24  C   UNL     1       1.811   5.193  20.249  0.00  0.00    +0.000 A 
ATOM     25  C   UNL     1       1.241   3.965  20.599  0.00  0.00    +0.000 A 
ATOM     26  C   UNL     1       0.980   3.006  19.621  0.00  0.00    +0.000 A 
ATOM     27  C   UNL     1       1.301   3.268  18.292  0.00  0.00    +0.000 A 
ATOM     28  C   UNL     1       1.870   4.494  17.940  0.00  0.00    +0.000 A 
ENDBRANCH  22  23
ENDBRANCH  21  22
ENDBRANCH   2  21
TORSDOF 4
ENDMDL
