MODEL 1
REMARK VINA RESULT:      -9.3      0.000      0.000
REMARK  Name = 
REMARK  9 active torsions:
REMARK  status: ('A' for Active; 'I' for Inactive)
REMARK    1  A    between atoms: C_1  and  N_2
REMARK    2  A    between atoms: C_3  and  C_5
REMARK    3  A    between atoms: C_7  and  O_8
REMARK    4  A    between atoms: O_8  and  C_9
REMARK    5  A    between atoms: C_9  and  C_10
REMARK    6  A    between atoms: C_10  and  C_11
REMARK    7  A    between atoms: C_11  and  C_12
REMARK    8  A    between atoms: C_12  and  N_13
REMARK    9  A    between atoms: C_16  and  C_17
REMARK                            x       y       z     vdW  Elec       q    Type
REMARK                         _______ _______ _______ _____ _____    ______ ____
ROOT
ATOM      1  C   UNL     1       7.966   7.100  18.296  0.00  0.00    +0.000 C 
ENDROOT
BRANCH   1   2
ATOM      2  N   UNL     1       7.064   6.246  17.498  0.00  0.00    +0.000 NA
ATOM      3  C   UNL     1       6.600   5.092  18.285  0.00  0.00    +0.000 C 
ATOM      4  C   UNL     1       5.617   4.210  17.527  0.00  0.00    +0.000 C 
ATOM      5  C   UNL     1       4.443   4.965  16.937  0.00  0.00    +0.000 C 
ATOM      6  C   UNL     1       4.940   6.227  16.197  0.00  0.00    +0.000 C 
ATOM      7  C   UNL     1       5.930   7.050  17.016  0.00  0.00    +0.000 C 
BRANCH   5   8
ATOM      8  C   UNL     1       3.192   5.280  17.750  0.00  0.00    +0.000 A 
ATOM      9  N   UNL     1       3.299   6.475  18.365  0.00  0.00    +0.000 NA
ATOM     10  O   UNL     1       3.122   6.186  19.705  0.00  0.00    +0.000 OA
ATOM     11  C   UNL     1       2.529   4.972  19.801  0.00  0.00    +0.000 A 
ATOM     12  C   UNL     1       2.192   4.352  21.000  0.00  0.00    +0.000 A 
ATOM     13  C   UNL     1       1.326   3.278  20.877  0.00  0.00    +0.000 A 
ATOM     14  F   UNL     1       0.888   2.672  21.990  0.00  0.00    +0.000 F 
ATOM     15  C   UNL     1       0.861   2.852  19.632  0.00  0.00    +0.000 A 
ATOM     16  C   UNL     1       1.394   3.393  18.431  0.00  0.00    +0.000 A 
ATOM     17  C   UNL     1       2.293   4.473  18.530  0.00  0.00    +0.000 A 
ENDBRANCH   5   8
ENDBRANCH   1   2
BRANCH   1  18
ATOM     18  C   UNL     1       8.145   8.535  17.769  0.00  0.00    +0.000 C 
BRANCH  18  19
ATOM     19  C   UNL     1       8.715   9.542  18.777  0.00  0.00    +0.000 C 
BRANCH  19  20
ATOM     20  C   UNL     1       9.012  10.886  18.123  0.00  0.00    +0.000 C 
BRANCH  20  21
ATOM     21  O   UNL     1       9.948  11.632  18.905  0.00  0.00    +0.000 OA
BRANCH  21  24
ATOM     22  C   UNL     1      10.187  15.126  17.906  0.00  0.00    +0.000 A 
ATOM     23  C   UNL     1       9.757  13.931  18.488  0.00  0.00    +0.000 A 
ATOM     24  C   UNL     1      10.472  12.743  18.291  0.00  0.00    +0.000 A 
ATOM     25  C   UNL     1      11.622  12.761  17.496  0.00  0.00    +0.000 A 
ATOM     26  C   UNL     1      12.064  13.949  16.914  0.00  0.00    +0.000 A 
ATOM     27  C   UNL     1      11.355  15.127  17.124  0.00  0.00    +0.000 A 
ATOM     28  F   UNL     1      11.808  16.245  16.545  0.00  0.00    +0.000 F 
BRANCH  22  31
ATOM     29  C   UNL     1       7.291  17.379  18.931  0.00  0.00    +0.000 C 
ATOM     30  N   UNL     1       8.123  16.235  18.662  0.00  0.00    +0.000 N 
ATOM     31  C   UNL     1       9.389  16.372  18.132  0.00  0.00    +0.000 C 
ATOM     32  O   UNL     1       9.873  17.464  17.851  0.00  0.00    +0.000 OA
ATOM     33  H   UNL     1       7.749  15.313  18.849  0.00  0.00    +0.000 HD
ENDBRANCH  22  31
ENDBRANCH  21  24
ENDBRANCH  20  21
ENDBRANCH  19  20
ENDBRANCH  18  19
ENDBRANCH   1  18
TORSDOF 8
ENDMDL
MODEL 2
REMARK VINA RESULT:      -9.0      2.000      2.500
REMARK  Name = 
REMARK  9 active torsions:
REMARK  status: ('A' for Active; 'I' for Inactive)
REMARK    1  A    between atoms: C_1  and  N_2
REMARK    2  A    between atoms: C_3  and  C_5
REMARK    3  A    between atoms: C_7  and  O_8
REMARK    4  A    between atoms: O_8  and  C_9
REMARK    5  A    between atoms: C_9  and  C_10
REMARK    6  A    between atoms: C_10  and  C_11
REMARK    7  A    between atoms: C_11  and  C_12
REMARK    8  A    between atoms: C_12  and  N_13
REMARK    9  A    between atoms: C_16  and  C_17
REMARK                            x       y       z     vdW  Elec       q    Type
REMARK                         _______ _______ _______ _____ _____    ______ ____
ROOT
ATOM      1  C   UNL     1       7.656   5.716  17.739  0.00  0.00    +0.000 C 
ENDROOT
BRANCH   1   2
ATOM      2  N   UNL     1       6.273   5.665  17.224  0.00  0.00    +0.000 NA
ATOM      3  C   UNL     1       6.080   4.492  16.355  0.00  0.00    +0.000 C 
ATOM      4  C   UNL     1       4.650   4.358  15.846  0.00  0.00    +0.000 C 
ATOM      5  C   UNL     1       3.602   4.394  16.940  0.00  0.00    +0.000 C 
ATOM      6  C   UNL     1       3.878   5.573  17.901  0.00  0.00    +0.000 C 
ATOM      7  C   UNL     1       5.332   5.647  18.356  0.00  0.00    +0.000 C 
BRANCH   5   8
ATOM      8  C   UNL     1       3.206   3.148  17.724  0.00  0.00    +0.000 A 
ATOM      9  N   UNL     1       2.322   2.400  17.036  0.00  0.00    +0.000 NA
ATOM     10  O   UNL     1       1.231   2.298  17.879  0.00  0.00    +0.000 OA
ATOM     11  C   UNL     1       1.635   2.609  19.133  0.00  0.00    +0.000 A 
ATOM     12  C   UNL     1       0.806   2.613  20.251  0.00  0.00    +0.000 A 
ATOM     13  C   UNL     1       1.468   2.651  21.467  0.00  0.00    +0.000 A 
ATOM     14  F   UNL     1       0.749   2.579  22.596  0.00  0.00    +0.000 F 
ATOM     15  C   UNL     1       2.861   2.707  21.540  0.00  0.00    +0.000 A 
ATOM     16  C   UNL     1       3.645   2.904  20.372  0.00  0.00    +0.000 A 
ATOM     17  C   UNL     1       2.993   2.889  19.123  0.00  0.00    +0.000 A 
ENDBRANCH   5   8
ENDBRANCH   1   2
BRANCH   1  18
ATOM     18  C   UNL     1       7.976   6.924  18.638  0.00  0.00    +0.000 C 
BRANCH  18  19
ATOM     19  C   UNL     1       8.070   8.275  17.918  0.00  0.00    +0.000 C 
BRANCH  19  20
ATOM     20  C   UNL     1       8.840   9.300  18.743  0.00  0.00    +0.000 C 
BRANCH  20  21
ATOM     21  O   UNL     1       9.078  10.486  17.982  0.00  0.00    +0.000 OA
BRANCH  21  24
ATOM     22  C   UNL     1       9.872  13.953  18.765  0.00  0.00    +0.000 A 
ATOM     23  C   UNL     1       9.371  12.807  18.144  0.00  0.00    +0.000 A 
ATOM     24  C   UNL     1       9.612  11.538  18.685  0.00  0.00    +0.000 A 
ATOM     25  C   UNL     1      10.368  11.426  19.856  0.00  0.00    +0.000 A 
ATOM     26  C   UNL     1      10.869  12.564  20.489  0.00  0.00    +0.000 A 
ATOM     27  C   UNL     1      10.616  13.822  19.950  0.00  0.00    +0.000 A 
ATOM     28  F   UNL     1      11.117  14.888  20.584  0.00  0.00    +0.000 F 
BRANCH  22  31
ATOM     29  C   UNL     1      10.525  17.353  17.177  0.00  0.00    +0.000 C 
ATOM     30  N   UNL     1      10.688  16.062  17.793  0.00  0.00    +0.000 N 
ATOM     31  C   UNL     1       9.602  15.290  18.149  0.00  0.00    +0.000 C 
ATOM     32  O   UNL     1       8.445  15.657  17.974  0.00  0.00    +0.000 OA
ATOM     33  H   UNL     1      11.628  15.736  17.985  0.00  0.00    +0.000 HD
ENDBRANCH  22  31
ENDBRANCH  21  24
ENDBRANCH  20  21
ENDBRANCH  19  20
ENDBRANCH  18  19
ENDBRANCH   1  18
TORSDOF 8
ENDMDL
MODEL 3
REMARK VINA RESULT:      -8.9      2.882      3.459
REMARK  Name = 
REMARK  9 active torsions:
REMARK  status: ('A' for Active; 'I' for Inactive)
REMARK    1  A    between atoms: C_1  and  N_2
REMARK    2  A    between atoms: C_3  and  C_5
REMARK    3  A    between atoms: C_7  and  O_8
REMARK    4  A    between atoms: O_8  and  C_9
REMARK    5  A    between atoms: C_9  and  C_10
REMARK    6  A    between atoms: C_10  and  C_11
REMARK    7  A    between atoms: C_11  and  C_12
REMARK    8  A    between atoms: C_12  and  N_13
REMARK    9  A    between atoms: C_16  and  C_17
REMARK                            x       y       z     vdW  Elec       q    Type
REMARK                         _______ _______ _______ _____ _____    ______ ____
ROOT
ATOM      1  C   UNL     1       7.436   8.783  17.488  0.00  0.00    +0.000 C 
ENDROOT
BRANCH   1   2
ATOM      2  N   UNL     1       7.222   7.367  17.129  0.00  0.00    +0.000 NA
ATOM      3  C   UNL     1       7.734   6.475  18.184  0.00  0.00    +0.000 C 
ATOM      4  C   UNL     1       7.482   5.001  17.891  0.00  0.00    +0.000 C 
ATOM      5  C   UNL     1       6.038   4.677  17.566  0.00  0.00    +0.000 C 
ATOM      6  C   UNL     1       5.487   5.683  16.531  0.00  0.00    +0.000 C 
ATOM      7  C   UNL     1       5.789   7.136  16.888  0.00  0.00    +0.000 C 
BRANCH   5   8
ATOM      8  C   UNL     1       5.003   4.410  18.654  0.00  0.00    +0.000 A 
ATOM      9  N   UNL     1       5.532   3.693  19.664  0.00  0.00    +0.000 NA
ATOM     10  O   UNL     1       4.728   2.572  19.746  0.00  0.00    +0.000 OA
ATOM     11  C   UNL     1       3.565   2.839  19.105  0.00  0.00    +0.000 A 
ATOM     12  C   UNL     1       2.508   1.942  18.983  0.00  0.00    +0.000 A 
ATOM     13  C   UNL     1       1.310   2.505  18.574  0.00  0.00    +0.000 A 
ATOM     14  F   UNL     1       0.222   1.726  18.506  0.00  0.00    +0.000 F 
ATOM     15  C   UNL     1       1.203   3.867  18.287  0.00  0.00    +0.000 A 
ATOM     16  C   UNL     1       2.357   4.694  18.234  0.00  0.00    +0.000 A 
ATOM     17  C   UNL     1       3.591   4.139  18.626  0.00  0.00    +0.000 A 
ENDBRANCH   5   8
ENDBRANCH   1   2
BRANCH   1  18
ATOM     18  C   UNL     1       8.627   9.048  18.426  0.00  0.00    +0.000 C 
BRANCH  18  19
ATOM     19  C   UNL     1       9.322  10.403  18.243  0.00  0.00    +0.000 C 
BRANCH  19  20
ATOM     20  C   UNL     1       9.972  10.881  19.536  0.00  0.00    +0.000 C 
BRANCH  20  21
ATOM     21  O   UNL     1       9.069  10.747  20.636  0.00  0.00    +0.000 OA
BRANCH  21  24
ATOM     22  C   UNL     1       9.572  14.185  21.725  0.00  0.00    +0.000 A 
ATOM     23  C   UNL     1       9.594  13.006  20.977  0.00  0.00    +0.000 A 
ATOM     24  C   UNL     1       8.973  11.845  21.454  0.00  0.00    +0.000 A 
ATOM     25  C   UNL     1       8.334  11.874  22.698  0.00  0.00    +0.000 A 
ATOM     26  C   UNL     1       8.300  13.047  23.452  0.00  0.00    +0.000 A 
ATOM     27  C   UNL     1       8.910  14.199  22.965  0.00  0.00    +0.000 A 
ATOM     28  F   UNL     1       8.860  15.303  23.720  0.00  0.00    +0.000 F 
BRANCH  22  31
ATOM     29  C   UNL     1      10.280  17.196  19.501  0.00  0.00    +0.000 C 
ATOM     30  N   UNL     1       9.702  16.011  20.078  0.00  0.00    +0.000 N 
ATOM     31  C   UNL     1      10.256  15.402  21.185  0.00  0.00    +0.000 C 
ATOM     32  O   UNL     1      11.269  15.824  21.732  0.00  0.00    +0.000 OA
ATOM     33  H   UNL     1       8.882  15.610  19.636  0.00  0.00    +0.000 HD
ENDBRANCH  22  31
ENDBRANCH  21  24
ENDBRANCH  20  21
ENDBRANCH  19  20
ENDBRANCH  18  19
ENDBRANCH   1  18
TORSDOF 8
ENDMDL
MODEL 4
REMARK VINA RESULT:      -8.7      6.178      8.981
REMARK  Name = 
REMARK  9 active torsions:
REMARK  status: ('A' for Active; 'I' for Inactive)
REMARK    1  A    between atoms: C_1  and  N_2
REMARK    2  A    between atoms: C_3  and  C_5
REMARK    3  A    between atoms: C_7  and  O_8
REMARK    4  A    between atoms: O_8  and  C_9
REMARK    5  A    between atoms: C_9  and  C_10
REMARK    6  A    between atoms: C_10  and  C_11
REMARK    7  A    between atoms: C_11  and  C_12
REMARK    8  A    between atoms: C_12  and  N_13
REMARK    9  A    between atoms: C_16  and  C_17
REMARK                            x       y       z     vdW  Elec       q    Type
REMARK                         _______ _______ _______ _____ _____    ______ ____
ROOT
ATOM      1  C   UNL     1       1.777   7.899  20.840  0.00  0.00    +0.000 C 
ENDROOT
BRANCH   1   2
ATOM      2  N   UNL     1       1.612   6.807  19.860  0.00  0.00    +0.000 NA
ATOM      3  C   UNL     1       2.264   7.144  18.583  0.00  0.00    +0.000 C 
ATOM      4  C   UNL     1       2.176   6.022  17.556  0.00  0.00    +0.000 C 
ATOM      5  C   UNL     1       2.659   4.681  18.068  0.00  0.00    +0.000 C 
ATOM      6  C   UNL     1       2.042   4.387  19.454  0.00  0.00    +0.000 C 
ATOM      7  C   UNL     1       2.159   5.561  20.422  0.00  0.00    +0.000 C 
BRANCH   5   8
ATOM      8  C   UNL     1       4.132   4.288  18.045  0.00  0.00    +0.000 A 
ATOM      9  N   UNL     1       4.411   3.390  19.010  0.00  0.00    +0.000 NA
ATOM     10  O   UNL     1       5.411   3.988  19.755  0.00  0.00    +0.000 OA
ATOM     11  C   UNL     1       5.960   4.976  19.009  0.00  0.00    +0.000 A 
ATOM     12  C   UNL     1       7.000   5.798  19.432  0.00  0.00    +0.000 A 
ATOM     13  C   UNL     1       7.615   6.523  18.425  0.00  0.00    +0.000 A 
ATOM     14  F   UNL     1       8.678   7.280  18.732  0.00  0.00    +0.000 F 
ATOM     15  C   UNL     1       7.190   6.439  17.098  0.00  0.00    +0.000 A 
ATOM     16  C   UNL     1       5.999   5.743  16.758  0.00  0.00    +0.000 A 
ATOM     17  C   UNL     1       5.343   5.014  17.769  0.00  0.00    +0.000 A 
ENDBRANCH   5   8
ENDBRANCH   1   2
BRANCH   1  18
ATOM     18  C   UNL     1       0.503   8.280  21.616  0.00  0.00    +0.000 C 
BRANCH  18  19
ATOM     19  C   UNL     1       0.687   9.350  22.699  0.00  0.00    +0.000 C 
BRANCH  19  20
ATOM     20  C   UNL     1      -0.600  10.130  22.943  0.00  0.00    +0.000 C 
BRANCH  20  21
ATOM     21  O   UNL     1      -0.362  11.537  22.860  0.00  0.00    +0.000 OA
BRANCH  21  24
ATOM     22  C   UNL     1      -1.415  11.921  19.395  0.00  0.00    +0.000 A 
ATOM     23  C   UNL     1      -1.307  11.478  20.715  0.00  0.00    +0.000 A 
ATOM     24  C   UNL     1      -0.383  12.062  21.591  0.00  0.00    +0.000 A 
ATOM     25  C   UNL     1       0.441  13.093  21.128  0.00  0.00    +0.000 A 
ATOM     26  C   UNL     1       0.338  13.547  19.813  0.00  0.00    +0.000 A 
ATOM     27  C   UNL     1      -0.590  12.969  18.953  0.00  0.00    +0.000 A 
ATOM     28  F   UNL     1      -0.655  13.429  17.698  0.00  0.00    +0.000 F 
BRANCH  22  31
ATOM     29  C   UNL     1      -4.452  11.486  17.137  0.00  0.00    +0.000 C 
ATOM     30  N   UNL     1      -3.461  12.028  18.028  0.00  0.00    +0.000 N 
ATOM     31  C   UNL     1      -2.408  11.264  18.487  0.00  0.00    +0.000 C 
ATOM     32  O   UNL     1      -2.260  10.088  18.173  0.00  0.00    +0.000 OA
ATOM     33  H   UNL     1      -3.564  12.987  18.338  0.00  0.00    +0.000 HD
ENDBRANCH  22  31
ENDBRANCH  21  24
ENDBRANCH  20  21
ENDBRANCH  19  20
ENDBRANCH  18  19
ENDBRANCH   1  18
TORSDOF 8
ENDMDL
MODEL 5
REMARK VINA RESULT:      -8.7      5.939      8.999
REMARK  Name = 
REMARK  9 active torsions:
REMARK  status: ('A' for Active; 'I' for Inactive)
REMARK    1  A    between atoms: C_1  and  N_2
REMARK    2  A    between atoms: C_3  and  C_5
REMARK    3  A    between atoms: C_7  and  O_8
REMARK    4  A    between atoms: O_8  and  C_9
REMARK    5  A    between atoms: C_9  and  C_10
REMARK    6  A    between atoms: C_10  and  C_11
REMARK    7  A    between atoms: C_11  and  C_12
REMARK    8  A    between atoms: C_12  and  N_13
REMARK    9  A    between atoms: C_16  and  C_17
REMARK                            x       y       z     vdW  Elec       q    Type
REMARK                         _______ _______ _______ _____ _____    ______ ____
ROOT
ATOM      1  C   UNL     1       1.320   5.389  20.129  0.00  0.00    +0.000 C 
ENDROOT
BRANCH   1   2
ATOM      2  N   UNL     1       2.029   4.298  19.432  0.00  0.00    +0.000 NA
ATOM      3  C   UNL     1       1.658   4.257  18.007  0.00  0.00    +0.000 C 
ATOM      4  C   UNL     1       2.410   3.186  17.227  0.00  0.00    +0.000 C 
ATOM      5  C   UNL     1       3.915   3.249  17.389  0.00  0.00    +0.000 C 
ATOM      6  C   UNL     1       4.283   3.391  18.883  0.00  0.00    +0.000 C 
ATOM      7  C   UNL     1       3.480   4.475  19.597  0.00  0.00    +0.000 C 
BRANCH   5   8
ATOM      8  C   UNL     1       4.784   4.167  16.536  0.00  0.00    +0.000 A 
ATOM      9  N   UNL     1       5.718   3.466  15.864  0.00  0.00    +0.000 NA
ATOM     10  O   UNL     1       6.917   4.028  16.260  0.00  0.00    +0.000 OA
ATOM     11  C   UNL     1       6.658   5.246  16.794  0.00  0.00    +0.000 A 
ATOM     12  C   UNL     1       7.627   6.107  17.300  0.00  0.00    +0.000 A 
ATOM     13  C   UNL     1       7.198   7.408  17.507  0.00  0.00    +0.000 A 
ATOM     14  F   UNL     1       8.088   8.322  17.920  0.00  0.00    +0.000 F 
ATOM     15  C   UNL     1       5.883   7.795  17.245  0.00  0.00    +0.000 A 
ATOM     16  C   UNL     1       4.890   6.831  16.923  0.00  0.00    +0.000 A 
ATOM     17  C   UNL     1       5.297   5.497  16.727  0.00  0.00    +0.000 A 
ENDBRANCH   5   8
ENDBRANCH   1   2
BRANCH   1  18
ATOM     18  C   UNL     1       2.217   6.534  20.635  0.00  0.00    +0.000 C 
BRANCH  18  19
ATOM     19  C   UNL     1       1.793   7.943  20.204  0.00  0.00    +0.000 C 
BRANCH  19  20
ATOM     20  C   UNL     1       1.953   8.145  18.702  0.00  0.00    +0.000 C 
BRANCH  20  21
ATOM     21  O   UNL     1       1.966   9.537  18.377  0.00  0.00    +0.000 OA
BRANCH  21  24
ATOM     22  C   UNL     1      -1.454  10.769  18.584  0.00  0.00    +0.000 A 
ATOM     23  C   UNL     1      -0.307  10.078  18.187  0.00  0.00    +0.000 A 
ATOM     24  C   UNL     1       0.906  10.262  18.863  0.00  0.00    +0.000 A 
ATOM     25  C   UNL     1       0.962  11.154  19.938  0.00  0.00    +0.000 A 
ATOM     26  C   UNL     1      -0.179  11.846  20.347  0.00  0.00    +0.000 A 
ATOM     27  C   UNL     1      -1.383  11.649  19.678  0.00  0.00    +0.000 A 
ATOM     28  F   UNL     1      -2.453  12.334  20.096  0.00  0.00    +0.000 F 
BRANCH  22  31
ATOM     29  C   UNL     1      -4.435  11.489  16.323  0.00  0.00    +0.000 C 
ATOM     30  N   UNL     1      -3.226  11.610  17.095  0.00  0.00    +0.000 N 
ATOM     31  C   UNL     1      -2.729  10.553  17.830  0.00  0.00    +0.000 C 
ATOM     32  O   UNL     1      -3.287   9.462  17.876  0.00  0.00    +0.000 OA
ATOM     33  H   UNL     1      -2.752  12.505  17.110  0.00  0.00    +0.000 HD
ENDBRANCH  22  31
ENDBRANCH  21  24
ENDBRANCH  20  21
ENDBRANCH  19  20
ENDBRANCH  18  19
ENDBRANCH   1  18
TORSDOF 8
ENDMDL
MODEL 6
REMARK VINA RESULT:      -8.7      2.319      2.646
REMARK  Name = 
REMARK  9 active torsions:
REMARK  status: ('A' for Active; 'I' for Inactive)
REMARK    1  A    between atoms: C_1  and  N_2
REMARK    2  A    between atoms: C_3  and  C_5
REMARK    3  A    between atoms: C_7  and  O_8
REMARK    4  A    between atoms: O_8  and  C_9
REMARK    5  A    between atoms: C_9  and  C_10
REMARK    6  A    between atoms: C_10  and  C_11
REMARK    7  A    between atoms: C_11  and  C_12
REMARK    8  A    between atoms: C_12  and  N_13
REMARK    9  A    between atoms: C_16  and  C_17
REMARK                            x       y       z     vdW  Elec       q    Type
REMARK                         _______ _______ _______ _____ _____    ______ ____
ROOT
ATOM      1  C   UNL     1       7.438   8.902  17.613  0.00  0.00    +0.000 C 
ENDROOT
BRANCH   1   2
ATOM      2  N   UNL     1       7.257   7.487  17.233  0.00  0.00    +0.000 NA
ATOM      3  C   UNL     1       7.768   6.591  18.285  0.00  0.00    +0.000 C 
ATOM      4  C   UNL     1       7.549   5.117  17.969  0.00  0.00    +0.000 C 
ATOM      5  C   UNL     1       6.117   4.770  17.617  0.00  0.00    +0.000 C 
ATOM      6  C   UNL     1       5.564   5.779  16.585  0.00  0.00    +0.000 C 
ATOM      7  C   UNL     1       5.833   7.232  16.965  0.00  0.00    +0.000 C 
BRANCH   5   8
ATOM      8  C   UNL     1       5.070   4.470  18.683  0.00  0.00    +0.000 A 
ATOM      9  N   UNL     1       5.589   3.726  19.679  0.00  0.00    +0.000 NA
ATOM     10  O   UNL     1       4.787   2.600  19.719  0.00  0.00    +0.000 OA
ATOM     11  C   UNL     1       3.630   2.883  19.073  0.00  0.00    +0.000 A 
ATOM     12  C   UNL     1       2.578   1.987  18.912  0.00  0.00    +0.000 A 
ATOM     13  C   UNL     1       1.384   2.558  18.504  0.00  0.00    +0.000 A 
ATOM     14  F   UNL     1       0.298   1.779  18.401  0.00  0.00    +0.000 F 
ATOM     15  C   UNL     1       1.276   3.927  18.255  0.00  0.00    +0.000 A 
ATOM     16  C   UNL     1       2.428   4.758  18.240  0.00  0.00    +0.000 A 
ATOM     17  C   UNL     1       3.659   4.196  18.631  0.00  0.00    +0.000 A 
ENDBRANCH   5   8
ENDBRANCH   1   2
BRANCH   1  18
ATOM     18  C   UNL     1       8.613   9.178  18.569  0.00  0.00    +0.000 C 
BRANCH  18  19
ATOM     19  C   UNL     1       9.485  10.387  18.210  0.00  0.00    +0.000 C 
BRANCH  19  20
ATOM     20  C   UNL     1      10.009  11.094  19.455  0.00  0.00    +0.000 C 
BRANCH  20  21
ATOM     21  O   UNL     1      11.158  11.884  19.142  0.00  0.00    +0.000 OA
BRANCH  21  24
ATOM     22  C   UNL     1      11.021  15.403  20.072  0.00  0.00    +0.000 A 
ATOM     23  C   UNL     1      11.227  14.022  20.103  0.00  0.00    +0.000 A 
ATOM     24  C   UNL     1      10.921  13.229  18.990  0.00  0.00    +0.000 A 
ATOM     25  C   UNL     1      10.396  13.833  17.844  0.00  0.00    +0.000 A 
ATOM     26  C   UNL     1      10.191  15.212  17.799  0.00  0.00    +0.000 A 
ATOM     27  C   UNL     1      10.508  15.994  18.905  0.00  0.00    +0.000 A 
ATOM     28  F   UNL     1      10.292  17.312  18.825  0.00  0.00    +0.000 F 
BRANCH  22  31
ATOM     29  C   UNL     1      10.773  16.818  23.600  0.00  0.00    +0.000 C 
ATOM     30  N   UNL     1      10.523  16.092  22.383  0.00  0.00    +0.000 N 
ATOM     31  C   UNL     1      11.351  16.214  21.286  0.00  0.00    +0.000 C 
ATOM     32  O   UNL     1      12.333  16.948  21.280  0.00  0.00    +0.000 OA
ATOM     33  H   UNL     1       9.702  15.500  22.335  0.00  0.00    +0.000 HD
ENDBRANCH  22  31
ENDBRANCH  21  24
ENDBRANCH  20  21
ENDBRANCH  19  20
ENDBRANCH  18  19
ENDBRANCH   1  18
TORSDOF 8
ENDMDL
MODEL 7
REMARK VINA RESULT:      -8.6      2.669     10.994
REMARK  Name = 
REMARK  9 active torsions:
REMARK  status: ('A' for Active; 'I' for Inactive)
REMARK    1  A    between atoms: C_1  and  N_2
REMARK    2  A    between atoms: C_3  and  C_5
REMARK    3  A    between atoms: C_7  and  O_8
REMARK    4  A    between atoms: O_8  and  C_9
REMARK    5  A    between atoms: C_9  and  C_10
REMARK    6  A    between atoms: C_10  and  C_11
REMARK    7  A    between atoms: C_11  and  C_12
REMARK    8  A    between atoms: C_12  and  N_13
REMARK    9  A    between atoms: C_16  and  C_17
REMARK                            x       y       z     vdW  Elec       q    Type
REMARK                         _______ _______ _______ _____ _____    ______ ____
ROOT
ATOM      1  C   UNL     1       8.709  10.202  17.945  0.00  0.00    +0.000 C 
ENDROOT
BRANCH   1   2
ATOM      2  N   UNL     1       9.910  10.822  18.538  0.00  0.00    +0.000 NA
ATOM      3  C   UNL     1      10.315  12.016  17.777  0.00  0.00    +0.000 C 
ATOM      4  C   UNL     1      11.515  12.730  18.385  0.00  0.00    +0.000 C 
ATOM      5  C   UNL     1      11.355  13.059  19.855  0.00  0.00    +0.000 C 
ATOM      6  C   UNL     1      10.836  11.822  20.623  0.00  0.00    +0.000 C 
ATOM      7  C   UNL     1       9.641  11.156  19.946  0.00  0.00    +0.000 C 
BRANCH   5   8
ATOM      8  C   UNL     1      10.644  14.320  20.331  0.00  0.00    +0.000 A 
ATOM      9  N   UNL     1      10.181  14.174  21.588  0.00  0.00    +0.000 NA
ATOM     10  O   UNL     1       8.824  14.415  21.483  0.00  0.00    +0.000 OA
ATOM     11  C   UNL     1       8.599  15.072  20.321  0.00  0.00    +0.000 A 
ATOM     12  C   UNL     1       7.346  15.483  19.877  0.00  0.00    +0.000 A 
ATOM     13  C   UNL     1       7.369  16.398  18.837  0.00  0.00    +0.000 A 
ATOM     14  F   UNL     1       6.207  16.906  18.401  0.00  0.00    +0.000 F 
ATOM     15  C   UNL     1       8.568  16.840  18.276  0.00  0.00    +0.000 A 
ATOM     16  C   UNL     1       9.804  16.236  18.632  0.00  0.00    +0.000 A 
ATOM     17  C   UNL     1       9.806  15.287  19.673  0.00  0.00    +0.000 A 
ENDBRANCH   5   8
ENDBRANCH   1   2
BRANCH   1  18
ATOM     18  C   UNL     1       8.423   8.760  18.401  0.00  0.00    +0.000 C 
BRANCH  18  19
ATOM     19  C   UNL     1       7.695   7.877  17.380  0.00  0.00    +0.000 C 
BRANCH  19  20
ATOM     20  C   UNL     1       7.282   6.540  17.984  0.00  0.00    +0.000 C 
BRANCH  20  21
ATOM     21  O   UNL     1       6.696   5.696  16.991  0.00  0.00    +0.000 OA
BRANCH  21  24
ATOM     22  C   UNL     1       3.246   6.067  18.097  0.00  0.00    +0.000 A 
ATOM     23  C   UNL     1       4.588   6.321  17.805  0.00  0.00    +0.000 A 
ATOM     24  C   UNL     1       5.392   5.333  17.224  0.00  0.00    +0.000 A 
ATOM     25  C   UNL     1       4.839   4.078  16.945  0.00  0.00    +0.000 A 
ATOM     26  C   UNL     1       3.499   3.814  17.228  0.00  0.00    +0.000 A 
ATOM     27  C   UNL     1       2.704   4.806  17.794  0.00  0.00    +0.000 A 
ATOM     28  F   UNL     1       1.425   4.512  18.055  0.00  0.00    +0.000 F 
BRANCH  22  31
ATOM     29  C   UNL     1       1.476   8.100  20.789  0.00  0.00    +0.000 C 
ATOM     30  N   UNL     1       2.237   7.095  20.094  0.00  0.00    +0.000 N 
ATOM     31  C   UNL     1       2.422   7.146  18.728  0.00  0.00    +0.000 C 
ATOM     32  O   UNL     1       1.948   8.036  18.030  0.00  0.00    +0.000 OA
ATOM     33  H   UNL     1       2.619   6.325  20.629  0.00  0.00    +0.000 HD
ENDBRANCH  22  31
ENDBRANCH  21  24
ENDBRANCH  20  21
ENDBRANCH  19  20
ENDBRANCH  18  19
ENDBRANCH   1  18
TORSDOF 8
ENDMDL
MODEL 8
REMARK VINA RESULT:      -8.6      2.658     10.836
REMARK  Name = 
REMARK  9 active torsions:
REMARK  status: ('A' for Active; 'I' for Inactive)
REMARK    1  A    between atoms: C_1  and  N_2
REMARK    2  A    between atoms: C_3  and  C_5
REMARK    3  A    between atoms: C_7  and  O_8
REMARK    4  A    between atoms: O_8  and  C_9
REMARK    5  A    between atoms: C_9  and  C_10
REMARK    6  A    between atoms: C_10  and  C_11
REMARK    7  A    between atoms: C_11  and  C_12
REMARK    8  A    between atoms: C_12  and  N_13
REMARK    9  A    between atoms: C_16  and  C_17
REMARK                            x       y       z     vdW  Elec       q    Type
REMARK                         _______ _______ _______ _____ _____    ______ ____
ROOT
ATOM      1  C   UNL     1       8.094   9.604  18.155  0.00  0.00    +0.000 C 
ENDROOT
BRANCH   1   2
ATOM      2  N   UNL     1       9.337  10.175  18.710  0.00  0.00    +0.000 NA
ATOM      3  C   UNL     1       9.967  11.095  17.747  0.00  0.00    +0.000 C 
ATOM      4  C   UNL     1      11.224  11.761  18.295  0.00  0.00    +0.000 C 
ATOM      5  C   UNL     1      11.026  12.438  19.635  0.00  0.00    +0.000 C 
ATOM      6  C   UNL     1      10.276  11.495  20.603  0.00  0.00    +0.000 C 
ATOM      7  C   UNL     1       9.037  10.859  19.978  0.00  0.00    +0.000 C 
BRANCH   5   8
ATOM      8  C   UNL     1      10.488  13.860  19.753  0.00  0.00    +0.000 A 
ATOM      9  N   UNL     1      10.733  14.374  20.974  0.00  0.00    +0.000 NA
ATOM     10  O   UNL     1       9.484  14.720  21.456  0.00  0.00    +0.000 OA
ATOM     11  C   UNL     1       8.631  14.791  20.406  0.00  0.00    +0.000 A 
ATOM     12  C   UNL     1       7.281  15.116  20.508  0.00  0.00    +0.000 A 
ATOM     13  C   UNL     1       6.668  15.437  19.308  0.00  0.00    +0.000 A 
ATOM     14  F   UNL     1       5.389  15.838  19.324  0.00  0.00    +0.000 F 
ATOM     15  C   UNL     1       7.364  15.403  18.098  0.00  0.00    +0.000 A 
ATOM     16  C   UNL     1       8.680  14.871  18.029  0.00  0.00    +0.000 A 
ATOM     17  C   UNL     1       9.319  14.518  19.235  0.00  0.00    +0.000 A 
ENDBRANCH   5   8
ENDBRANCH   1   2
BRANCH   1  18
ATOM     18  C   UNL     1       8.226   8.181  17.583  0.00  0.00    +0.000 C 
BRANCH  18  19
ATOM     19  C   UNL     1       7.999   7.043  18.587  0.00  0.00    +0.000 C 
BRANCH  19  20
ATOM     20  C   UNL     1       7.511   5.774  17.898  0.00  0.00    +0.000 C 
BRANCH  20  21
ATOM     21  O   UNL     1       6.766   4.960  18.807  0.00  0.00    +0.000 OA
BRANCH  21  24
ATOM     22  C   UNL     1       3.145   5.203  19.107  0.00  0.00    +0.000 A 
ATOM     23  C   UNL     1       4.515   5.344  19.339  0.00  0.00    +0.000 A 
ATOM     24  C   UNL     1       5.450   4.762  18.473  0.00  0.00    +0.000 A 
ATOM     25  C   UNL     1       4.996   4.026  17.373  0.00  0.00    +0.000 A 
ATOM     26  C   UNL     1       3.631   3.883  17.128  0.00  0.00    +0.000 A 
ATOM     27  C   UNL     1       2.709   4.475  17.987  0.00  0.00    +0.000 A 
ATOM     28  F   UNL     1       1.408   4.311  17.722  0.00  0.00    +0.000 F 
BRANCH  22  31
ATOM     29  C   UNL     1       1.319   7.896  21.088  0.00  0.00    +0.000 C 
ATOM     30  N   UNL     1       2.222   7.203  20.208  0.00  0.00    +0.000 N 
ATOM     31  C   UNL     1       2.179   5.832  20.062  0.00  0.00    +0.000 C 
ATOM     32  O   UNL     1       1.383   5.128  20.675  0.00  0.00    +0.000 OA
ATOM     33  H   UNL     1       2.917   7.745  19.707  0.00  0.00    +0.000 HD
ENDBRANCH  22  31
ENDBRANCH  21  24
ENDBRANCH  20  21
ENDBRANCH  19  20
ENDBRANCH  18  19
ENDBRANCH   1  18
TORSDOF 8
ENDMDL
MODEL 9
REMARK VINA RESULT:      -8.6      2.532      3.145
REMARK  Name = 
REMARK  9 active torsions:
REMARK  status: ('A' for Active; 'I' for Inactive)
REMARK    1  A    between atoms: C_1  and  N_2
REMARK    2  A    between atoms: C_3  and  C_5
REMARK    3  A    between atoms: C_7  and  O_8
REMARK    4  A    between atoms: O_8  and  C_9
REMARK    5  A    between atoms: C_9  and  C_10
REMARK    6  A    between atoms: C_10  and  C_11
REMARK    7  A    between atoms: C_11  and  C_12
REMARK    8  A    between atoms: C_12  and  N_13
REMARK    9  A    between atoms: C_16  and  C_17
REMARK                            x       y       z     vdW  Elec       q    Type
REMARK                         _______ _______ _______ _____ _____    ______ ____
ROOT
ATOM      1  C   UNL     1       7.319   8.642  17.353  0.00  0.00    +0.000 C 
ENDROOT
BRANCH   1   2
ATOM      2  N   UNL     1       7.193   7.193  17.103  0.00  0.00    +0.000 NA
ATOM      3  C   UNL     1       7.680   6.416  18.255  0.00  0.00    +0.000 C 
ATOM      4  C   UNL     1       7.514   4.913  18.073  0.00  0.00    +0.000 C 
ATOM      5  C   UNL     1       6.109   4.490  17.696  0.00  0.00    +0.000 C 
ATOM      6  C   UNL     1       5.576   5.380  16.550  0.00  0.00    +0.000 C 
ATOM      7  C   UNL     1       5.789   6.870  16.801  0.00  0.00    +0.000 C 
BRANCH   5   8
ATOM      8  C   UNL     1       5.024   4.260  18.742  0.00  0.00    +0.000 A 
ATOM      9  N   UNL     1       5.493   3.539  19.779  0.00  0.00    +0.000 NA
ATOM     10  O   UNL     1       4.657   2.439  19.837  0.00  0.00    +0.000 OA
ATOM     11  C   UNL     1       3.528   2.730  19.147  0.00  0.00    +0.000 A 
ATOM     12  C   UNL     1       2.455   1.858  18.988  0.00  0.00    +0.000 A 
ATOM     13  C   UNL     1       1.290   2.448  18.526  0.00  0.00    +0.000 A 
ATOM     14  F   UNL     1       0.185   1.696  18.419  0.00  0.00    +0.000 F 
ATOM     15  C   UNL     1       1.229   3.809  18.223  0.00  0.00    +0.000 A 
ATOM     16  C   UNL     1       2.405   4.606  18.211  0.00  0.00    +0.000 A 
ATOM     17  C   UNL     1       3.608   4.024  18.658  0.00  0.00    +0.000 A 
ENDBRANCH   5   8
ENDBRANCH   1   2
BRANCH   1  18
ATOM     18  C   UNL     1       8.617   9.074  18.059  0.00  0.00    +0.000 C 
BRANCH  18  19
ATOM     19  C   UNL     1       8.541  10.401  18.825  0.00  0.00    +0.000 C 
BRANCH  19  20
ATOM     20  C   UNL     1       9.913  10.844  19.321  0.00  0.00    +0.000 C 
BRANCH  20  21
ATOM     21  O   UNL     1       9.896  11.050  20.735  0.00  0.00    +0.000 OA
BRANCH  21  24
ATOM     22  C   UNL     1      10.651  14.613  20.724  0.00  0.00    +0.000 A 
ATOM     23  C   UNL     1      10.626  13.253  20.404  0.00  0.00    +0.000 A 
ATOM     24  C   UNL     1       9.832  12.361  21.136  0.00  0.00    +0.000 A 
ATOM     25  C   UNL     1       9.066  12.845  22.202  0.00  0.00    +0.000 A 
ATOM     26  C   UNL     1       9.079  14.201  22.528  0.00  0.00    +0.000 A 
ATOM     27  C   UNL     1       9.862  15.082  21.788  0.00  0.00    +0.000 A 
ATOM     28  F   UNL     1       9.851  16.374  22.134  0.00  0.00    +0.000 F 
BRANCH  22  31
ATOM     29  C   UNL     1      12.152  16.383  17.704  0.00  0.00    +0.000 C 
ATOM     30  N   UNL     1      11.373  15.520  18.552  0.00  0.00    +0.000 N 
ATOM     31  C   UNL     1      11.520  15.532  19.924  0.00  0.00    +0.000 C 
ATOM     32  O   UNL     1      12.322  16.263  20.495  0.00  0.00    +0.000 OA
ATOM     33  H   UNL     1      10.722  14.877  18.117  0.00  0.00    +0.000 HD
ENDBRANCH  22  31
ENDBRANCH  21  24
ENDBRANCH  20  21
ENDBRANCH  19  20
ENDBRANCH  18  19
ENDBRANCH   1  18
TORSDOF 8
ENDMDL
