MODEL 1
REMARK VINA RESULT:      -9.5      0.000      0.000
REMARK  Name = 
REMARK  5 active torsions:
REMARK  status: ('A' for Active; 'I' for Inactive)
REMARK    1  A    between atoms: C_2  and  C_3
REMARK    2  A    between atoms: C_3  and  C_4
REMARK    3  A    between atoms: C_7  and  N_8
REMARK    4  A    between atoms: N_8  and  C_9
REMARK    5  A    between atoms: C_16  and  C_17
REMARK                            x       y       z     vdW  Elec       q    Type
REMARK                         _______ _______ _______ _____ _____    ______ ____
ROOT
ATOM      1  C   UNL     1       7.047   6.352  16.851  0.00  0.00    +0.000 A 
ATOM      2  N   UNL     1       7.984   6.380  17.772  0.00  0.00    +0.000 NA
ATOM      3  C   UNL     1       7.651   5.532  18.737  0.00  0.00    +0.000 A 
ATOM      4  N   UNL     1       6.477   4.878  18.858  0.00  0.00    +0.000 NA
ATOM      5  C   UNL     1       5.414   5.398  18.209  0.00  0.00    +0.000 A 
ATOM      6  C   UNL     1       4.157   5.003  18.693  0.00  0.00    +0.000 A 
ATOM      7  C   UNL     1       3.046   5.858  18.812  0.00  0.00    +0.000 A 
ATOM      8  C   UNL     1       3.118   7.215  18.556  0.00  0.00    +0.000 A 
ATOM      9  C   UNL     1       4.352   7.516  17.787  0.00  0.00    +0.000 A 
ATOM     10  C   UNL     1       5.571   6.472  17.362  0.00  0.00    +0.000 A 
ENDROOT
BRANCH   8  11
ATOM     11  C   UNL     1       1.932   8.051  19.220  0.00  0.00    +0.000 A 
ATOM     12  C   UNL     1       1.277   9.085  18.444  0.00  0.00    +0.000 A 
ATOM     13  C   UNL     1       0.424  10.099  18.969  0.00  0.00    +0.000 A 
ATOM     14  C   UNL     1       0.141  10.144  20.325  0.00  0.00    +0.000 A 
ATOM     15  C   UNL     1       0.687   9.138  21.121  0.00  0.00    +0.000 A 
ATOM     16  C   UNL     1       1.547   8.098  20.575  0.00  0.00    +0.000 A 
ATOM     17  O   UNL     1       0.497   9.147  22.485  0.00  0.00    +0.000 OA
ATOM     18  C   UNL     1      -0.663   9.895  22.885  0.00  0.00    +0.000 C 
ATOM     19  C   UNL     1      -0.803  11.244  22.195  0.00  0.00    +0.000 C 
ATOM     20  O   UNL     1      -0.659  11.162  20.775  0.00  0.00    +0.000 OA
ENDBRANCH   8  11
BRANCH   1  21
ATOM     21  N   UNL     1       7.506   5.386  15.682  0.00  0.00    +0.000 N 
ATOM     22  H   UNL     1       7.441   4.534  16.262  0.00  0.00    +0.000 HD
BRANCH  21  26
ATOM     23  C   UNL     1       5.122   3.331  12.036  0.00  0.00    +0.000 A 
ATOM     24  C   UNL     1       6.494   3.778  11.992  0.00  0.00    +0.000 A 
ATOM     25  C   UNL     1       7.302   4.444  13.147  0.00  0.00    +0.000 A 
ATOM     26  C   UNL     1       6.787   4.744  14.423  0.00  0.00    +0.000 A 
ATOM     27  C   UNL     1       5.444   4.236  14.501  0.00  0.00    +0.000 A 
ATOM     28  C   UNL     1       4.641   3.569  13.358  0.00  0.00    +0.000 A 
BRANCH  23  29
ATOM     29  C   UNL     1       4.151   2.584  10.671  0.00  0.00    +0.000 C 
BRANCH  29  31
ATOM     30  N   UNL     1       2.663   4.654   9.558  0.00  0.00    +0.000 NA
ATOM     31  C   UNL     1       3.337   3.715  10.063  0.00  0.00    +0.000 C 
ENDBRANCH  29  31
ENDBRANCH  23  29
ENDBRANCH  21  26
ENDBRANCH   1  21
TORSDOF 5
ENDMDL
MODEL 2
REMARK VINA RESULT:      -9.0      1.429      1.757
REMARK  Name = 
REMARK  5 active torsions:
REMARK  status: ('A' for Active; 'I' for Inactive)
REMARK    1  A    between atoms: C_2  and  C_3
REMARK    2  A    between atoms: C_3  and  C_4
REMARK    3  A    between atoms: C_7  and  N_8
REMARK    4  A    between atoms: N_8  and  C_9
REMARK    5  A    between atoms: C_16  and  C_17
REMARK                            x       y       z     vdW  Elec       q    Type
REMARK                         _______ _______ _______ _____ _____    ______ ____
ROOT
ATOM      1  C   UNL     1       6.938   6.655  17.116  0.00  0.00    +0.000 A 
ATOM      2  N   UNL     1       7.675   6.372  18.167  0.00  0.00    +0.000 NA
ATOM      3  C   UNL     1       7.082   5.397  18.845  0.00  0.00    +0.000 A 
ATOM      4  N   UNL     1       5.852   4.893  18.612  0.00  0.00    +0.000 NA
ATOM      5  C   UNL     1       4.989   5.669  17.923  0.00  0.00    +0.000 A 
ATOM      6  C   UNL     1       3.631   5.353  18.082  0.00  0.00    +0.000 A 
ATOM      7  C   UNL     1       2.602   6.304  18.196  0.00  0.00    +0.000 A 
ATOM      8  C   UNL     1       2.846   7.663  18.267  0.00  0.00    +0.000 A 
ATOM      9  C   UNL     1       4.230   7.949  17.809  0.00  0.00    +0.000 A 
ATOM     10  C   UNL     1       5.408   6.862  17.378  0.00  0.00    +0.000 A 
ENDROOT
BRANCH   8  11
ATOM     11  C   UNL     1       1.634   8.496  18.886  0.00  0.00    +0.000 A 
ATOM     12  C   UNL     1       0.811   9.304  18.008  0.00  0.00    +0.000 A 
ATOM     13  C   UNL     1      -0.102  10.315  18.427  0.00  0.00    +0.000 A 
ATOM     14  C   UNL     1      -0.278  10.585  19.776  0.00  0.00    +0.000 A 
ATOM     15  C   UNL     1       0.436   9.799  20.679  0.00  0.00    +0.000 A 
ATOM     16  C   UNL     1       1.357   8.759  20.243  0.00  0.00    +0.000 A 
ATOM     17  O   UNL     1       0.357  10.044  22.032  0.00  0.00    +0.000 OA
ATOM     18  C   UNL     1      -0.840  10.744  22.406  0.00  0.00    +0.000 C 
ATOM     19  C   UNL     1      -1.181  11.923  21.505  0.00  0.00    +0.000 C 
ATOM     20  O   UNL     1      -1.144  11.592  20.116  0.00  0.00    +0.000 OA
ENDBRANCH   8  11
BRANCH   1  21
ATOM     21  N   UNL     1       7.528   5.894  15.857  0.00  0.00    +0.000 N 
ATOM     22  H   UNL     1       7.897   5.106  16.414  0.00  0.00    +0.000 HD
BRANCH  21  26
ATOM     23  C   UNL     1       5.829   3.231  12.221  0.00  0.00    +0.000 A 
ATOM     24  C   UNL     1       5.173   3.428  13.492  0.00  0.00    +0.000 A 
ATOM     25  C   UNL     1       5.686   4.280  14.691  0.00  0.00    +0.000 A 
ATOM     26  C   UNL     1       6.910   4.975  14.722  0.00  0.00    +0.000 A 
ATOM     27  C   UNL     1       7.537   4.846  13.434  0.00  0.00    +0.000 A 
ATOM     28  C   UNL     1       7.028   4.004  12.239  0.00  0.00    +0.000 A 
BRANCH  23  29
ATOM     29  C   UNL     1       5.253   2.197  10.820  0.00  0.00    +0.000 C 
BRANCH  29  31
ATOM     30  N   UNL     1       6.335  -0.333  11.230  0.00  0.00    +0.000 NA
ATOM     31  C   UNL     1       5.844   0.814  11.045  0.00  0.00    +0.000 C 
ENDBRANCH  29  31
ENDBRANCH  23  29
ENDBRANCH  21  26
ENDBRANCH   1  21
TORSDOF 5
ENDMDL
MODEL 3
REMARK VINA RESULT:      -8.9      2.182      3.969
REMARK  Name = 
REMARK  5 active torsions:
REMARK  status: ('A' for Active; 'I' for Inactive)
REMARK    1  A    between atoms: C_2  and  C_3
REMARK    2  A    between atoms: C_3  and  C_4
REMARK    3  A    between atoms: C_7  and  N_8
REMARK    4  A    between atoms: N_8  and  C_9
REMARK    5  A    between atoms: C_16  and  C_17
REMARK                            x       y       z     vdW  Elec       q    Type
REMARK                         _______ _______ _______ _____ _____    ______ ____
ROOT
ATOM      1  C   UNL     1       3.312   4.607  19.813  0.00  0.00    +0.000 A 
ATOM      2  N   UNL     1       2.416   3.701  19.488  0.00  0.00    +0.000 NA
ATOM      3  C   UNL     1       1.754   4.130  18.420  0.00  0.00    +0.000 A 
ATOM      4  N   UNL     1       1.846   5.353  17.858  0.00  0.00    +0.000 NA
ATOM      5  C   UNL     1       2.319   6.352  18.634  0.00  0.00    +0.000 A 
ATOM      6  C   UNL     1       1.988   7.650  18.216  0.00  0.00    +0.000 A 
ATOM      7  C   UNL     1       1.630   8.697  19.084  0.00  0.00    +0.000 A 
ATOM      8  C   UNL     1       1.465   8.515  20.445  0.00  0.00    +0.000 A 
ATOM      9  C   UNL     1       2.096   7.237  20.860  0.00  0.00    +0.000 A 
ATOM     10  C   UNL     1       2.803   6.085  19.895  0.00  0.00    +0.000 A 
ENDROOT
BRANCH   8  11
ATOM     11  C   UNL     1       0.592   9.657  21.139  0.00  0.00    +0.000 A 
ATOM     12  C   UNL     1       0.243   9.525  22.540  0.00  0.00    +0.000 A 
ATOM     13  C   UNL     1      -0.753  10.284  23.219  0.00  0.00    +0.000 A 
ATOM     14  C   UNL     1      -1.471  11.261  22.545  0.00  0.00    +0.000 A 
ATOM     15  C   UNL     1      -1.140  11.484  21.210  0.00  0.00    +0.000 A 
ATOM     16  C   UNL     1      -0.112  10.713  20.526  0.00  0.00    +0.000 A 
ATOM     17  O   UNL     1      -1.846  12.398  20.459  0.00  0.00    +0.000 OA
ATOM     18  C   UNL     1      -2.508  13.389  21.260  0.00  0.00    +0.000 C 
ATOM     19  C   UNL     1      -3.243  12.827  22.469  0.00  0.00    +0.000 C 
ATOM     20  O   UNL     1      -2.439  11.935  23.244  0.00  0.00    +0.000 OA
ENDBRANCH   8  11
BRANCH   1  21
ATOM     21  N   UNL     1       4.713   4.182  19.205  0.00  0.00    +0.000 N 
ATOM     22  H   UNL     1       4.433   3.200  19.054  0.00  0.00    +0.000 HD
BRANCH  21  26
ATOM     23  C   UNL     1       6.611   4.493  14.790  0.00  0.00    +0.000 A 
ATOM     24  C   UNL     1       7.292   4.824  16.018  0.00  0.00    +0.000 A 
ATOM     25  C   UNL     1       6.717   4.737  17.464  0.00  0.00    +0.000 A 
ATOM     26  C   UNL     1       5.405   4.341  17.788  0.00  0.00    +0.000 A 
ATOM     27  C   UNL     1       4.741   3.939  16.577  0.00  0.00    +0.000 A 
ATOM     28  C   UNL     1       5.311   4.020  15.140  0.00  0.00    +0.000 A 
BRANCH  23  29
ATOM     29  C   UNL     1       7.265   4.632  13.082  0.00  0.00    +0.000 C 
BRANCH  29  31
ATOM     30  N   UNL     1       6.043   2.608  11.616  0.00  0.00    +0.000 NA
ATOM     31  C   UNL     1       6.597   3.525  12.281  0.00  0.00    +0.000 C 
ENDBRANCH  29  31
ENDBRANCH  23  29
ENDBRANCH  21  26
ENDBRANCH   1  21
TORSDOF 5
ENDMDL
MODEL 4
REMARK VINA RESULT:      -8.9      5.564     10.220
REMARK  Name = 
REMARK  5 active torsions:
REMARK  status: ('A' for Active; 'I' for Inactive)
REMARK    1  A    between atoms: C_2  and  C_3
REMARK    2  A    between atoms: C_3  and  C_4
REMARK    3  A    between atoms: C_7  and  N_8
REMARK    4  A    between atoms: N_8  and  C_9
REMARK    5  A    between atoms: C_16  and  C_17
REMARK                            x       y       z     vdW  Elec       q    Type
REMARK                         _______ _______ _______ _____ _____    ______ ____
ROOT
ATOM      1  C   UNL     1       0.361  11.815  21.186  0.00  0.00    +0.000 A 
ATOM      2  N   UNL     1       1.346  12.646  21.447  0.00  0.00    +0.000 NA
ATOM      3  C   UNL     1       1.977  12.919  20.312  0.00  0.00    +0.000 A 
ATOM      4  N   UNL     1       1.773  12.323  19.119  0.00  0.00    +0.000 NA
ATOM      5  C   UNL     1       1.194  11.103  19.132  0.00  0.00    +0.000 A 
ATOM      6  C   UNL     1       1.402  10.323  17.984  0.00  0.00    +0.000 A 
ATOM      7  C   UNL     1       1.644   8.938  17.998  0.00  0.00    +0.000 A 
ATOM      8  C   UNL     1       1.808   8.221  19.168  0.00  0.00    +0.000 A 
ATOM      9  C   UNL     1       1.300   9.012  20.318  0.00  0.00    +0.000 A 
ATOM     10  C   UNL     1       0.722  10.569  20.310  0.00  0.00    +0.000 A 
ENDROOT
BRANCH   8  11
ATOM     11  C   UNL     1       2.555   6.825  18.961  0.00  0.00    +0.000 A 
ATOM     12  C   UNL     1       3.499   6.685  17.870  0.00  0.00    +0.000 A 
ATOM     13  C   UNL     1       4.016   5.453  17.376  0.00  0.00    +0.000 A 
ATOM     14  C   UNL     1       3.639   4.252  17.957  0.00  0.00    +0.000 A 
ATOM     15  C   UNL     1       2.783   4.319  19.054  0.00  0.00    +0.000 A 
ATOM     16  C   UNL     1       2.269   5.583  19.561  0.00  0.00    +0.000 A 
ATOM     17  O   UNL     1       2.319   3.166  19.650  0.00  0.00    +0.000 OA
ATOM     18  C   UNL     1       3.165   2.031  19.406  0.00  0.00    +0.000 C 
ATOM     19  C   UNL     1       3.615   1.886  17.959  0.00  0.00    +0.000 C 
ATOM     20  O   UNL     1       4.144   3.097  17.417  0.00  0.00    +0.000 OA
ENDBRANCH   8  11
BRANCH   1  21
ATOM     21  N   UNL     1      -0.983  12.642  21.044  0.00  0.00    +0.000 N 
ATOM     22  H   UNL     1      -0.563  13.360  20.432  0.00  0.00    +0.000 HD
BRANCH  21  26
ATOM     23  C   UNL     1      -5.138  12.230  18.644  0.00  0.00    +0.000 A 
ATOM     24  C   UNL     1      -3.871  11.677  18.225  0.00  0.00    +0.000 A 
ATOM     25  C   UNL     1      -2.508  11.785  18.971  0.00  0.00    +0.000 A 
ATOM     26  C   UNL     1      -2.300  12.483  20.177  0.00  0.00    +0.000 A 
ATOM     27  C   UNL     1      -3.570  12.975  20.640  0.00  0.00    +0.000 A 
ATOM     28  C   UNL     1      -4.927  12.865  19.904  0.00  0.00    +0.000 A 
BRANCH  23  29
ATOM     29  C   UNL     1      -6.739  12.143  17.753  0.00  0.00    +0.000 C 
BRANCH  29  31
ATOM     30  N   UNL     1      -6.916  14.479  16.253  0.00  0.00    +0.000 NA
ATOM     31  C   UNL     1      -6.836  13.420  16.933  0.00  0.00    +0.000 C 
ENDBRANCH  29  31
ENDBRANCH  23  29
ENDBRANCH  21  26
ENDBRANCH   1  21
TORSDOF 5
ENDMDL
MODEL 5
REMARK VINA RESULT:      -8.7      2.098      3.682
REMARK  Name = 
REMARK  5 active torsions:
REMARK  status: ('A' for Active; 'I' for Inactive)
REMARK    1  A    between atoms: C_2  and  C_3
REMARK    2  A    between atoms: C_3  and  C_4
REMARK    3  A    between atoms: C_7  and  N_8
REMARK    4  A    between atoms: N_8  and  C_9
REMARK    5  A    between atoms: C_16  and  C_17
REMARK                            x       y       z     vdW  Elec       q    Type
REMARK                         _______ _______ _______ _____ _____    ______ ____
ROOT
ATOM      1  C   UNL     1       3.399   4.887  19.768  0.00  0.00    +0.000 A 
ATOM      2  N   UNL     1       2.512   3.924  19.647  0.00  0.00    +0.000 NA
ATOM      3  C   UNL     1       1.783   4.158  18.564  0.00  0.00    +0.000 A 
ATOM      4  N   UNL     1       1.812   5.273  17.804  0.00  0.00    +0.000 NA
ATOM      5  C   UNL     1       2.297   6.395  18.377  0.00  0.00    +0.000 A 
ATOM      6  C   UNL     1       1.909   7.600  17.772  0.00  0.00    +0.000 A 
ATOM      7  C   UNL     1       1.568   8.769  18.476  0.00  0.00    +0.000 A 
ATOM      8  C   UNL     1       1.481   8.811  19.855  0.00  0.00    +0.000 A 
ATOM      9  C   UNL     1       2.169   7.631  20.438  0.00  0.00    +0.000 A 
ATOM     10  C   UNL     1       2.855   6.349  19.636  0.00  0.00    +0.000 A 
ENDROOT
BRANCH   8  11
ATOM     11  C   UNL     1       0.615  10.036  20.401  0.00  0.00    +0.000 A 
ATOM     12  C   UNL     1       0.978  11.385  20.016  0.00  0.00    +0.000 A 
ATOM     13  C   UNL     1       0.507  12.578  20.636  0.00  0.00    +0.000 A 
ATOM     14  C   UNL     1      -0.393  12.512  21.689  0.00  0.00    +0.000 A 
ATOM     15  C   UNL     1      -0.834  11.246  22.068  0.00  0.00    +0.000 A 
ATOM     16  C   UNL     1      -0.357  10.032  21.422  0.00  0.00    +0.000 A 
ATOM     17  O   UNL     1      -1.684  11.095  23.142  0.00  0.00    +0.000 OA
ATOM     18  C   UNL     1      -2.430  12.287  23.437  0.00  0.00    +0.000 C 
ATOM     19  C   UNL     1      -1.598  13.562  23.434  0.00  0.00    +0.000 C 
ATOM     20  O   UNL     1      -0.785  13.692  22.266  0.00  0.00    +0.000 OA
ENDBRANCH   8  11
BRANCH   1  21
ATOM     21  N   UNL     1       4.777   4.394  19.160  0.00  0.00    +0.000 N 
ATOM     22  H   UNL     1       4.475   3.410  19.082  0.00  0.00    +0.000 HD
BRANCH  21  26
ATOM     23  C   UNL     1       6.559   4.392  14.685  0.00  0.00    +0.000 A 
ATOM     24  C   UNL     1       7.312   4.672  15.885  0.00  0.00    +0.000 A 
ATOM     25  C   UNL     1       6.775   4.681  17.348  0.00  0.00    +0.000 A 
ATOM     26  C   UNL     1       5.438   4.443  17.719  0.00  0.00    +0.000 A 
ATOM     27  C   UNL     1       4.696   4.092  16.538  0.00  0.00    +0.000 A 
ATOM     28  C   UNL     1       5.226   4.077  15.084  0.00  0.00    +0.000 A 
BRANCH  23  29
ATOM     29  C   UNL     1       7.171   4.420  12.956  0.00  0.00    +0.000 C 
BRANCH  29  31
ATOM     30  N   UNL     1       5.747   2.454  11.599  0.00  0.00    +0.000 NA
ATOM     31  C   UNL     1       6.393   3.345  12.214  0.00  0.00    +0.000 C 
ENDBRANCH  29  31
ENDBRANCH  23  29
ENDBRANCH  21  26
ENDBRANCH   1  21
TORSDOF 5
ENDMDL
MODEL 6
REMARK VINA RESULT:      -8.6      2.527      4.200
REMARK  Name = 
REMARK  5 active torsions:
REMARK  status: ('A' for Active; 'I' for Inactive)
REMARK    1  A    between atoms: C_2  and  C_3
REMARK    2  A    between atoms: C_3  and  C_4
REMARK    3  A    between atoms: C_7  and  N_8
REMARK    4  A    between atoms: N_8  and  C_9
REMARK    5  A    between atoms: C_16  and  C_17
REMARK                            x       y       z     vdW  Elec       q    Type
REMARK                         _______ _______ _______ _____ _____    ______ ____
ROOT
ATOM      1  C   UNL     1       3.251   4.699  19.775  0.00  0.00    +0.000 A 
ATOM      2  N   UNL     1       2.357   3.791  19.447  0.00  0.00    +0.000 NA
ATOM      3  C   UNL     1       1.703   4.215  18.373  0.00  0.00    +0.000 A 
ATOM      4  N   UNL     1       1.799   5.436  17.807  0.00  0.00    +0.000 NA
ATOM      5  C   UNL     1       2.265   6.438  18.582  0.00  0.00    +0.000 A 
ATOM      6  C   UNL     1       1.936   7.735  18.157  0.00  0.00    +0.000 A 
ATOM      7  C   UNL     1       1.570   8.785  19.018  0.00  0.00    +0.000 A 
ATOM      8  C   UNL     1       1.395   8.608  20.378  0.00  0.00    +0.000 A 
ATOM      9  C   UNL     1       2.024   7.331  20.804  0.00  0.00    +0.000 A 
ATOM     10  C   UNL     1       2.740   6.177  19.848  0.00  0.00    +0.000 A 
ENDROOT
BRANCH   8  11
ATOM     11  C   UNL     1       0.516   9.751  21.062  0.00  0.00    +0.000 A 
ATOM     12  C   UNL     1       0.111   9.599  22.445  0.00  0.00    +0.000 A 
ATOM     13  C   UNL     1      -0.897  10.363  23.101  0.00  0.00    +0.000 A 
ATOM     14  C   UNL     1      -1.572  11.364  22.421  0.00  0.00    +0.000 A 
ATOM     15  C   UNL     1      -1.187  11.607  21.103  0.00  0.00    +0.000 A 
ATOM     16  C   UNL     1      -0.147  10.831  20.444  0.00  0.00    +0.000 A 
ATOM     17  O   UNL     1      -1.849  12.547  20.344  0.00  0.00    +0.000 OA
ATOM     18  C   UNL     1      -2.524  13.535  21.139  0.00  0.00    +0.000 C 
ATOM     19  C   UNL     1      -3.313  12.962  22.308  0.00  0.00    +0.000 C 
ATOM     20  O   UNL     1      -2.554  12.042  23.095  0.00  0.00    +0.000 OA
ENDBRANCH   8  11
BRANCH   1  21
ATOM     21  N   UNL     1       4.656   4.273  19.181  0.00  0.00    +0.000 N 
ATOM     22  H   UNL     1       4.408   3.273  19.113  0.00  0.00    +0.000 HD
BRANCH  21  26
ATOM     23  C   UNL     1       6.459   4.320  14.715  0.00  0.00    +0.000 A 
ATOM     24  C   UNL     1       7.197   4.623  15.918  0.00  0.00    +0.000 A 
ATOM     25  C   UNL     1       6.654   4.618  17.378  0.00  0.00    +0.000 A 
ATOM     26  C   UNL     1       5.322   4.341  17.743  0.00  0.00    +0.000 A 
ATOM     27  C   UNL     1       4.597   3.965  16.559  0.00  0.00    +0.000 A 
ATOM     28  C   UNL     1       5.134   3.965  15.108  0.00  0.00    +0.000 A 
BRANCH  23  29
ATOM     29  C   UNL     1       7.078   4.364  12.989  0.00  0.00    +0.000 C 
BRANCH  29  31
ATOM     30  N   UNL     1       9.130   6.241  12.951  0.00  0.00    +0.000 NA
ATOM     31  C   UNL     1       8.200   5.390  12.967  0.00  0.00    +0.000 C 
ENDBRANCH  29  31
ENDBRANCH  23  29
ENDBRANCH  21  26
ENDBRANCH   1  21
TORSDOF 5
ENDMDL
MODEL 7
REMARK VINA RESULT:      -8.4      2.138      3.890
REMARK  Name = 
REMARK  5 active torsions:
REMARK  status: ('A' for Active; 'I' for Inactive)
REMARK    1  A    between atoms: C_2  and  C_3
REMARK    2  A    between atoms: C_3  and  C_4
REMARK    3  A    between atoms: C_7  and  N_8
REMARK    4  A    between atoms: N_8  and  C_9
REMARK    5  A    between atoms: C_16  and  C_17
REMARK                            x       y       z     vdW  Elec       q    Type
REMARK                         _______ _______ _______ _____ _____    ______ ____
ROOT
ATOM      1  C   UNL     1       3.326   5.309  19.817  0.00  0.00    +0.000 A 
ATOM      2  N   UNL     1       2.524   4.287  19.613  0.00  0.00    +0.000 NA
ATOM      3  C   UNL     1       1.846   4.503  18.493  0.00  0.00    +0.000 A 
ATOM      4  N   UNL     1       1.836   5.642  17.769  0.00  0.00    +0.000 NA
ATOM      5  C   UNL     1       2.200   6.776  18.403  0.00  0.00    +0.000 A 
ATOM      6  C   UNL     1       1.759   7.969  17.810  0.00  0.00    +0.000 A 
ATOM      7  C   UNL     1       1.289   9.086  18.523  0.00  0.00    +0.000 A 
ATOM      8  C   UNL     1       1.115   9.076  19.895  0.00  0.00    +0.000 A 
ATOM      9  C   UNL     1       1.854   7.931  20.486  0.00  0.00    +0.000 A 
ATOM     10  C   UNL     1       2.682   6.730  19.692  0.00  0.00    +0.000 A 
ENDROOT
BRANCH   8  11
ATOM     11  C   UNL     1       0.128  10.214  20.421  0.00  0.00    +0.000 A 
ATOM     12  C   UNL     1      -0.806  10.822  19.494  0.00  0.00    +0.000 A 
ATOM     13  C   UNL     1      -1.532  12.027  19.721  0.00  0.00    +0.000 A 
ATOM     14  C   UNL     1      -1.393  12.714  20.917  0.00  0.00    +0.000 A 
ATOM     15  C   UNL     1      -0.558  12.150  21.880  0.00  0.00    +0.000 A 
ATOM     16  C   UNL     1       0.171  10.911  21.645  0.00  0.00    +0.000 A 
ATOM     17  O   UNL     1      -0.325  12.801  23.071  0.00  0.00    +0.000 OA
ATOM     18  C   UNL     1      -1.361  13.738  23.409  0.00  0.00    +0.000 C 
ATOM     19  C   UNL     1      -1.804  14.623  22.253  0.00  0.00    +0.000 C 
ATOM     20  O   UNL     1      -2.092  13.884  21.064  0.00  0.00    +0.000 OA
ENDBRANCH   8  11
BRANCH   1  21
ATOM     21  N   UNL     1       4.771   4.939  19.282  0.00  0.00    +0.000 N 
ATOM     22  H   UNL     1       4.607   3.920  19.326  0.00  0.00    +0.000 HD
BRANCH  21  26
ATOM     23  C   UNL     1       6.634   4.642  14.851  0.00  0.00    +0.000 A 
ATOM     24  C   UNL     1       7.327   5.133  16.018  0.00  0.00    +0.000 A 
ATOM     25  C   UNL     1       6.763   5.244  17.467  0.00  0.00    +0.000 A 
ATOM     26  C   UNL     1       5.453   4.902  17.851  0.00  0.00    +0.000 A 
ATOM     27  C   UNL     1       4.777   4.342  16.711  0.00  0.00    +0.000 A 
ATOM     28  C   UNL     1       5.336   4.226  15.272  0.00  0.00    +0.000 A 
BRANCH  23  29
ATOM     29  C   UNL     1       7.275   4.546  13.135  0.00  0.00    +0.000 C 
BRANCH  29  31
ATOM     30  N   UNL     1       5.692   2.675  11.820  0.00  0.00    +0.000 NA
ATOM     31  C   UNL     1       6.411   3.523  12.416  0.00  0.00    +0.000 C 
ENDBRANCH  29  31
ENDBRANCH  23  29
ENDBRANCH  21  26
ENDBRANCH   1  21
TORSDOF 5
ENDMDL
MODEL 8
REMARK VINA RESULT:      -8.4      5.731     11.903
REMARK  Name = 
REMARK  5 active torsions:
REMARK  status: ('A' for Active; 'I' for Inactive)
REMARK    1  A    between atoms: C_2  and  C_3
REMARK    2  A    between atoms: C_3  and  C_4
REMARK    3  A    between atoms: C_7  and  N_8
REMARK    4  A    between atoms: N_8  and  C_9
REMARK    5  A    between atoms: C_16  and  C_17
REMARK                            x       y       z     vdW  Elec       q    Type
REMARK                         _______ _______ _______ _____ _____    ______ ____
ROOT
ATOM      1  C   UNL     1      -0.097  10.807  21.256  0.00  0.00    +0.000 A 
ATOM      2  N   UNL     1       0.647  11.804  21.681  0.00  0.00    +0.000 NA
ATOM      3  C   UNL     1       1.195  12.397  20.628  0.00  0.00    +0.000 A 
ATOM      4  N   UNL     1       1.152  11.963  19.351  0.00  0.00    +0.000 NA
ATOM      5  C   UNL     1       0.897  10.652  19.156  0.00  0.00    +0.000 A 
ATOM      6  C   UNL     1       1.298  10.136  17.915  0.00  0.00    +0.000 A 
ATOM      7  C   UNL     1       1.880   8.868  17.731  0.00  0.00    +0.000 A 
ATOM      8  C   UNL     1       2.213   8.040  18.787  0.00  0.00    +0.000 A 
ATOM      9  C   UNL     1       1.517   8.493  20.019  0.00  0.00    +0.000 A 
ATOM     10  C   UNL     1       0.568   9.840  20.219  0.00  0.00    +0.000 A 
ENDROOT
BRANCH   8  11
ATOM     11  C   UNL     1       3.286   6.922  18.406  0.00  0.00    +0.000 A 
ATOM     12  C   UNL     1       3.571   5.864  19.355  0.00  0.00    +0.000 A 
ATOM     13  C   UNL     1       4.687   4.980  19.299  0.00  0.00    +0.000 A 
ATOM     14  C   UNL     1       5.604   5.075  18.264  0.00  0.00    +0.000 A 
ATOM     15  C   UNL     1       5.355   6.030  17.280  0.00  0.00    +0.000 A 
ATOM     16  C   UNL     1       4.206   6.922  17.338  0.00  0.00    +0.000 A 
ATOM     17  O   UNL     1       6.250   6.223  16.251  0.00  0.00    +0.000 OA
ATOM     18  C   UNL     1       7.085   5.078  16.012  0.00  0.00    +0.000 C 
ATOM     19  C   UNL     1       7.662   4.452  17.275  0.00  0.00    +0.000 C 
ATOM     20  O   UNL     1       6.675   4.219  18.282  0.00  0.00    +0.000 OA
ENDBRANCH   8  11
BRANCH   1  21
ATOM     21  N   UNL     1      -1.605  11.289  21.181  0.00  0.00    +0.000 N 
ATOM     22  H   UNL     1      -1.964  10.490  21.729  0.00  0.00    +0.000 HD
BRANCH  21  26
ATOM     23  C   UNL     1      -4.140  14.781  23.319  0.00  0.00    +0.000 A 
ATOM     24  C   UNL     1      -3.731  13.544  23.941  0.00  0.00    +0.000 A 
ATOM     25  C   UNL     1      -2.910  12.392  23.287  0.00  0.00    +0.000 A 
ATOM     26  C   UNL     1      -2.465  12.375  21.951  0.00  0.00    +0.000 A 
ATOM     27  C   UNL     1      -2.805  13.635  21.345  0.00  0.00    +0.000 A 
ATOM     28  C   UNL     1      -3.615  14.783  21.993  0.00  0.00    +0.000 A 
BRANCH  23  29
ATOM     29  C   UNL     1      -5.141  16.124  24.067  0.00  0.00    +0.000 C 
BRANCH  29  31
ATOM     30  N   UNL     1      -7.802  15.425  23.658  0.00  0.00    +0.000 NA
ATOM     31  C   UNL     1      -6.596  15.742  23.844  0.00  0.00    +0.000 C 
ENDBRANCH  29  31
ENDBRANCH  23  29
ENDBRANCH  21  26
ENDBRANCH   1  21
TORSDOF 5
ENDMDL
MODEL 9
REMARK VINA RESULT:      -8.4      5.767     10.945
REMARK  Name = 
REMARK  5 active torsions:
REMARK  status: ('A' for Active; 'I' for Inactive)
REMARK    1  A    between atoms: C_2  and  C_3
REMARK    2  A    between atoms: C_3  and  C_4
REMARK    3  A    between atoms: C_7  and  N_8
REMARK    4  A    between atoms: N_8  and  C_9
REMARK    5  A    between atoms: C_16  and  C_17
REMARK                            x       y       z     vdW  Elec       q    Type
REMARK                         _______ _______ _______ _____ _____    ______ ____
ROOT
ATOM      1  C   UNL     1       0.161  12.829  21.716  0.00  0.00    +0.000 A 
ATOM      2  N   UNL     1       1.155  13.688  21.644  0.00  0.00    +0.000 NA
ATOM      3  C   UNL     1       1.519  13.802  20.373  0.00  0.00    +0.000 A 
ATOM      4  N   UNL     1       1.081  13.049  19.343  0.00  0.00    +0.000 NA
ATOM      5  C   UNL     1       0.555  11.843  19.644  0.00  0.00    +0.000 A 
ATOM      6  C   UNL     1       0.533  10.913  18.593  0.00  0.00    +0.000 A 
ATOM      7  C   UNL     1       0.814   9.542  18.739  0.00  0.00    +0.000 A 
ATOM      8  C   UNL     1       1.245   8.992  19.932  0.00  0.00    +0.000 A 
ATOM      9  C   UNL     1       0.972   9.933  21.047  0.00  0.00    +0.000 A 
ATOM     10  C   UNL     1       0.361  11.475  20.957  0.00  0.00    +0.000 A 
ENDROOT
BRANCH   8  11
ATOM     11  C   UNL     1       1.971   7.581  19.756  0.00  0.00    +0.000 A 
ATOM     12  C   UNL     1       2.620   7.273  18.498  0.00  0.00    +0.000 A 
ATOM     13  C   UNL     1       3.045   5.978  18.081  0.00  0.00    +0.000 A 
ATOM     14  C   UNL     1       2.870   4.882  18.912  0.00  0.00    +0.000 A 
ATOM     15  C   UNL     1       2.310   5.119  20.165  0.00  0.00    +0.000 A 
ATOM     16  C   UNL     1       1.889   6.447  20.589  0.00  0.00    +0.000 A 
ATOM     17  O   UNL     1       2.052   4.073  21.024  0.00  0.00    +0.000 OA
ATOM     18  C   UNL     1       2.854   2.913  20.750  0.00  0.00    +0.000 C 
ATOM     19  C   UNL     1       2.937   2.545  19.275  0.00  0.00    +0.000 C 
ATOM     20  O   UNL     1       3.269   3.657  18.442  0.00  0.00    +0.000 OA
ENDBRANCH   8  11
BRANCH   1  21
ATOM     21  N   UNL     1      -1.205  13.630  21.758  0.00  0.00    +0.000 N 
ATOM     22  H   UNL     1      -1.037  14.110  20.859  0.00  0.00    +0.000 HD
BRANCH  21  26
ATOM     23  C   UNL     1      -5.839  12.516  21.062  0.00  0.00    +0.000 A 
ATOM     24  C   UNL     1      -4.802  12.444  20.061  0.00  0.00    +0.000 A 
ATOM     25  C   UNL     1      -3.294  12.792  20.244  0.00  0.00    +0.000 A 
ATOM     26  C   UNL     1      -2.716  13.271  21.435  0.00  0.00    +0.000 A 
ATOM     27  C   UNL     1      -3.726  13.277  22.459  0.00  0.00    +0.000 A 
ATOM     28  C   UNL     1      -5.223  12.927  22.281  0.00  0.00    +0.000 A 
BRANCH  23  29
ATOM     29  C   UNL     1      -7.623  12.148  20.845  0.00  0.00    +0.000 C 
BRANCH  29  31
ATOM     30  N   UNL     1      -7.885   9.393  21.116  0.00  0.00    +0.000 NA
ATOM     31  C   UNL     1      -7.766  10.642  20.993  0.00  0.00    +0.000 C 
ENDBRANCH  29  31
ENDBRANCH  23  29
ENDBRANCH  21  26
ENDBRANCH   1  21
TORSDOF 5
ENDMDL
