MODEL 1
REMARK VINA RESULT:      -8.2      0.000      0.000
REMARK  Name = 
REMARK  6 active torsions:
REMARK  status: ('A' for Active; 'I' for Inactive)
REMARK    1  A    between atoms: C_4  and  O_5
REMARK    2  A    between atoms: C_6  and  C_7
REMARK    3  A    between atoms: C_7  and  C_8
REMARK    4  A    between atoms: C_11  and  O_12
REMARK    5  A    between atoms: O_12  and  C_13
REMARK    6  A    between atoms: C_13  and  C_14
REMARK                            x       y       z     vdW  Elec       q    Type
REMARK                         _______ _______ _______ _____ _____    ______ ____
ROOT
ATOM      1  C   UNL     1       6.037   5.249  17.570  0.00  0.00    +0.000 A 
ATOM      2  C   UNL     1       6.000   6.470  16.887  0.00  0.00    +0.000 A 
ATOM      3  C   UNL     1       6.887   7.493  17.213  0.00  0.00    +0.000 A 
ATOM      4  C   UNL     1       7.813   7.317  18.243  0.00  0.00    +0.000 A 
ATOM      5  C   UNL     1       7.912   6.076  18.874  0.00  0.00    +0.000 A 
ATOM      6  C   UNL     1       7.029   5.046  18.540  0.00  0.00    +0.000 A 
ENDROOT
BRANCH   1   7
ATOM      7  C   UNL     1       5.009   4.184  17.280  0.00  0.00    +0.000 C 
BRANCH   7  12
ATOM      8  O   UNL     1       1.214   4.497  20.769  0.00  0.00    +0.000 OA
ATOM      9  C   UNL     1       2.161   4.202  20.061  0.00  0.00    +0.000 A 
ATOM     10  N   UNL     1       3.078   3.204  20.290  0.00  0.00    +0.000 N 
ATOM     11  C   UNL     1       4.079   3.106  19.377  0.00  0.00    +0.000 A 
ATOM     12  C   UNL     1       4.008   3.985  18.368  0.00  0.00    +0.000 A 
ATOM     13  S   UNL     1       2.606   5.019  18.558  0.00  0.00    +0.000 S 
ATOM     14  H   UNL     1       2.991   2.649  21.125  0.00  0.00    +0.000 HD
BRANCH  11  15
ATOM     15  O   UNL     1       5.054   2.179  19.555  0.00  0.00    +0.000 OA
ATOM     16  H   UNL     1       4.719   1.520  20.183  0.00  0.00    +0.000 HD
ENDBRANCH  11  15
ENDBRANCH   7  12
ENDBRANCH   1   7
BRANCH   4  17
ATOM     17  O   UNL     1       8.651   8.294  18.707  0.00  0.00    +0.000 OA
BRANCH  17  18
ATOM     18  C   UNL     1       8.420   9.587  18.141  0.00  0.00    +0.000 C 
BRANCH  18  19
ATOM     19  C   UNL     1       9.401  10.563  18.733  0.00  0.00    +0.000 A 
ATOM     20  C   UNL     1       9.452  10.775  20.116  0.00  0.00    +0.000 A 
ATOM     21  C   UNL     1      10.358  11.690  20.653  0.00  0.00    +0.000 A 
ATOM     22  C   UNL     1      11.213  12.402  19.814  0.00  0.00    +0.000 A 
ATOM     23  C   UNL     1      11.167  12.200  18.435  0.00  0.00    +0.000 A 
ATOM     24  C   UNL     1      10.262  11.286  17.896  0.00  0.00    +0.000 A 
ENDBRANCH  18  19
ENDBRANCH  17  18
ENDBRANCH   4  17
TORSDOF 6
ENDMDL
MODEL 2
REMARK VINA RESULT:      -8.1      0.196      1.048
REMARK  Name = 
REMARK  6 active torsions:
REMARK  status: ('A' for Active; 'I' for Inactive)
REMARK    1  A    between atoms: C_4  and  O_5
REMARK    2  A    between atoms: C_6  and  C_7
REMARK    3  A    between atoms: C_7  and  C_8
REMARK    4  A    between atoms: C_11  and  O_12
REMARK    5  A    between atoms: O_12  and  C_13
REMARK    6  A    between atoms: C_13  and  C_14
REMARK                            x       y       z     vdW  Elec       q    Type
REMARK                         _______ _______ _______ _____ _____    ______ ____
ROOT
ATOM      1  C   UNL     1       6.084   5.112  17.601  0.00  0.00    +0.000 A 
ATOM      2  C   UNL     1       6.279   6.186  16.725  0.00  0.00    +0.000 A 
ATOM      3  C   UNL     1       7.175   7.205  17.040  0.00  0.00    +0.000 A 
ATOM      4  C   UNL     1       7.875   7.176  18.247  0.00  0.00    +0.000 A 
ATOM      5  C   UNL     1       7.749   6.068  19.088  0.00  0.00    +0.000 A 
ATOM      6  C   UNL     1       6.859   5.041  18.768  0.00  0.00    +0.000 A 
ENDROOT
BRANCH   1   7
ATOM      7  C   UNL     1       5.040   4.065  17.300  0.00  0.00    +0.000 C 
BRANCH   7  12
ATOM      8  O   UNL     1       1.093   4.547  20.596  0.00  0.00    +0.000 OA
ATOM      9  C   UNL     1       2.073   4.221  19.949  0.00  0.00    +0.000 A 
ATOM     10  N   UNL     1       2.988   3.249  20.279  0.00  0.00    +0.000 N 
ATOM     11  C   UNL     1       4.029   3.108  19.418  0.00  0.00    +0.000 A 
ATOM     12  C   UNL     1       3.994   3.922  18.354  0.00  0.00    +0.000 A 
ATOM     13  S   UNL     1       2.576   4.949  18.420  0.00  0.00    +0.000 S 
ATOM     14  H   UNL     1       2.870   2.745  21.142  0.00  0.00    +0.000 HD
BRANCH  11  15
ATOM     15  O   UNL     1       5.004   2.205  19.695  0.00  0.00    +0.000 OA
ATOM     16  H   UNL     1       4.640   1.322  19.525  0.00  0.00    +0.000 HD
ENDBRANCH  11  15
ENDBRANCH   7  12
ENDBRANCH   1   7
BRANCH   4  17
ATOM     17  O   UNL     1       8.693   8.177  18.693  0.00  0.00    +0.000 OA
BRANCH  17  18
ATOM     18  C   UNL     1       8.389   9.469  18.160  0.00  0.00    +0.000 C 
BRANCH  18  19
ATOM     19  C   UNL     1       9.347  10.475  18.739  0.00  0.00    +0.000 A 
ATOM     20  C   UNL     1      10.259  11.150  17.919  0.00  0.00    +0.000 A 
ATOM     21  C   UNL     1      11.148  12.073  18.468  0.00  0.00    +0.000 A 
ATOM     22  C   UNL     1      11.137  12.325  19.839  0.00  0.00    +0.000 A 
ATOM     23  C   UNL     1      10.235  11.656  20.664  0.00  0.00    +0.000 A 
ATOM     24  C   UNL     1       9.345  10.732  20.118  0.00  0.00    +0.000 A 
ENDBRANCH  18  19
ENDBRANCH  17  18
ENDBRANCH   4  17
TORSDOF 6
ENDMDL
MODEL 3
REMARK VINA RESULT:      -8.0      0.740      1.629
REMARK  Name = 
REMARK  6 active torsions:
REMARK  status: ('A' for Active; 'I' for Inactive)
REMARK    1  A    between atoms: C_4  and  O_5
REMARK    2  A    between atoms: C_6  and  C_7
REMARK    3  A    between atoms: C_7  and  C_8
REMARK    4  A    between atoms: C_11  and  O_12
REMARK    5  A    between atoms: O_12  and  C_13
REMARK    6  A    between atoms: C_13  and  C_14
REMARK                            x       y       z     vdW  Elec       q    Type
REMARK                         _______ _______ _______ _____ _____    ______ ____
ROOT
ATOM      1  C   UNL     1       5.904   5.119  17.398  0.00  0.00    +0.000 A 
ATOM      2  C   UNL     1       6.679   4.899  18.542  0.00  0.00    +0.000 A 
ATOM      3  C   UNL     1       7.566   5.872  18.998  0.00  0.00    +0.000 A 
ATOM      4  C   UNL     1       7.706   7.074  18.302  0.00  0.00    +0.000 A 
ATOM      5  C   UNL     1       6.879   7.336  17.208  0.00  0.00    +0.000 A 
ATOM      6  C   UNL     1       5.982   6.365  16.758  0.00  0.00    +0.000 A 
ENDROOT
BRANCH   1   7
ATOM      7  C   UNL     1       5.022   4.024  16.854  0.00  0.00    +0.000 C 
BRANCH   7  12
ATOM      8  O   UNL     1       0.945   3.970  20.024  0.00  0.00    +0.000 OA
ATOM      9  C   UNL     1       1.881   3.730  19.282  0.00  0.00    +0.000 A 
ATOM     10  N   UNL     1       2.461   2.503  19.063  0.00  0.00    +0.000 N 
ATOM     11  C   UNL     1       3.532   2.501  18.227  0.00  0.00    +0.000 A 
ATOM     12  C   UNL     1       3.848   3.698  17.715  0.00  0.00    +0.000 A 
ATOM     13  S   UNL     1       2.749   4.926  18.314  0.00  0.00    +0.000 S 
ATOM     14  H   UNL     1       2.105   1.703  19.560  0.00  0.00    +0.000 HD
BRANCH  11  15
ATOM     15  O   UNL     1       4.194   1.339  17.995  0.00  0.00    +0.000 OA
ATOM     16  H   UNL     1       4.460   1.336  17.063  0.00  0.00    +0.000 HD
ENDBRANCH  11  15
ENDBRANCH   7  12
ENDBRANCH   1   7
BRANCH   4  17
ATOM     17  O   UNL     1       8.623   8.043  18.607  0.00  0.00    +0.000 OA
BRANCH  17  18
ATOM     18  C   UNL     1       8.321   9.331  18.064  0.00  0.00    +0.000 C 
BRANCH  18  19
ATOM     19  C   UNL     1       9.244  10.350  18.678  0.00  0.00    +0.000 A 
ATOM     20  C   UNL     1      10.118  11.098  17.880  0.00  0.00    +0.000 A 
ATOM     21  C   UNL     1      10.975  12.031  18.461  0.00  0.00    +0.000 A 
ATOM     22  C   UNL     1      10.971  12.220  19.842  0.00  0.00    +0.000 A 
ATOM     23  C   UNL     1      10.106  11.478  20.646  0.00  0.00    +0.000 A 
ATOM     24  C   UNL     1       9.248  10.544  20.067  0.00  0.00    +0.000 A 
ENDBRANCH  18  19
ENDBRANCH  17  18
ENDBRANCH   4  17
TORSDOF 6
ENDMDL
MODEL 4
REMARK VINA RESULT:      -7.9      0.497      1.141
REMARK  Name = 
REMARK  6 active torsions:
REMARK  status: ('A' for Active; 'I' for Inactive)
REMARK    1  A    between atoms: C_4  and  O_5
REMARK    2  A    between atoms: C_6  and  C_7
REMARK    3  A    between atoms: C_7  and  C_8
REMARK    4  A    between atoms: C_11  and  O_12
REMARK    5  A    between atoms: O_12  and  C_13
REMARK    6  A    between atoms: C_13  and  C_14
REMARK                            x       y       z     vdW  Elec       q    Type
REMARK                         _______ _______ _______ _____ _____    ______ ____
ROOT
ATOM      1  C   UNL     1       5.927   5.181  17.613  0.00  0.00    +0.000 A 
ATOM      2  C   UNL     1       6.891   4.944  18.599  0.00  0.00    +0.000 A 
ATOM      3  C   UNL     1       7.797   5.940  18.959  0.00  0.00    +0.000 A 
ATOM      4  C   UNL     1       7.765   7.181  18.322  0.00  0.00    +0.000 A 
ATOM      5  C   UNL     1       6.756   7.454  17.397  0.00  0.00    +0.000 A 
ATOM      6  C   UNL     1       5.841   6.459  17.044  0.00  0.00    +0.000 A 
ENDROOT
BRANCH   1   7
ATOM      7  C   UNL     1       5.015   4.068  17.158  0.00  0.00    +0.000 C 
BRANCH   7  12
ATOM      8  O   UNL     1       0.753   3.930  20.072  0.00  0.00    +0.000 OA
ATOM      9  C   UNL     1       1.824   3.755  19.516  0.00  0.00    +0.000 A 
ATOM     10  N   UNL     1       2.826   2.904  19.915  0.00  0.00    +0.000 N 
ATOM     11  C   UNL     1       3.952   2.925  19.155  0.00  0.00    +0.000 A 
ATOM     12  C   UNL     1       3.906   3.758  18.106  0.00  0.00    +0.000 A 
ATOM     13  S   UNL     1       2.362   4.587  18.053  0.00  0.00    +0.000 S 
ATOM     14  H   UNL     1       2.697   2.364  20.755  0.00  0.00    +0.000 HD
BRANCH  11  15
ATOM     15  O   UNL     1       5.009   2.151  19.508  0.00  0.00    +0.000 OA
ATOM     16  H   UNL     1       5.792   2.505  19.058  0.00  0.00    +0.000 HD
ENDBRANCH  11  15
ENDBRANCH   7  12
ENDBRANCH   1   7
BRANCH   4  17
ATOM     17  O   UNL     1       8.675   8.182  18.528  0.00  0.00    +0.000 OA
BRANCH  17  18
ATOM     18  C   UNL     1       8.314   9.437  17.946  0.00  0.00    +0.000 C 
BRANCH  18  19
ATOM     19  C   UNL     1       9.111  10.530  18.607  0.00  0.00    +0.000 A 
ATOM     20  C   UNL     1       9.414  10.470  19.972  0.00  0.00    +0.000 A 
ATOM     21  C   UNL     1      10.144  11.494  20.575  0.00  0.00    +0.000 A 
ATOM     22  C   UNL     1      10.571  12.586  19.822  0.00  0.00    +0.000 A 
ATOM     23  C   UNL     1      10.271  12.656  18.462  0.00  0.00    +0.000 A 
ATOM     24  C   UNL     1       9.541  11.634  17.857  0.00  0.00    +0.000 A 
ENDBRANCH  18  19
ENDBRANCH  17  18
ENDBRANCH   4  17
TORSDOF 6
ENDMDL
MODEL 5
REMARK VINA RESULT:      -7.9      5.180      7.415
REMARK  Name = 
REMARK  6 active torsions:
REMARK  status: ('A' for Active; 'I' for Inactive)
REMARK    1  A    between atoms: C_4  and  O_5
REMARK    2  A    between atoms: C_6  and  C_7
REMARK    3  A    between atoms: C_7  and  C_8
REMARK    4  A    between atoms: C_11  and  O_12
REMARK    5  A    between atoms: O_12  and  C_13
REMARK    6  A    between atoms: C_13  and  C_14
REMARK                            x       y       z     vdW  Elec       q    Type
REMARK                         _______ _______ _______ _____ _____    ______ ____
ROOT
ATOM      1  C   UNL     1       3.295   4.977  18.058  0.00  0.00    +0.000 A 
ATOM      2  C   UNL     1       2.662   4.591  19.244  0.00  0.00    +0.000 A 
ATOM      3  C   UNL     1       2.120   5.545  20.103  0.00  0.00    +0.000 A 
ATOM      4  C   UNL     1       2.223   6.903  19.797  0.00  0.00    +0.000 A 
ATOM      5  C   UNL     1       2.779   7.293  18.577  0.00  0.00    +0.000 A 
ATOM      6  C   UNL     1       3.312   6.336  17.711  0.00  0.00    +0.000 A 
ENDROOT
BRANCH   1   7
ATOM      7  C   UNL     1       3.967   3.947  17.183  0.00  0.00    +0.000 C 
BRANCH   7  12
ATOM      8  O   UNL     1       7.939   5.334  14.189  0.00  0.00    +0.000 OA
ATOM      9  C   UNL     1       7.168   5.038  15.085  0.00  0.00    +0.000 A 
ATOM     10  N   UNL     1       7.495   4.769  16.393  0.00  0.00    +0.000 N 
ATOM     11  C   UNL     1       6.459   4.408  17.194  0.00  0.00    +0.000 A 
ATOM     12  C   UNL     1       5.261   4.394  16.593  0.00  0.00    +0.000 A 
ATOM     13  S   UNL     1       5.420   4.853  14.908  0.00  0.00    +0.000 S 
ATOM     14  H   UNL     1       8.463   4.802  16.667  0.00  0.00    +0.000 HD
BRANCH  11  15
ATOM     15  O   UNL     1       6.701   4.078  18.488  0.00  0.00    +0.000 OA
ATOM     16  H   UNL     1       5.850   3.856  18.896  0.00  0.00    +0.000 HD
ENDBRANCH  11  15
ENDBRANCH   7  12
ENDBRANCH   1   7
BRANCH   4  17
ATOM     17  O   UNL     1       1.819   7.916  20.623  0.00  0.00    +0.000 OA
BRANCH  17  18
ATOM     18  C   UNL     1       1.077   8.950  19.970  0.00  0.00    +0.000 C 
BRANCH  18  19
ATOM     19  C   UNL     1       0.364   9.772  21.010  0.00  0.00    +0.000 A 
ATOM     20  C   UNL     1      -0.110   9.182  22.188  0.00  0.00    +0.000 A 
ATOM     21  C   UNL     1      -0.778   9.951  23.139  0.00  0.00    +0.000 A 
ATOM     22  C   UNL     1      -0.984  11.312  22.919  0.00  0.00    +0.000 A 
ATOM     23  C   UNL     1      -0.519  11.908  21.747  0.00  0.00    +0.000 A 
ATOM     24  C   UNL     1       0.149  11.141  20.795  0.00  0.00    +0.000 A 
ENDBRANCH  18  19
ENDBRANCH  17  18
ENDBRANCH   4  17
TORSDOF 6
ENDMDL
MODEL 6
REMARK VINA RESULT:      -7.8      5.177      7.611
REMARK  Name = 
REMARK  6 active torsions:
REMARK  status: ('A' for Active; 'I' for Inactive)
REMARK    1  A    between atoms: C_4  and  O_5
REMARK    2  A    between atoms: C_6  and  C_7
REMARK    3  A    between atoms: C_7  and  C_8
REMARK    4  A    between atoms: C_11  and  O_12
REMARK    5  A    between atoms: O_12  and  C_13
REMARK    6  A    between atoms: C_13  and  C_14
REMARK                            x       y       z     vdW  Elec       q    Type
REMARK                         _______ _______ _______ _____ _____    ______ ____
ROOT
ATOM      1  C   UNL     1       3.473   4.947  18.096  0.00  0.00    +0.000 A 
ATOM      2  C   UNL     1       2.909   4.636  19.338  0.00  0.00    +0.000 A 
ATOM      3  C   UNL     1       2.335   5.631  20.126  0.00  0.00    +0.000 A 
ATOM      4  C   UNL     1       2.337   6.958  19.692  0.00  0.00    +0.000 A 
ATOM      5  C   UNL     1       2.823   7.265  18.420  0.00  0.00    +0.000 A 
ATOM      6  C   UNL     1       3.389   6.265  17.625  0.00  0.00    +0.000 A 
ENDROOT
BRANCH   1   7
ATOM      7  C   UNL     1       4.181   3.883  17.293  0.00  0.00    +0.000 C 
BRANCH   7  12
ATOM      8  O   UNL     1       7.832   5.311  13.931  0.00  0.00    +0.000 OA
ATOM      9  C   UNL     1       7.150   5.021  14.899  0.00  0.00    +0.000 A 
ATOM     10  N   UNL     1       7.590   4.830  16.186  0.00  0.00    +0.000 N 
ATOM     11  C   UNL     1       6.640   4.458  17.083  0.00  0.00    +0.000 A 
ATOM     12  C   UNL     1       5.401   4.361  16.582  0.00  0.00    +0.000 A 
ATOM     13  S   UNL     1       5.404   4.748  14.872  0.00  0.00    +0.000 S 
ATOM     14  H   UNL     1       8.575   4.920  16.380  0.00  0.00    +0.000 HD
BRANCH  11  15
ATOM     15  O   UNL     1       7.000   4.200  18.366  0.00  0.00    +0.000 OA
ATOM     16  H   UNL     1       6.948   3.240  18.495  0.00  0.00    +0.000 HD
ENDBRANCH  11  15
ENDBRANCH   7  12
ENDBRANCH   1   7
BRANCH   4  17
ATOM     17  O   UNL     1       1.896   8.017  20.437  0.00  0.00    +0.000 OA
BRANCH  17  18
ATOM     18  C   UNL     1       0.682   7.771  21.152  0.00  0.00    +0.000 C 
BRANCH  18  19
ATOM     19  C   UNL     1       0.029   9.088  21.476  0.00  0.00    +0.000 A 
ATOM     20  C   UNL     1      -0.232  10.024  20.469  0.00  0.00    +0.000 A 
ATOM     21  C   UNL     1      -0.828  11.245  20.783  0.00  0.00    +0.000 A 
ATOM     22  C   UNL     1      -1.163  11.542  22.103  0.00  0.00    +0.000 A 
ATOM     23  C   UNL     1      -0.903  10.617  23.114  0.00  0.00    +0.000 A 
ATOM     24  C   UNL     1      -0.307   9.396  22.802  0.00  0.00    +0.000 A 
ENDBRANCH  18  19
ENDBRANCH  17  18
ENDBRANCH   4  17
TORSDOF 6
ENDMDL
MODEL 7
REMARK VINA RESULT:      -7.8      1.206      1.755
REMARK  Name = 
REMARK  6 active torsions:
REMARK  status: ('A' for Active; 'I' for Inactive)
REMARK    1  A    between atoms: C_4  and  O_5
REMARK    2  A    between atoms: C_6  and  C_7
REMARK    3  A    between atoms: C_7  and  C_8
REMARK    4  A    between atoms: C_11  and  O_12
REMARK    5  A    between atoms: O_12  and  C_13
REMARK    6  A    between atoms: C_13  and  C_14
REMARK                            x       y       z     vdW  Elec       q    Type
REMARK                         _______ _______ _______ _____ _____    ______ ____
ROOT
ATOM      1  C   UNL     1       5.966   5.222  17.640  0.00  0.00    +0.000 A 
ATOM      2  C   UNL     1       5.963   6.408  16.898  0.00  0.00    +0.000 A 
ATOM      3  C   UNL     1       6.885   7.417  17.170  0.00  0.00    +0.000 A 
ATOM      4  C   UNL     1       7.811   7.262  18.203  0.00  0.00    +0.000 A 
ATOM      5  C   UNL     1       7.875   6.050  18.893  0.00  0.00    +0.000 A 
ATOM      6  C   UNL     1       6.958   5.034  18.614  0.00  0.00    +0.000 A 
ENDROOT
BRANCH   1   7
ATOM      7  C   UNL     1       4.903   4.177  17.408  0.00  0.00    +0.000 C 
BRANCH   7  12
ATOM      8  O   UNL     1       2.140   2.506  21.438  0.00  0.00    +0.000 OA
ATOM      9  C   UNL     1       2.643   3.106  20.504  0.00  0.00    +0.000 A 
ATOM     10  N   UNL     1       2.144   4.226  19.884  0.00  0.00    +0.000 N 
ATOM     11  C   UNL     1       2.863   4.681  18.825  0.00  0.00    +0.000 A 
ATOM     12  C   UNL     1       3.974   3.980  18.558  0.00  0.00    +0.000 A 
ATOM     13  S   UNL     1       4.145   2.654  19.691  0.00  0.00    +0.000 S 
ATOM     14  H   UNL     1       1.270   4.609  20.206  0.00  0.00    +0.000 HD
BRANCH  11  15
ATOM     15  O   UNL     1       2.414   5.754  18.126  0.00  0.00    +0.000 OA
ATOM     16  H   UNL     1       2.999   6.500  18.330  0.00  0.00    +0.000 HD
ENDBRANCH  11  15
ENDBRANCH   7  12
ENDBRANCH   1   7
BRANCH   4  17
ATOM     17  O   UNL     1       8.682   8.233  18.615  0.00  0.00    +0.000 OA
BRANCH  17  18
ATOM     18  C   UNL     1       8.368   9.546  18.143  0.00  0.00    +0.000 C 
BRANCH  18  19
ATOM     19  C   UNL     1       9.357  10.523  18.719  0.00  0.00    +0.000 A 
ATOM     20  C   UNL     1      10.267  11.191  17.892  0.00  0.00    +0.000 A 
ATOM     21  C   UNL     1      11.186  12.087  18.438  0.00  0.00    +0.000 A 
ATOM     22  C   UNL     1      11.207  12.317  19.813  0.00  0.00    +0.000 A 
ATOM     23  C   UNL     1      10.306  11.654  20.645  0.00  0.00    +0.000 A 
ATOM     24  C   UNL     1       9.387  10.758  20.102  0.00  0.00    +0.000 A 
ENDBRANCH  18  19
ENDBRANCH  17  18
ENDBRANCH   4  17
TORSDOF 6
ENDMDL
MODEL 8
REMARK VINA RESULT:      -7.8      1.272      1.473
REMARK  Name = 
REMARK  6 active torsions:
REMARK  status: ('A' for Active; 'I' for Inactive)
REMARK    1  A    between atoms: C_4  and  O_5
REMARK    2  A    between atoms: C_6  and  C_7
REMARK    3  A    between atoms: C_7  and  C_8
REMARK    4  A    between atoms: C_11  and  O_12
REMARK    5  A    between atoms: O_12  and  C_13
REMARK    6  A    between atoms: C_13  and  C_14
REMARK                            x       y       z     vdW  Elec       q    Type
REMARK                         _______ _______ _______ _____ _____    ______ ____
ROOT
ATOM      1  C   UNL     1       5.757   5.164  17.770  0.00  0.00    +0.000 A 
ATOM      2  C   UNL     1       5.738   6.347  17.022  0.00  0.00    +0.000 A 
ATOM      3  C   UNL     1       6.714   7.323  17.213  0.00  0.00    +0.000 A 
ATOM      4  C   UNL     1       7.711   7.139  18.172  0.00  0.00    +0.000 A 
ATOM      5  C   UNL     1       7.786   5.930  18.865  0.00  0.00    +0.000 A 
ATOM      6  C   UNL     1       6.814   4.946  18.665  0.00  0.00    +0.000 A 
ENDROOT
BRANCH   1   7
ATOM      7  C   UNL     1       4.642   4.158  17.629  0.00  0.00    +0.000 C 
BRANCH   7  12
ATOM      8  O   UNL     1       2.195   2.510  21.868  0.00  0.00    +0.000 OA
ATOM      9  C   UNL     1       2.638   3.111  20.905  0.00  0.00    +0.000 A 
ATOM     10  N   UNL     1       2.149   4.280  20.371  0.00  0.00    +0.000 N 
ATOM     11  C   UNL     1       2.786   4.728  19.259  0.00  0.00    +0.000 A 
ATOM     12  C   UNL     1       3.821   3.975  18.861  0.00  0.00    +0.000 A 
ATOM     13  S   UNL     1       4.023   2.603  19.933  0.00  0.00    +0.000 S 
ATOM     14  H   UNL     1       1.335   4.700  20.790  0.00  0.00    +0.000 HD
BRANCH  11  15
ATOM     15  O   UNL     1       2.335   5.849  18.639  0.00  0.00    +0.000 OA
ATOM     16  H   UNL     1       1.415   5.687  18.379  0.00  0.00    +0.000 HD
ENDBRANCH  11  15
ENDBRANCH   7  12
ENDBRANCH   1   7
BRANCH   4  17
ATOM     17  O   UNL     1       8.647   8.080  18.507  0.00  0.00    +0.000 OA
BRANCH  17  18
ATOM     18  C   UNL     1       8.368   9.392  18.011  0.00  0.00    +0.000 C 
BRANCH  18  19
ATOM     19  C   UNL     1       9.266  10.380  18.706  0.00  0.00    +0.000 A 
ATOM     20  C   UNL     1       9.205  10.550  20.094  0.00  0.00    +0.000 A 
ATOM     21  C   UNL     1      10.035  11.476  20.725  0.00  0.00    +0.000 A 
ATOM     22  C   UNL     1      10.928  12.240  19.976  0.00  0.00    +0.000 A 
ATOM     23  C   UNL     1      10.994  12.080  18.592  0.00  0.00    +0.000 A 
ATOM     24  C   UNL     1      10.165  11.155  17.959  0.00  0.00    +0.000 A 
ENDBRANCH  18  19
ENDBRANCH  17  18
ENDBRANCH   4  17
TORSDOF 6
ENDMDL
MODEL 9
REMARK VINA RESULT:      -7.7      1.166      1.582
REMARK  Name = 
REMARK  6 active torsions:
REMARK  status: ('A' for Active; 'I' for Inactive)
REMARK    1  A    between atoms: C_4  and  O_5
REMARK    2  A    between atoms: C_6  and  C_7
REMARK    3  A    between atoms: C_7  and  C_8
REMARK    4  A    between atoms: C_11  and  O_12
REMARK    5  A    between atoms: O_12  and  C_13
REMARK    6  A    between atoms: C_13  and  C_14
REMARK                            x       y       z     vdW  Elec       q    Type
REMARK                         _______ _______ _______ _____ _____    ______ ____
ROOT
ATOM      1  C   UNL     1       5.948   5.335  17.548  0.00  0.00    +0.000 A 
ATOM      2  C   UNL     1       5.874   6.587  16.927  0.00  0.00    +0.000 A 
ATOM      3  C   UNL     1       6.790   7.589  17.239  0.00  0.00    +0.000 A 
ATOM      4  C   UNL     1       7.782   7.361  18.195  0.00  0.00    +0.000 A 
ATOM      5  C   UNL     1       7.914   6.091  18.758  0.00  0.00    +0.000 A 
ATOM      6  C   UNL     1       7.003   5.082  18.437  0.00  0.00    +0.000 A 
ENDROOT
BRANCH   1   7
ATOM      7  C   UNL     1       4.895   4.289  17.280  0.00  0.00    +0.000 C 
BRANCH   7  12
ATOM      8  O   UNL     1       1.248   5.226  20.815  0.00  0.00    +0.000 OA
ATOM      9  C   UNL     1       1.915   4.913  19.844  0.00  0.00    +0.000 A 
ATOM     10  N   UNL     1       1.513   4.127  18.791  0.00  0.00    +0.000 N 
ATOM     11  C   UNL     1       2.460   3.876  17.850  0.00  0.00    +0.000 A 
ATOM     12  C   UNL     1       3.645   4.460  18.076  0.00  0.00    +0.000 A 
ATOM     13  S   UNL     1       3.595   5.383  19.565  0.00  0.00    +0.000 S 
ATOM     14  H   UNL     1       0.580   3.746  18.799  0.00  0.00    +0.000 HD
BRANCH  11  15
ATOM     15  O   UNL     1       2.160   3.067  16.802  0.00  0.00    +0.000 OA
ATOM     16  H   UNL     1       2.604   2.218  16.954  0.00  0.00    +0.000 HD
ENDBRANCH  11  15
ENDBRANCH   7  12
ENDBRANCH   1   7
BRANCH   4  17
ATOM     17  O   UNL     1       8.657   8.311  18.645  0.00  0.00    +0.000 OA
BRANCH  17  18
ATOM     18  C   UNL     1       8.458   9.610  18.083  0.00  0.00    +0.000 C 
BRANCH  18  19
ATOM     19  C   UNL     1       9.418  10.575  18.727  0.00  0.00    +0.000 A 
ATOM     20  C   UNL     1      10.367  11.259  17.959  0.00  0.00    +0.000 A 
ATOM     21  C   UNL     1      11.259  12.142  18.567  0.00  0.00    +0.000 A 
ATOM     22  C   UNL     1      11.213  12.344  19.945  0.00  0.00    +0.000 A 
ATOM     23  C   UNL     1      10.273  11.664  20.720  0.00  0.00    +0.000 A 
ATOM     24  C   UNL     1       9.381  10.781  20.113  0.00  0.00    +0.000 A 
ENDBRANCH  18  19
ENDBRANCH  17  18
ENDBRANCH   4  17
TORSDOF 6
ENDMDL
