MODEL 1
REMARK VINA RESULT:      -8.0      0.000      0.000
REMARK  Name = 
REMARK  3 active torsions:
REMARK  status: ('A' for Active; 'I' for Inactive)
REMARK    1  A    between atoms: C_1  and  C_2
REMARK    2  A    between atoms: C_13  and  C_14
REMARK    3  A    between atoms: C_17  and  C_18
REMARK                            x       y       z     vdW  Elec       q    Type
REMARK                         _______ _______ _______ _____ _____    ______ ____
ROOT
ATOM      1  C   UNL     1       5.474   2.729  11.839  0.00  0.00    +0.000 C 
ATOM      2  C   UNL     1       5.862   3.585  13.003  0.00  0.00    +0.000 A 
ATOM      3  C   UNL     1       5.129   3.637  14.126  0.00  0.00    +0.000 A 
ATOM      4  C   UNL     1       5.548   4.477  15.218  0.00  0.00    +0.000 A 
ATOM      5  C   UNL     1       6.659   5.206  15.125  0.00  0.00    +0.000 A 
ATOM      6  C   UNL     1       7.489   5.178  13.916  0.00  0.00    +0.000 A 
ATOM      7  O   UNL     1       8.516   5.827  13.778  0.00  0.00    +0.000 OA
ATOM      8  N   UNL     1       7.015   4.343  12.913  0.00  0.00    +0.000 N 
ATOM      9  C   UNL     1       6.787   5.931  16.382  0.00  0.00    +0.000 C 
ATOM     10  O   UNL     1       7.677   6.708  16.684  0.00  0.00    +0.000 OA
ATOM     11  O   UNL     1       5.731   5.610  17.213  0.00  0.00    +0.000 OA
ATOM     12  C   UNL     1       4.957   4.709  16.498  0.00  0.00    +0.000 C 
ATOM     13  C   UNL     1       3.824   4.126  16.914  0.00  0.00    +0.000 C 
ATOM     14  H   UNL     1       7.578   4.313  12.071  0.00  0.00    +0.000 HD
ENDROOT
BRANCH  13  15
ATOM     15  C   UNL     1       3.178   4.301  18.162  0.00  0.00    +0.000 A 
ATOM     16  C   UNL     1       2.415   5.328  18.701  0.00  0.00    +0.000 A 
ATOM     17  C   UNL     1       2.026   4.940  20.007  0.00  0.00    +0.000 A 
ATOM     18  C   UNL     1       2.564   3.694  20.212  0.00  0.00    +0.000 A 
ATOM     19  C   UNL     1       2.544   2.737  21.335  0.00  0.00    +0.000 C 
ATOM     20  O   UNL     1       3.255   3.306  19.113  0.00  0.00    +0.000 OA
ENDBRANCH  13  15
TORSDOF 1
ENDMDL
MODEL 2
REMARK VINA RESULT:      -7.9      2.781      6.957
REMARK  Name = 
REMARK  3 active torsions:
REMARK  status: ('A' for Active; 'I' for Inactive)
REMARK    1  A    between atoms: C_1  and  C_2
REMARK    2  A    between atoms: C_13  and  C_14
REMARK    3  A    between atoms: C_17  and  C_18
REMARK                            x       y       z     vdW  Elec       q    Type
REMARK                         _______ _______ _______ _____ _____    ______ ____
ROOT
ATOM      1  C   UNL     1       1.738   7.738  20.556  0.00  0.00    +0.000 C 
ATOM      2  C   UNL     1       2.097   6.387  20.023  0.00  0.00    +0.000 A 
ATOM      3  C   UNL     1       2.937   6.229  18.989  0.00  0.00    +0.000 A 
ATOM      4  C   UNL     1       3.250   4.906  18.515  0.00  0.00    +0.000 A 
ATOM      5  C   UNL     1       2.714   3.833  19.094  0.00  0.00    +0.000 A 
ATOM      6  C   UNL     1       1.792   3.961  20.228  0.00  0.00    +0.000 A 
ATOM      7  O   UNL     1       1.272   3.012  20.796  0.00  0.00    +0.000 OA
ATOM      8  N   UNL     1       1.545   5.269  20.622  0.00  0.00    +0.000 N 
ATOM      9  C   UNL     1       3.230   2.672  18.380  0.00  0.00    +0.000 C 
ATOM     10  O   UNL     1       2.970   1.504  18.611  0.00  0.00    +0.000 OA
ATOM     11  O   UNL     1       4.080   3.087  17.373  0.00  0.00    +0.000 OA
ATOM     12  C   UNL     1       4.098   4.472  17.449  0.00  0.00    +0.000 C 
ATOM     13  C   UNL     1       4.792   5.304  16.660  0.00  0.00    +0.000 C 
ATOM     14  H   UNL     1       0.909   5.375  21.405  0.00  0.00    +0.000 HD
ENDROOT
BRANCH  13  15
ATOM     15  C   UNL     1       5.651   4.954  15.590  0.00  0.00    +0.000 A 
ATOM     16  C   UNL     1       7.007   5.144  15.359  0.00  0.00    +0.000 A 
ATOM     17  C   UNL     1       7.317   4.571  14.101  0.00  0.00    +0.000 A 
ATOM     18  C   UNL     1       6.141   4.054  13.616  0.00  0.00    +0.000 A 
ATOM     19  C   UNL     1       5.765   3.336  12.383  0.00  0.00    +0.000 C 
ATOM     20  O   UNL     1       5.141   4.280  14.501  0.00  0.00    +0.000 OA
ENDBRANCH  13  15
TORSDOF 1
ENDMDL
MODEL 3
REMARK VINA RESULT:      -7.9      2.920      6.661
REMARK  Name = 
REMARK  3 active torsions:
REMARK  status: ('A' for Active; 'I' for Inactive)
REMARK    1  A    between atoms: C_1  and  C_2
REMARK    2  A    between atoms: C_13  and  C_14
REMARK    3  A    between atoms: C_17  and  C_18
REMARK                            x       y       z     vdW  Elec       q    Type
REMARK                         _______ _______ _______ _____ _____    ______ ____
ROOT
ATOM      1  C   UNL     1       2.231   3.048  21.555  0.00  0.00    +0.000 C 
ATOM      2  C   UNL     1       2.486   4.202  20.639  0.00  0.00    +0.000 A 
ATOM      3  C   UNL     1       3.254   4.087  19.544  0.00  0.00    +0.000 A 
ATOM      4  C   UNL     1       3.468   5.231  18.695  0.00  0.00    +0.000 A 
ATOM      5  C   UNL     1       2.910   6.405  18.984  0.00  0.00    +0.000 A 
ATOM      6  C   UNL     1       2.063   6.573  20.171  0.00  0.00    +0.000 A 
ATOM      7  O   UNL     1       1.528   7.627  20.483  0.00  0.00    +0.000 OA
ATOM      8  N   UNL     1       1.908   5.424  20.933  0.00  0.00    +0.000 N 
ATOM      9  C   UNL     1       3.325   7.332  17.940  0.00  0.00    +0.000 C 
ATOM     10  O   UNL     1       3.021   8.509  17.853  0.00  0.00    +0.000 OA
ATOM     11  O   UNL     1       4.134   6.677  17.032  0.00  0.00    +0.000 OA
ATOM     12  C   UNL     1       4.229   5.372  17.493  0.00  0.00    +0.000 C 
ATOM     13  C   UNL     1       4.919   4.374  16.924  0.00  0.00    +0.000 C 
ATOM     14  H   UNL     1       1.326   5.524  21.757  0.00  0.00    +0.000 HD
ENDROOT
BRANCH  13  15
ATOM     15  C   UNL     1       5.692   4.433  15.740  0.00  0.00    +0.000 A 
ATOM     16  C   UNL     1       6.900   5.040  15.423  0.00  0.00    +0.000 A 
ATOM     17  C   UNL     1       7.189   4.751  14.066  0.00  0.00    +0.000 A 
ATOM     18  C   UNL     1       6.149   3.979  13.610  0.00  0.00    +0.000 A 
ATOM     19  C   UNL     1       5.828   3.348  12.316  0.00  0.00    +0.000 C 
ATOM     20  O   UNL     1       5.250   3.785  14.606  0.00  0.00    +0.000 OA
ENDBRANCH  13  15
TORSDOF 1
ENDMDL
MODEL 4
REMARK VINA RESULT:      -7.8      0.675      1.198
REMARK  Name = 
REMARK  3 active torsions:
REMARK  status: ('A' for Active; 'I' for Inactive)
REMARK    1  A    between atoms: C_1  and  C_2
REMARK    2  A    between atoms: C_13  and  C_14
REMARK    3  A    between atoms: C_17  and  C_18
REMARK                            x       y       z     vdW  Elec       q    Type
REMARK                         _______ _______ _______ _____ _____    ______ ____
ROOT
ATOM      1  C   UNL     1       5.518   2.741  11.612  0.00  0.00    +0.000 C 
ATOM      2  C   UNL     1       5.930   3.530  12.814  0.00  0.00    +0.000 A 
ATOM      3  C   UNL     1       5.264   3.459  13.977  0.00  0.00    +0.000 A 
ATOM      4  C   UNL     1       5.703   4.240  15.104  0.00  0.00    +0.000 A 
ATOM      5  C   UNL     1       6.767   5.034  15.006  0.00  0.00    +0.000 A 
ATOM      6  C   UNL     1       7.525   5.140  13.754  0.00  0.00    +0.000 A 
ATOM      7  O   UNL     1       8.507   5.853  13.609  0.00  0.00    +0.000 OA
ATOM      8  N   UNL     1       7.036   4.355  12.719  0.00  0.00    +0.000 N 
ATOM      9  C   UNL     1       6.933   5.672  16.305  0.00  0.00    +0.000 C 
ATOM     10  O   UNL     1       7.798   6.473  16.616  0.00  0.00    +0.000 OA
ATOM     11  O   UNL     1       5.946   5.233  17.167  0.00  0.00    +0.000 OA
ATOM     12  C   UNL     1       5.178   4.345  16.429  0.00  0.00    +0.000 C 
ATOM     13  C   UNL     1       4.103   3.671  16.862  0.00  0.00    +0.000 C 
ATOM     14  H   UNL     1       7.549   4.418  11.846  0.00  0.00    +0.000 HD
ENDROOT
BRANCH  13  15
ATOM     15  C   UNL     1       3.524   3.719  18.153  0.00  0.00    +0.000 A 
ATOM     16  C   UNL     1       3.400   2.786  19.174  0.00  0.00    +0.000 A 
ATOM     17  C   UNL     1       2.722   3.407  20.251  0.00  0.00    +0.000 A 
ATOM     18  C   UNL     1       2.460   4.693  19.847  0.00  0.00    +0.000 A 
ATOM     19  C   UNL     1       1.795   5.852  20.472  0.00  0.00    +0.000 C 
ATOM     20  O   UNL     1       2.937   4.886  18.593  0.00  0.00    +0.000 OA
ENDBRANCH  13  15
TORSDOF 1
ENDMDL
MODEL 5
REMARK VINA RESULT:      -7.7      3.529      5.651
REMARK  Name = 
REMARK  3 active torsions:
REMARK  status: ('A' for Active; 'I' for Inactive)
REMARK    1  A    between atoms: C_1  and  C_2
REMARK    2  A    between atoms: C_13  and  C_14
REMARK    3  A    between atoms: C_17  and  C_18
REMARK                            x       y       z     vdW  Elec       q    Type
REMARK                         _______ _______ _______ _____ _____    ______ ____
ROOT
ATOM      1  C   UNL     1       6.816   4.702  16.398  0.00  0.00    +0.000 C 
ATOM      2  C   UNL     1       5.761   4.701  17.459  0.00  0.00    +0.000 A 
ATOM      3  C   UNL     1       4.888   5.711  17.596  0.00  0.00    +0.000 A 
ATOM      4  C   UNL     1       3.891   5.661  18.635  0.00  0.00    +0.000 A 
ATOM      5  C   UNL     1       3.826   4.621  19.463  0.00  0.00    +0.000 A 
ATOM      6  C   UNL     1       4.761   3.495  19.346  0.00  0.00    +0.000 A 
ATOM      7  O   UNL     1       4.746   2.517  20.080  0.00  0.00    +0.000 OA
ATOM      8  N   UNL     1       5.687   3.622  18.320  0.00  0.00    +0.000 N 
ATOM      9  C   UNL     1       2.726   4.886  20.380  0.00  0.00    +0.000 C 
ATOM     10  O   UNL     1       2.349   4.167  21.289  0.00  0.00    +0.000 OA
ATOM     11  O   UNL     1       2.146   6.102  20.070  0.00  0.00    +0.000 OA
ATOM     12  C   UNL     1       2.864   6.590  18.989  0.00  0.00    +0.000 C 
ATOM     13  C   UNL     1       2.653   7.750  18.351  0.00  0.00    +0.000 C 
ATOM     14  H   UNL     1       6.341   2.853  18.227  0.00  0.00    +0.000 HD
ENDROOT
BRANCH  13  15
ATOM     15  C   UNL     1       1.661   8.718  18.638  0.00  0.00    +0.000 A 
ATOM     16  C   UNL     1       0.893   9.556  17.841  0.00  0.00    +0.000 A 
ATOM     17  C   UNL     1       0.054  10.317  18.692  0.00  0.00    +0.000 A 
ATOM     18  C   UNL     1       0.341   9.912  19.972  0.00  0.00    +0.000 A 
ATOM     19  C   UNL     1      -0.160  10.289  21.308  0.00  0.00    +0.000 C 
ATOM     20  O   UNL     1       1.302   8.956  19.947  0.00  0.00    +0.000 OA
ENDBRANCH  13  15
TORSDOF 1
ENDMDL
MODEL 6
REMARK VINA RESULT:      -7.5      3.281      5.299
REMARK  Name = 
REMARK  3 active torsions:
REMARK  status: ('A' for Active; 'I' for Inactive)
REMARK    1  A    between atoms: C_1  and  C_2
REMARK    2  A    between atoms: C_13  and  C_14
REMARK    3  A    between atoms: C_17  and  C_18
REMARK                            x       y       z     vdW  Elec       q    Type
REMARK                         _______ _______ _______ _____ _____    ______ ____
ROOT
ATOM      1  C   UNL     1       6.298   4.165  15.500  0.00  0.00    +0.000 C 
ATOM      2  C   UNL     1       5.190   4.123  16.504  0.00  0.00    +0.000 A 
ATOM      3  C   UNL     1       4.528   5.227  16.881  0.00  0.00    +0.000 A 
ATOM      4  C   UNL     1       3.468   5.131  17.852  0.00  0.00    +0.000 A 
ATOM      5  C   UNL     1       3.137   3.955  18.381  0.00  0.00    +0.000 A 
ATOM      6  C   UNL     1       3.835   2.723  17.995  0.00  0.00    +0.000 A 
ATOM      7  O   UNL     1       3.573   1.619  18.449  0.00  0.00    +0.000 OA
ATOM      8  N   UNL     1       4.840   2.903  17.055  0.00  0.00    +0.000 N 
ATOM      9  C   UNL     1       2.048   4.209  19.314  0.00  0.00    +0.000 C 
ATOM     10  O   UNL     1       1.471   3.382  19.998  0.00  0.00    +0.000 OA
ATOM     11  O   UNL     1       1.746   5.557  19.318  0.00  0.00    +0.000 OA
ATOM     12  C   UNL     1       2.623   6.137  18.415  0.00  0.00    +0.000 C 
ATOM     13  C   UNL     1       2.694   7.437  18.095  0.00  0.00    +0.000 C 
ATOM     14  H   UNL     1       5.333   2.062  16.778  0.00  0.00    +0.000 HD
ENDROOT
BRANCH  13  15
ATOM     15  C   UNL     1       1.896   8.489  18.604  0.00  0.00    +0.000 A 
ATOM     16  C   UNL     1       1.309   9.604  18.021  0.00  0.00    +0.000 A 
ATOM     17  C   UNL     1       0.615  10.311  19.034  0.00  0.00    +0.000 A 
ATOM     18  C   UNL     1       0.804   9.599  20.193  0.00  0.00    +0.000 A 
ATOM     19  C   UNL     1       0.363   9.774  21.590  0.00  0.00    +0.000 C 
ATOM     20  O   UNL     1       1.569   8.509  19.943  0.00  0.00    +0.000 OA
ENDBRANCH  13  15
TORSDOF 1
ENDMDL
MODEL 7
REMARK VINA RESULT:      -7.4      3.685      5.952
REMARK  Name = 
REMARK  3 active torsions:
REMARK  status: ('A' for Active; 'I' for Inactive)
REMARK    1  A    between atoms: C_1  and  C_2
REMARK    2  A    between atoms: C_13  and  C_14
REMARK    3  A    between atoms: C_17  and  C_18
REMARK                            x       y       z     vdW  Elec       q    Type
REMARK                         _______ _______ _______ _____ _____    ______ ____
ROOT
ATOM      1  C   UNL     1       6.244   4.977  16.711  0.00  0.00    +0.000 C 
ATOM      2  C   UNL     1       5.232   4.769  17.793  0.00  0.00    +0.000 A 
ATOM      3  C   UNL     1       4.414   5.750  18.202  0.00  0.00    +0.000 A 
ATOM      4  C   UNL     1       3.458   5.497  19.249  0.00  0.00    +0.000 A 
ATOM      5  C   UNL     1       3.375   4.294  19.815  0.00  0.00    +0.000 A 
ATOM      6  C   UNL     1       4.250   3.193  19.396  0.00  0.00    +0.000 A 
ATOM      7  O   UNL     1       4.217   2.072  19.883  0.00  0.00    +0.000 OA
ATOM      8  N   UNL     1       5.140   3.522  18.383  0.00  0.00    +0.000 N 
ATOM      9  C   UNL     1       2.325   4.379  20.821  0.00  0.00    +0.000 C 
ATOM     10  O   UNL     1       1.950   3.482  21.557  0.00  0.00    +0.000 OA
ATOM     11  O   UNL     1       1.793   5.654  20.830  0.00  0.00    +0.000 OA
ATOM     12  C   UNL     1       2.490   6.355  19.858  0.00  0.00    +0.000 C 
ATOM     13  C   UNL     1       2.310   7.638  19.517  0.00  0.00    +0.000 C 
ATOM     14  H   UNL     1       5.753   2.772  18.083  0.00  0.00    +0.000 HD
ENDROOT
BRANCH  13  15
ATOM     15  C   UNL     1       1.377   8.549  20.068  0.00  0.00    +0.000 A 
ATOM     16  C   UNL     1       0.598   9.559  19.521  0.00  0.00    +0.000 A 
ATOM     17  C   UNL     1      -0.157  10.142  20.568  0.00  0.00    +0.000 A 
ATOM     18  C   UNL     1       0.189   9.464  21.711  0.00  0.00    +0.000 A 
ATOM     19  C   UNL     1      -0.216   9.561  23.126  0.00  0.00    +0.000 C 
ATOM     20  O   UNL     1       1.107   8.511  21.420  0.00  0.00    +0.000 OA
ENDBRANCH  13  15
TORSDOF 1
ENDMDL
MODEL 8
REMARK VINA RESULT:      -7.4      4.130      6.322
REMARK  Name = 
REMARK  3 active torsions:
REMARK  status: ('A' for Active; 'I' for Inactive)
REMARK    1  A    between atoms: C_1  and  C_2
REMARK    2  A    between atoms: C_13  and  C_14
REMARK    3  A    between atoms: C_17  and  C_18
REMARK                            x       y       z     vdW  Elec       q    Type
REMARK                         _______ _______ _______ _____ _____    ______ ____
ROOT
ATOM      1  C   UNL     1       6.722   4.773  17.610  0.00  0.00    +0.000 C 
ATOM      2  C   UNL     1       5.495   4.559  18.438  0.00  0.00    +0.000 A 
ATOM      3  C   UNL     1       4.645   5.557  18.724  0.00  0.00    +0.000 A 
ATOM      4  C   UNL     1       3.477   5.297  19.526  0.00  0.00    +0.000 A 
ATOM      5  C   UNL     1       3.231   4.073  19.989  0.00  0.00    +0.000 A 
ATOM      6  C   UNL     1       4.135   2.954  19.699  0.00  0.00    +0.000 A 
ATOM      7  O   UNL     1       3.957   1.812  20.099  0.00  0.00    +0.000 OA
ATOM      8  N   UNL     1       5.233   3.290  18.920  0.00  0.00    +0.000 N 
ATOM      9  C   UNL     1       1.994   4.157  20.753  0.00  0.00    +0.000 C 
ATOM     10  O   UNL     1       1.438   3.244  21.337  0.00  0.00    +0.000 OA
ATOM     11  O   UNL     1       1.519   5.455  20.726  0.00  0.00    +0.000 OA
ATOM     12  C   UNL     1       2.434   6.169  19.967  0.00  0.00    +0.000 C 
ATOM     13  C   UNL     1       2.379   7.476  19.674  0.00  0.00    +0.000 C 
ATOM     14  H   UNL     1       5.868   2.527  18.711  0.00  0.00    +0.000 HD
ENDROOT
BRANCH  13  15
ATOM     15  C   UNL     1       1.383   8.401  20.069  0.00  0.00    +0.000 A 
ATOM     16  C   UNL     1       0.739   8.648  21.274  0.00  0.00    +0.000 A 
ATOM     17  C   UNL     1      -0.174   9.711  21.070  0.00  0.00    +0.000 A 
ATOM     18  C   UNL     1      -0.051  10.072  19.751  0.00  0.00    +0.000 A 
ATOM     19  C   UNL     1      -0.695  11.090  18.899  0.00  0.00    +0.000 C 
ATOM     20  O   UNL     1       0.878   9.293  19.146  0.00  0.00    +0.000 OA
ENDBRANCH  13  15
TORSDOF 1
ENDMDL
MODEL 9
REMARK VINA RESULT:      -7.3      3.706      5.676
REMARK  Name = 
REMARK  3 active torsions:
REMARK  status: ('A' for Active; 'I' for Inactive)
REMARK    1  A    between atoms: C_1  and  C_2
REMARK    2  A    between atoms: C_13  and  C_14
REMARK    3  A    between atoms: C_17  and  C_18
REMARK                            x       y       z     vdW  Elec       q    Type
REMARK                         _______ _______ _______ _____ _____    ______ ____
ROOT
ATOM      1  C   UNL     1       6.629   4.769  15.815  0.00  0.00    +0.000 C 
ATOM      2  C   UNL     1       5.646   4.904  16.935  0.00  0.00    +0.000 A 
ATOM      3  C   UNL     1       4.818   5.955  17.034  0.00  0.00    +0.000 A 
ATOM      4  C   UNL     1       3.891   6.036  18.133  0.00  0.00    +0.000 A 
ATOM      5  C   UNL     1       3.845   5.075  19.054  0.00  0.00    +0.000 A 
ATOM      6  C   UNL     1       4.732   3.909  18.982  0.00  0.00    +0.000 A 
ATOM      7  O   UNL     1       4.733   3.001  19.800  0.00  0.00    +0.000 OA
ATOM      8  N   UNL     1       5.593   3.909  17.893  0.00  0.00    +0.000 N 
ATOM      9  C   UNL     1       2.817   5.463  20.010  0.00  0.00    +0.000 C 
ATOM     10  O   UNL     1       2.477   4.843  21.002  0.00  0.00    +0.000 OA
ATOM     11  O   UNL     1       2.259   6.669  19.628  0.00  0.00    +0.000 OA
ATOM     12  C   UNL     1       2.920   7.032  18.465  0.00  0.00    +0.000 C 
ATOM     13  C   UNL     1       2.707   8.138  17.739  0.00  0.00    +0.000 C 
ATOM     14  H   UNL     1       6.213   3.109  17.830  0.00  0.00    +0.000 HD
ENDROOT
BRANCH  13  15
ATOM     15  C   UNL     1       1.769   9.165  17.998  0.00  0.00    +0.000 A 
ATOM     16  C   UNL     1       1.879  10.438  18.542  0.00  0.00    +0.000 A 
ATOM     17  C   UNL     1       0.587  11.020  18.553  0.00  0.00    +0.000 A 
ATOM     18  C   UNL     1      -0.258  10.082  18.014  0.00  0.00    +0.000 A 
ATOM     19  C   UNL     1      -1.707  10.042  17.738  0.00  0.00    +0.000 C 
ATOM     20  O   UNL     1       0.441   8.971  17.681  0.00  0.00    +0.000 OA
ENDBRANCH  13  15
TORSDOF 1
ENDMDL
