MODEL 1
REMARK VINA RESULT:      -7.4      0.000      0.000
REMARK  Name = 
REMARK  4 active torsions:
REMARK  status: ('A' for Active; 'I' for Inactive)
REMARK    1  A    between atoms: C_2  and  C_3
REMARK    2  A    between atoms: C_3  and  C_4
REMARK    3  A    between atoms: C_6  and  N_7
REMARK    4  A    between atoms: N_14  and  N_15
REMARK                            x       y       z     vdW  Elec       q    Type
REMARK                         _______ _______ _______ _____ _____    ______ ____
ROOT
ATOM      1  C   UNL     1       4.238   7.273  17.287  0.00  0.00    +0.000 C 
ENDROOT
BRANCH   1   2
ATOM      2  C   UNL     1       5.341   6.312  16.920  0.00  0.00    +0.000 A 
ATOM      3  C   UNL     1       5.592   5.966  15.581  0.00  0.00    +0.000 A 
ATOM      4  C   UNL     1       6.613   5.048  15.277  0.00  0.00    +0.000 A 
ATOM      5  C   UNL     1       7.390   4.478  16.294  0.00  0.00    +0.000 A 
ATOM      6  C   UNL     1       7.152   4.841  17.621  0.00  0.00    +0.000 A 
ATOM      7  C   UNL     1       6.141   5.752  17.921  0.00  0.00    +0.000 A 
ATOM      8  F   UNL     1       5.925   6.083  19.201  0.00  0.00    +0.000 F 
BRANCH   4   9
ATOM      9  N   UNL     1       6.858   4.664  13.878  0.00  0.00    +0.000 N 
ATOM     10  O   UNL     1       7.656   5.350  13.222  0.00  0.00    +0.000 OA
ATOM     11  O   UNL     1       6.245   3.684  13.435  0.00  0.00    +0.000 OA
ENDBRANCH   4   9
ENDBRANCH   1   2
BRANCH   1  13
ATOM     12  O   UNL     1       2.521   7.345  18.965  0.00  0.00    +0.000 OA
ATOM     13  C   UNL     1       3.179   6.658  18.186  0.00  0.00    +0.000 C 
ATOM     14  N   UNL     1       3.043   5.282  18.015  0.00  0.00    +0.000 N 
ATOM     15  H   UNL     1       3.748   4.762  17.501  0.00  0.00    +0.000 HD
BRANCH  14  16
ATOM     16  N   UNL     1       2.073   4.568  18.755  0.00  0.00    +0.000 NA
ATOM     17  C   UNL     1       1.783   3.262  18.146  0.00  0.00    +0.000 C 
ATOM     18  C   UNL     1       0.684   2.525  18.914  0.00  0.00    +0.000 C 
ATOM     19  C   UNL     1       1.056   2.359  20.382  0.00  0.00    +0.000 C 
ATOM     20  C   UNL     1       1.425   3.705  20.993  0.00  0.00    +0.000 C 
ATOM     21  C   UNL     1       2.481   4.435  20.162  0.00  0.00    +0.000 C 
ENDBRANCH  14  16
ENDBRANCH   1  13
TORSDOF 4
ENDMDL
MODEL 2
REMARK VINA RESULT:      -7.2      2.680      6.473
REMARK  Name = 
REMARK  4 active torsions:
REMARK  status: ('A' for Active; 'I' for Inactive)
REMARK    1  A    between atoms: C_2  and  C_3
REMARK    2  A    between atoms: C_3  and  C_4
REMARK    3  A    between atoms: C_6  and  N_7
REMARK    4  A    between atoms: N_14  and  N_15
REMARK                            x       y       z     vdW  Elec       q    Type
REMARK                         _______ _______ _______ _____ _____    ______ ____
ROOT
ATOM      1  C   UNL     1       6.492   5.578  18.398  0.00  0.00    +0.000 C 
ENDROOT
BRANCH   1   2
ATOM      2  C   UNL     1       5.017   5.310  18.565  0.00  0.00    +0.000 A 
ATOM      3  C   UNL     1       4.554   4.152  19.212  0.00  0.00    +0.000 A 
ATOM      4  C   UNL     1       3.172   3.921  19.328  0.00  0.00    +0.000 A 
ATOM      5  C   UNL     1       2.247   4.840  18.812  0.00  0.00    +0.000 A 
ATOM      6  C   UNL     1       2.711   6.000  18.189  0.00  0.00    +0.000 A 
ATOM      7  C   UNL     1       4.081   6.227  18.076  0.00  0.00    +0.000 A 
ATOM      8  F   UNL     1       4.506   7.345  17.470  0.00  0.00    +0.000 F 
BRANCH   4   9
ATOM      9  N   UNL     1       2.686   2.696  19.981  0.00  0.00    +0.000 N 
ATOM     10  O   UNL     1       2.908   2.561  21.194  0.00  0.00    +0.000 OA
ATOM     11  O   UNL     1       2.095   1.866  19.278  0.00  0.00    +0.000 OA
ENDBRANCH   4   9
ENDBRANCH   1   2
BRANCH   1  13
ATOM     12  O   UNL     1       8.107   4.224  17.244  0.00  0.00    +0.000 OA
ATOM     13  C   UNL     1       7.089   4.911  17.170  0.00  0.00    +0.000 C 
ATOM     14  N   UNL     1       6.365   5.152  16.005  0.00  0.00    +0.000 N 
ATOM     15  H   UNL     1       5.656   5.880  15.989  0.00  0.00    +0.000 HD
BRANCH  14  16
ATOM     16  N   UNL     1       6.774   4.570  14.783  0.00  0.00    +0.000 NA
ATOM     17  C   UNL     1       5.634   4.003  14.048  0.00  0.00    +0.000 C 
ATOM     18  C   UNL     1       6.093   3.315  12.761  0.00  0.00    +0.000 C 
ATOM     19  C   UNL     1       6.876   4.275  11.873  0.00  0.00    +0.000 C 
ATOM     20  C   UNL     1       8.015   4.916  12.658  0.00  0.00    +0.000 C 
ATOM     21  C   UNL     1       7.522   5.537  13.967  0.00  0.00    +0.000 C 
ENDBRANCH  14  16
ENDBRANCH   1  13
TORSDOF 4
ENDMDL
MODEL 3
REMARK VINA RESULT:      -7.2      3.106      6.240
REMARK  Name = 
REMARK  4 active torsions:
REMARK  status: ('A' for Active; 'I' for Inactive)
REMARK    1  A    between atoms: C_2  and  C_3
REMARK    2  A    between atoms: C_3  and  C_4
REMARK    3  A    between atoms: C_6  and  N_7
REMARK    4  A    between atoms: N_14  and  N_15
REMARK                            x       y       z     vdW  Elec       q    Type
REMARK                         _______ _______ _______ _____ _____    ______ ____
ROOT
ATOM      1  C   UNL     1       5.093   6.419  17.495  0.00  0.00    +0.000 C 
ENDROOT
BRANCH   1   2
ATOM      2  C   UNL     1       4.151   5.388  18.065  0.00  0.00    +0.000 A 
ATOM      3  C   UNL     1       4.617   4.137  18.504  0.00  0.00    +0.000 A 
ATOM      4  C   UNL     1       3.708   3.190  19.008  0.00  0.00    +0.000 A 
ATOM      5  C   UNL     1       2.339   3.483  19.087  0.00  0.00    +0.000 A 
ATOM      6  C   UNL     1       1.883   4.735  18.671  0.00  0.00    +0.000 A 
ATOM      7  C   UNL     1       2.786   5.672  18.173  0.00  0.00    +0.000 A 
ATOM      8  F   UNL     1       2.327   6.867  17.774  0.00  0.00    +0.000 F 
BRANCH   4   9
ATOM      9  N   UNL     1       4.191   1.870  19.441  0.00  0.00    +0.000 N 
ATOM     10  O   UNL     1       4.942   1.824  20.426  0.00  0.00    +0.000 OA
ATOM     11  O   UNL     1       3.827   0.882  18.789  0.00  0.00    +0.000 OA
ENDBRANCH   4   9
ENDBRANCH   1   2
BRANCH   1  13
ATOM     12  O   UNL     1       4.908   7.277  15.259  0.00  0.00    +0.000 OA
ATOM     13  C   UNL     1       5.229   6.337  15.984  0.00  0.00    +0.000 C 
ATOM     14  N   UNL     1       5.753   5.124  15.543  0.00  0.00    +0.000 N 
ATOM     15  H   UNL     1       5.810   4.334  16.179  0.00  0.00    +0.000 HD
BRANCH  14  16
ATOM     16  N   UNL     1       5.973   4.907  14.163  0.00  0.00    +0.000 NA
ATOM     17  C   UNL     1       7.395   5.051  13.815  0.00  0.00    +0.000 C 
ATOM     18  C   UNL     1       7.616   4.883  12.311  0.00  0.00    +0.000 C 
ATOM     19  C   UNL     1       7.081   3.543  11.823  0.00  0.00    +0.000 C 
ATOM     20  C   UNL     1       5.627   3.364  12.247  0.00  0.00    +0.000 C 
ATOM     21  C   UNL     1       5.440   3.602  13.746  0.00  0.00    +0.000 C 
ENDBRANCH  14  16
ENDBRANCH   1  13
TORSDOF 4
ENDMDL
MODEL 4
REMARK VINA RESULT:      -7.2      2.462      3.203
REMARK  Name = 
REMARK  4 active torsions:
REMARK  status: ('A' for Active; 'I' for Inactive)
REMARK    1  A    between atoms: C_2  and  C_3
REMARK    2  A    between atoms: C_3  and  C_4
REMARK    3  A    between atoms: C_6  and  N_7
REMARK    4  A    between atoms: N_14  and  N_15
REMARK                            x       y       z     vdW  Elec       q    Type
REMARK                         _______ _______ _______ _____ _____    ______ ____
ROOT
ATOM      1  C   UNL     1       6.398   4.095  16.310  0.00  0.00    +0.000 C 
ENDROOT
BRANCH   1   2
ATOM      2  C   UNL     1       6.542   4.189  14.811  0.00  0.00    +0.000 A 
ATOM      3  C   UNL     1       5.788   3.371  13.952  0.00  0.00    +0.000 A 
ATOM      4  C   UNL     1       5.966   3.468  12.561  0.00  0.00    +0.000 A 
ATOM      5  C   UNL     1       6.883   4.379  12.018  0.00  0.00    +0.000 A 
ATOM      6  C   UNL     1       7.614   5.205  12.873  0.00  0.00    +0.000 A 
ATOM      7  C   UNL     1       7.436   5.108  14.252  0.00  0.00    +0.000 A 
ATOM      8  F   UNL     1       8.151   5.907  15.056  0.00  0.00    +0.000 F 
BRANCH   4   9
ATOM      9  N   UNL     1       5.197   2.593  11.662  0.00  0.00    +0.000 N 
ATOM     10  O   UNL     1       4.109   3.011  11.241  0.00  0.00    +0.000 OA
ATOM     11  O   UNL     1       5.678   1.485  11.389  0.00  0.00    +0.000 OA
ENDBRANCH   4   9
ENDBRANCH   1   2
BRANCH   1  13
ATOM     12  O   UNL     1       4.450   5.487  16.507  0.00  0.00    +0.000 OA
ATOM     13  C   UNL     1       4.998   4.425  16.800  0.00  0.00    +0.000 C 
ATOM     14  N   UNL     1       4.433   3.416  17.577  0.00  0.00    +0.000 N 
ATOM     15  H   UNL     1       5.016   2.664  17.934  0.00  0.00    +0.000 HD
BRANCH  14  16
ATOM     16  N   UNL     1       3.120   3.560  18.079  0.00  0.00    +0.000 NA
ATOM     17  C   UNL     1       2.428   2.265  18.155  0.00  0.00    +0.000 C 
ATOM     18  C   UNL     1       0.985   2.436  18.634  0.00  0.00    +0.000 C 
ATOM     19  C   UNL     1       0.933   3.149  19.980  0.00  0.00    +0.000 C 
ATOM     20  C   UNL     1       1.712   4.458  19.919  0.00  0.00    +0.000 C 
ATOM     21  C   UNL     1       3.127   4.251  19.377  0.00  0.00    +0.000 C 
ENDBRANCH  14  16
ENDBRANCH   1  13
TORSDOF 4
ENDMDL
MODEL 5
REMARK VINA RESULT:      -7.1      1.996      3.404
REMARK  Name = 
REMARK  4 active torsions:
REMARK  status: ('A' for Active; 'I' for Inactive)
REMARK    1  A    between atoms: C_2  and  C_3
REMARK    2  A    between atoms: C_3  and  C_4
REMARK    3  A    between atoms: C_6  and  N_7
REMARK    4  A    between atoms: N_14  and  N_15
REMARK                            x       y       z     vdW  Elec       q    Type
REMARK                         _______ _______ _______ _____ _____    ______ ____
ROOT
ATOM      1  C   UNL     1       3.268   3.465  17.474  0.00  0.00    +0.000 C 
ENDROOT
BRANCH   1   2
ATOM      2  C   UNL     1       4.665   3.982  17.236  0.00  0.00    +0.000 A 
ATOM      3  C   UNL     1       5.165   4.161  15.935  0.00  0.00    +0.000 A 
ATOM      4  C   UNL     1       6.481   4.621  15.750  0.00  0.00    +0.000 A 
ATOM      5  C   UNL     1       7.300   4.913  16.850  0.00  0.00    +0.000 A 
ATOM      6  C   UNL     1       6.791   4.754  18.140  0.00  0.00    +0.000 A 
ATOM      7  C   UNL     1       5.487   4.299  18.322  0.00  0.00    +0.000 A 
ATOM      8  F   UNL     1       5.020   4.150  19.570  0.00  0.00    +0.000 F 
BRANCH   4   9
ATOM      9  N   UNL     1       7.015   4.782  14.389  0.00  0.00    +0.000 N 
ATOM     10  O   UNL     1       6.543   4.065  13.494  0.00  0.00    +0.000 OA
ATOM     11  O   UNL     1       7.914   5.617  14.219  0.00  0.00    +0.000 OA
ENDBRANCH   4   9
ENDBRANCH   1   2
BRANCH   1  13
ATOM     12  O   UNL     1       1.319   4.184  18.680  0.00  0.00    +0.000 OA
ATOM     13  C   UNL     1       2.336   4.507  18.069  0.00  0.00    +0.000 C 
ATOM     14  N   UNL     1       2.765   5.816  17.858  0.00  0.00    +0.000 N 
ATOM     15  H   UNL     1       3.501   6.006  17.184  0.00  0.00    +0.000 HD
BRANCH  14  16
ATOM     16  N   UNL     1       2.022   6.898  18.382  0.00  0.00    +0.000 NA
ATOM     17  C   UNL     1       2.289   7.092  19.815  0.00  0.00    +0.000 C 
ATOM     18  C   UNL     1       1.431   8.220  20.390  0.00  0.00    +0.000 C 
ATOM     19  C   UNL     1       1.649   9.520  19.627  0.00  0.00    +0.000 C 
ATOM     20  C   UNL     1       1.441   9.301  18.133  0.00  0.00    +0.000 C 
ATOM     21  C   UNL     1       2.269   8.126  17.611  0.00  0.00    +0.000 C 
ENDBRANCH  14  16
ENDBRANCH   1  13
TORSDOF 4
ENDMDL
MODEL 6
REMARK VINA RESULT:      -7.1      2.657      3.561
REMARK  Name = 
REMARK  4 active torsions:
REMARK  status: ('A' for Active; 'I' for Inactive)
REMARK    1  A    between atoms: C_2  and  C_3
REMARK    2  A    between atoms: C_3  and  C_4
REMARK    3  A    between atoms: C_6  and  N_7
REMARK    4  A    between atoms: N_14  and  N_15
REMARK                            x       y       z     vdW  Elec       q    Type
REMARK                         _______ _______ _______ _____ _____    ______ ____
ROOT
ATOM      1  C   UNL     1       3.230   5.590  17.766  0.00  0.00    +0.000 C 
ENDROOT
BRANCH   1   2
ATOM      2  C   UNL     1       4.678   5.305  17.451  0.00  0.00    +0.000 A 
ATOM      3  C   UNL     1       5.124   5.170  16.126  0.00  0.00    +0.000 A 
ATOM      4  C   UNL     1       6.476   4.880  15.870  0.00  0.00    +0.000 A 
ATOM      5  C   UNL     1       7.389   4.732  16.924  0.00  0.00    +0.000 A 
ATOM      6  C   UNL     1       6.946   4.888  18.238  0.00  0.00    +0.000 A 
ATOM      7  C   UNL     1       5.606   5.177  18.490  0.00  0.00    +0.000 A 
ATOM      8  F   UNL     1       5.201   5.319  19.759  0.00  0.00    +0.000 F 
BRANCH   4   9
ATOM      9  N   UNL     1       6.938   4.711  14.483  0.00  0.00    +0.000 N 
ATOM     10  O   UNL     1       7.827   5.473  14.074  0.00  0.00    +0.000 OA
ATOM     11  O   UNL     1       6.404   3.824  13.803  0.00  0.00    +0.000 OA
ENDBRANCH   4   9
ENDBRANCH   1   2
BRANCH   1  13
ATOM     12  O   UNL     1       3.451   7.980  17.650  0.00  0.00    +0.000 OA
ATOM     13  C   UNL     1       2.990   7.010  18.251  0.00  0.00    +0.000 C 
ATOM     14  N   UNL     1       2.205   7.075  19.400  0.00  0.00    +0.000 N 
ATOM     15  H   UNL     1       2.028   6.234  19.942  0.00  0.00    +0.000 HD
BRANCH  14  16
ATOM     16  N   UNL     1       1.863   8.329  19.954  0.00  0.00    +0.000 NA
ATOM     17  C   UNL     1       1.030   9.116  19.034  0.00  0.00    +0.000 C 
ATOM     18  C   UNL     1       0.721  10.499  19.611  0.00  0.00    +0.000 C 
ATOM     19  C   UNL     1       0.050  10.388  20.975  0.00  0.00    +0.000 C 
ATOM     20  C   UNL     1       0.880   9.512  21.906  0.00  0.00    +0.000 C 
ATOM     21  C   UNL     1       1.219   8.165  21.266  0.00  0.00    +0.000 C 
ENDBRANCH  14  16
ENDBRANCH   1  13
TORSDOF 4
ENDMDL
MODEL 7
REMARK VINA RESULT:      -7.0      2.233      3.522
REMARK  Name = 
REMARK  4 active torsions:
REMARK  status: ('A' for Active; 'I' for Inactive)
REMARK    1  A    between atoms: C_2  and  C_3
REMARK    2  A    between atoms: C_3  and  C_4
REMARK    3  A    between atoms: C_6  and  N_7
REMARK    4  A    between atoms: N_14  and  N_15
REMARK                            x       y       z     vdW  Elec       q    Type
REMARK                         _______ _______ _______ _____ _____    ______ ____
ROOT
ATOM      1  C   UNL     1       3.952   4.403  18.755  0.00  0.00    +0.000 C 
ENDROOT
BRANCH   1   2
ATOM      2  C   UNL     1       5.159   4.755  17.921  0.00  0.00    +0.000 A 
ATOM      3  C   UNL     1       5.155   4.592  16.526  0.00  0.00    +0.000 A 
ATOM      4  C   UNL     1       6.307   4.907  15.783  0.00  0.00    +0.000 A 
ATOM      5  C   UNL     1       7.459   5.391  16.418  0.00  0.00    +0.000 A 
ATOM      6  C   UNL     1       7.451   5.572  17.802  0.00  0.00    +0.000 A 
ATOM      7  C   UNL     1       6.309   5.260  18.537  0.00  0.00    +0.000 A 
ATOM      8  F   UNL     1       6.324   5.437  19.865  0.00  0.00    +0.000 F 
BRANCH   4   9
ATOM      9  N   UNL     1       6.313   4.711  14.325  0.00  0.00    +0.000 N 
ATOM     10  O   UNL     1       7.272   5.168  13.685  0.00  0.00    +0.000 OA
ATOM     11  O   UNL     1       5.355   4.110  13.821  0.00  0.00    +0.000 OA
ENDBRANCH   4   9
ENDBRANCH   1   2
BRANCH   1  13
ATOM     12  O   UNL     1       1.803   5.037  17.888  0.00  0.00    +0.000 OA
ATOM     13  C   UNL     1       2.786   5.357  18.555  0.00  0.00    +0.000 C 
ATOM     14  N   UNL     1       2.954   6.578  19.203  0.00  0.00    +0.000 N 
ATOM     15  H   UNL     1       3.867   6.838  19.567  0.00  0.00    +0.000 HD
BRANCH  14  16
ATOM     16  N   UNL     1       1.939   7.559  19.141  0.00  0.00    +0.000 NA
ATOM     17  C   UNL     1       1.680   8.152  20.461  0.00  0.00    +0.000 C 
ATOM     18  C   UNL     1       0.534   9.163  20.400  0.00  0.00    +0.000 C 
ATOM     19  C   UNL     1       0.817  10.252  19.372  0.00  0.00    +0.000 C 
ATOM     20  C   UNL     1       1.155   9.634  18.021  0.00  0.00    +0.000 C 
ATOM     21  C   UNL     1       2.261   8.585  18.138  0.00  0.00    +0.000 C 
ENDBRANCH  14  16
ENDBRANCH   1  13
TORSDOF 4
ENDMDL
MODEL 8
REMARK VINA RESULT:      -7.0      4.060      5.367
REMARK  Name = 
REMARK  4 active torsions:
REMARK  status: ('A' for Active; 'I' for Inactive)
REMARK    1  A    between atoms: C_2  and  C_3
REMARK    2  A    between atoms: C_3  and  C_4
REMARK    3  A    between atoms: C_6  and  N_7
REMARK    4  A    between atoms: N_14  and  N_15
REMARK                            x       y       z     vdW  Elec       q    Type
REMARK                         _______ _______ _______ _____ _____    ______ ____
ROOT
ATOM      1  C   UNL     1       2.604   7.102  19.125  0.00  0.00    +0.000 C 
ENDROOT
BRANCH   1   2
ATOM      2  C   UNL     1       3.385   6.153  18.250  0.00  0.00    +0.000 A 
ATOM      3  C   UNL     1       4.709   6.432  17.871  0.00  0.00    +0.000 A 
ATOM      4  C   UNL     1       5.399   5.538  17.034  0.00  0.00    +0.000 A 
ATOM      5  C   UNL     1       4.784   4.363  16.579  0.00  0.00    +0.000 A 
ATOM      6  C   UNL     1       3.477   4.078  16.976  0.00  0.00    +0.000 A 
ATOM      7  C   UNL     1       2.795   4.966  17.807  0.00  0.00    +0.000 A 
ATOM      8  F   UNL     1       1.538   4.676  18.172  0.00  0.00    +0.000 F 
BRANCH   4   9
ATOM      9  N   UNL     1       6.776   5.842  16.613  0.00  0.00    +0.000 N 
ATOM     10  O   UNL     1       7.167   7.014  16.723  0.00  0.00    +0.000 OA
ATOM     11  O   UNL     1       7.458   4.913  16.163  0.00  0.00    +0.000 OA
ENDBRANCH   4   9
ENDBRANCH   1   2
BRANCH   1  13
ATOM     12  O   UNL     1       2.418   8.544  17.213  0.00  0.00    +0.000 OA
ATOM     13  C   UNL     1       2.108   8.332  18.384  0.00  0.00    +0.000 C 
ATOM     14  N   UNL     1       1.284   9.147  19.158  0.00  0.00    +0.000 N 
ATOM     15  H   UNL     1       1.234   9.010  20.163  0.00  0.00    +0.000 HD
BRANCH  14  16
ATOM     16  N   UNL     1       0.714  10.313  18.598  0.00  0.00    +0.000 NA
ATOM     17  C   UNL     1      -0.750  10.318  18.739  0.00  0.00    +0.000 C 
ATOM     18  C   UNL     1      -1.366  11.549  18.071  0.00  0.00    +0.000 C 
ATOM     19  C   UNL     1      -0.771  12.834  18.632  0.00  0.00    +0.000 C 
ATOM     20  C   UNL     1       0.751  12.797  18.550  0.00  0.00    +0.000 C 
ATOM     21  C   UNL     1       1.321  11.521  19.174  0.00  0.00    +0.000 C 
ENDBRANCH  14  16
ENDBRANCH   1  13
TORSDOF 4
ENDMDL
MODEL 9
REMARK VINA RESULT:      -7.0      3.332      4.570
REMARK  Name = 
REMARK  4 active torsions:
REMARK  status: ('A' for Active; 'I' for Inactive)
REMARK    1  A    between atoms: C_2  and  C_3
REMARK    2  A    between atoms: C_3  and  C_4
REMARK    3  A    between atoms: C_6  and  N_7
REMARK    4  A    between atoms: N_14  and  N_15
REMARK                            x       y       z     vdW  Elec       q    Type
REMARK                         _______ _______ _______ _____ _____    ______ ____
ROOT
ATOM      1  C   UNL     1       3.261   4.529  20.408  0.00  0.00    +0.000 C 
ENDROOT
BRANCH   1   2
ATOM      2  C   UNL     1       3.847   4.346  19.030  0.00  0.00    +0.000 A 
ATOM      3  C   UNL     1       5.132   4.818  18.714  0.00  0.00    +0.000 A 
ATOM      4  C   UNL     1       5.637   4.652  17.413  0.00  0.00    +0.000 A 
ATOM      5  C   UNL     1       4.876   4.011  16.425  0.00  0.00    +0.000 A 
ATOM      6  C   UNL     1       3.608   3.525  16.749  0.00  0.00    +0.000 A 
ATOM      7  C   UNL     1       3.110   3.689  18.039  0.00  0.00    +0.000 A 
ATOM      8  F   UNL     1       1.888   3.218  18.328  0.00  0.00    +0.000 F 
BRANCH   4   9
ATOM      9  N   UNL     1       6.972   5.170  17.074  0.00  0.00    +0.000 N 
ATOM     10  O   UNL     1       7.955   4.478  17.377  0.00  0.00    +0.000 OA
ATOM     11  O   UNL     1       7.035   6.274  16.515  0.00  0.00    +0.000 OA
ENDBRANCH   4   9
ENDBRANCH   1   2
BRANCH   1  13
ATOM     12  O   UNL     1       0.922   5.055  20.567  0.00  0.00    +0.000 OA
ATOM     13  C   UNL     1       2.071   5.473  20.434  0.00  0.00    +0.000 C 
ATOM     14  N   UNL     1       2.429   6.814  20.310  0.00  0.00    +0.000 N 
ATOM     15  H   UNL     1       3.368   7.064  20.011  0.00  0.00    +0.000 HD
BRANCH  14  16
ATOM     16  N   UNL     1       1.436   7.819  20.351  0.00  0.00    +0.000 NA
ATOM     17  C   UNL     1       1.401   8.489  21.660  0.00  0.00    +0.000 C 
ATOM     18  C   UNL     1       0.280   9.527  21.721  0.00  0.00    +0.000 C 
ATOM     19  C   UNL     1       0.417  10.551  20.601  0.00  0.00    +0.000 C 
ATOM     20  C   UNL     1       0.525   9.852  19.251  0.00  0.00    +0.000 C 
ATOM     21  C   UNL     1       1.615   8.780  19.253  0.00  0.00    +0.000 C 
ENDBRANCH  14  16
ENDBRANCH   1  13
TORSDOF 4
ENDMDL
