MODEL 1
REMARK VINA RESULT:      -7.2      0.000      0.000
REMARK  Name = 
REMARK  10 active torsions:
REMARK  status: ('A' for Active; 'I' for Inactive)
REMARK    1  A    between atoms: C_1  and  O_2
REMARK    2  A    between atoms: O_2  and  C_3
REMARK    3  A    between atoms: C_6  and  O_7
REMARK    4  A    between atoms: O_7  and  C_8
REMARK    5  A    between atoms: C_8  and  C_9
REMARK    6  A    between atoms: C_9  and  O_10
REMARK    7  A    between atoms: O_10  and  C_11
REMARK    8  A    between atoms: C_11  and  C_13
REMARK    9  A    between atoms: C_15  and  S_16
REMARK   10  A    between atoms: S_16  and  N_19
REMARK                            x       y       z     vdW  Elec       q    Type
REMARK                         _______ _______ _______ _____ _____    ______ ____
ROOT
ATOM      1  C   UNL     1       3.519   4.359  18.168  0.00  0.00    +0.000 A 
ATOM      2  C   UNL     1       4.152   5.123  17.192  0.00  0.00    +0.000 A 
ATOM      3  C   UNL     1       5.524   5.410  17.295  0.00  0.00    +0.000 A 
ATOM      4  C   UNL     1       6.216   4.944  18.432  0.00  0.00    +0.000 A 
ATOM      5 CL   UNL     1       7.526   5.869  19.108  0.00  0.00    +0.000 Cl
ATOM      6  C   UNL     1       5.666   3.942  19.202  0.00  0.00    +0.000 A 
ATOM      7  C   UNL     1       4.304   3.646  19.107  0.00  0.00    +0.000 A 
ATOM      8 CL   UNL     1       3.669   2.557  20.304  0.00  0.00    +0.000 Cl
ENDROOT
BRANCH   3   9
ATOM      9  S   UNL     1       6.424   6.117  15.957  0.00  0.00    +0.000 S 
ATOM     10  O   UNL     1       5.422   6.724  15.079  0.00  0.00    +0.000 OA
ATOM     11  O   UNL     1       7.477   6.933  16.516  0.00  0.00    +0.000 OA
BRANCH   9  12
ATOM     12  N   UNL     1       7.098   4.788  15.193  0.00  0.00    +0.000 NA
ATOM     13  C   UNL     1       8.145   5.046  14.162  0.00  0.00    +0.000 C 
ATOM     14  C   UNL     1       7.483   5.189  12.787  0.00  0.00    +0.000 C 
ATOM     15  O   UNL     1       6.773   3.995  12.441  0.00  0.00    +0.000 OA
ATOM     16  C   UNL     1       5.750   3.666  13.395  0.00  0.00    +0.000 C 
ATOM     17  C   UNL     1       6.253   3.619  14.826  0.00  0.00    +0.000 C 
ENDBRANCH   9  12
ENDBRANCH   3   9
BRANCH   1  18
ATOM     18  C   UNL     1       2.018   4.401  18.340  0.00  0.00    +0.000 C 
ATOM     19  O   UNL     1       1.199   3.693  17.790  0.00  0.00    +0.000 OA
BRANCH  18  20
ATOM     20  O   UNL     1       1.842   5.280  19.348  0.00  0.00    +0.000 OA
BRANCH  20  21
ATOM     21  C   UNL     1       2.182   6.658  19.017  0.00  0.00    +0.000 C 
BRANCH  21  22
ATOM     22  C   UNL     1       1.980   7.505  20.276  0.00  0.00    +0.000 C 
BRANCH  22  23
ATOM     23  O   UNL     1       1.471   8.777  19.891  0.00  0.00    +0.000 OA
BRANCH  23  27
ATOM     24  C   UNL     1      -0.661  11.079  22.637  0.00  0.00    +0.000 A 
ATOM     25  C   UNL     1      -0.126  11.620  21.468  0.00  0.00    +0.000 A 
ATOM     26  C   UNL     1       0.578  10.813  20.573  0.00  0.00    +0.000 A 
ATOM     27  C   UNL     1       0.784   9.465  20.854  0.00  0.00    +0.000 A 
ATOM     28  C   UNL     1       0.259   8.919  22.026  0.00  0.00    +0.000 A 
ATOM     29  C   UNL     1      -0.464   9.727  22.916  0.00  0.00    +0.000 A 
BRANCH  24  31
ATOM     30  C   UNL     1      -2.720  12.077  23.232  0.00  0.00    +0.000 C 
ATOM     31  O   UNL     1      -1.318  11.966  23.445  0.00  0.00    +0.000 OA
ENDBRANCH  24  31
ENDBRANCH  23  27
ENDBRANCH  22  23
ENDBRANCH  21  22
ENDBRANCH  20  21
ENDBRANCH  18  20
ENDBRANCH   1  18
TORSDOF 9
ENDMDL
MODEL 2
REMARK VINA RESULT:      -7.1      6.577     12.283
REMARK  Name = 
REMARK  10 active torsions:
REMARK  status: ('A' for Active; 'I' for Inactive)
REMARK    1  A    between atoms: C_1  and  O_2
REMARK    2  A    between atoms: O_2  and  C_3
REMARK    3  A    between atoms: C_6  and  O_7
REMARK    4  A    between atoms: O_7  and  C_8
REMARK    5  A    between atoms: C_8  and  C_9
REMARK    6  A    between atoms: C_9  and  O_10
REMARK    7  A    between atoms: O_10  and  C_11
REMARK    8  A    between atoms: C_11  and  C_13
REMARK    9  A    between atoms: C_15  and  S_16
REMARK   10  A    between atoms: S_16  and  N_19
REMARK                            x       y       z     vdW  Elec       q    Type
REMARK                         _______ _______ _______ _____ _____    ______ ____
ROOT
ATOM      1  C   UNL     1      -2.895  11.635  18.167  0.00  0.00    +0.000 A 
ATOM      2  C   UNL     1      -3.722  11.963  19.237  0.00  0.00    +0.000 A 
ATOM      3  C   UNL     1      -5.105  12.118  19.044  0.00  0.00    +0.000 A 
ATOM      4  C   UNL     1      -5.612  11.978  17.735  0.00  0.00    +0.000 A 
ATOM      5 CL   UNL     1      -6.974  12.926  17.211  0.00  0.00    +0.000 Cl
ATOM      6  C   UNL     1      -4.852  11.350  16.773  0.00  0.00    +0.000 A 
ATOM      7  C   UNL     1      -3.476  11.188  16.955  0.00  0.00    +0.000 A 
ATOM      8 CL   UNL     1      -2.579  10.627  15.576  0.00  0.00    +0.000 Cl
ENDROOT
BRANCH   3   9
ATOM      9  S   UNL     1      -6.220  12.245  20.401  0.00  0.00    +0.000 S 
ATOM     10  O   UNL     1      -7.329  11.341  20.092  0.00  0.00    +0.000 OA
ATOM     11  O   UNL     1      -5.459  12.060  21.616  0.00  0.00    +0.000 OA
BRANCH   9  12
ATOM     12  N   UNL     1      -6.757  13.830  20.319  0.00  0.00    +0.000 NA
ATOM     13  C   UNL     1      -5.738  14.888  20.061  0.00  0.00    +0.000 C 
ATOM     14  C   UNL     1      -5.190  15.404  21.395  0.00  0.00    +0.000 C 
ATOM     15  O   UNL     1      -6.242  15.955  22.195  0.00  0.00    +0.000 OA
ATOM     16  C   UNL     1      -7.277  15.000  22.480  0.00  0.00    +0.000 C 
ATOM     17  C   UNL     1      -7.821  14.315  21.239  0.00  0.00    +0.000 C 
ENDBRANCH   9  12
ENDBRANCH   3   9
BRANCH   1  18
ATOM     18  C   UNL     1      -1.407  11.893  18.223  0.00  0.00    +0.000 C 
ATOM     19  O   UNL     1      -0.839  12.949  18.028  0.00  0.00    +0.000 OA
BRANCH  18  20
ATOM     20  O   UNL     1      -0.905  10.731  18.691  0.00  0.00    +0.000 OA
BRANCH  20  21
ATOM     21  C   UNL     1       0.075  10.882  19.759  0.00  0.00    +0.000 C 
BRANCH  21  22
ATOM     22  C   UNL     1       0.756   9.527  19.965  0.00  0.00    +0.000 C 
BRANCH  22  23
ATOM     23  O   UNL     1       1.479   9.198  18.784  0.00  0.00    +0.000 OA
BRANCH  23  27
ATOM     24  C   UNL     1       3.783   5.724  18.688  0.00  0.00    +0.000 A 
ATOM     25  C   UNL     1       3.841   6.684  17.678  0.00  0.00    +0.000 A 
ATOM     26  C   UNL     1       3.056   7.836  17.752  0.00  0.00    +0.000 A 
ATOM     27  C   UNL     1       2.179   8.022  18.816  0.00  0.00    +0.000 A 
ATOM     28  C   UNL     1       2.109   7.061  19.825  0.00  0.00    +0.000 A 
ATOM     29  C   UNL     1       2.913   5.913  19.761  0.00  0.00    +0.000 A 
BRANCH  24  31
ATOM     30  C   UNL     1       4.076   3.625  17.639  0.00  0.00    +0.000 C 
ATOM     31  O   UNL     1       4.586   4.632  18.504  0.00  0.00    +0.000 OA
ENDBRANCH  24  31
ENDBRANCH  23  27
ENDBRANCH  22  23
ENDBRANCH  21  22
ENDBRANCH  20  21
ENDBRANCH  18  20
ENDBRANCH   1  18
TORSDOF 9
ENDMDL
MODEL 3
REMARK VINA RESULT:      -7.1      2.954      3.538
REMARK  Name = 
REMARK  10 active torsions:
REMARK  status: ('A' for Active; 'I' for Inactive)
REMARK    1  A    between atoms: C_1  and  O_2
REMARK    2  A    between atoms: O_2  and  C_3
REMARK    3  A    between atoms: C_6  and  O_7
REMARK    4  A    between atoms: O_7  and  C_8
REMARK    5  A    between atoms: C_8  and  C_9
REMARK    6  A    between atoms: C_9  and  O_10
REMARK    7  A    between atoms: O_10  and  C_11
REMARK    8  A    between atoms: C_11  and  C_13
REMARK    9  A    between atoms: C_15  and  S_16
REMARK   10  A    between atoms: S_16  and  N_19
REMARK                            x       y       z     vdW  Elec       q    Type
REMARK                         _______ _______ _______ _____ _____    ______ ____
ROOT
ATOM      1  C   UNL     1       2.861   6.596  19.128  0.00  0.00    +0.000 A 
ATOM      2  C   UNL     1       3.705   6.985  18.092  0.00  0.00    +0.000 A 
ATOM      3  C   UNL     1       4.869   6.249  17.809  0.00  0.00    +0.000 A 
ATOM      4  C   UNL     1       5.173   5.146  18.635  0.00  0.00    +0.000 A 
ATOM      5 CL   UNL     1       6.827   4.732  18.980  0.00  0.00    +0.000 Cl
ATOM      6  C   UNL     1       4.189   4.595  19.426  0.00  0.00    +0.000 A 
ATOM      7  C   UNL     1       3.026   5.316  19.711  0.00  0.00    +0.000 A 
ATOM      8 CL   UNL     1       1.981   4.639  20.924  0.00  0.00    +0.000 Cl
ENDROOT
BRANCH   3   9
ATOM      9  S   UNL     1       5.804   6.525  16.344  0.00  0.00    +0.000 S 
ATOM     10  O   UNL     1       4.863   7.073  15.366  0.00  0.00    +0.000 OA
ATOM     11  O   UNL     1       6.982   7.279  16.708  0.00  0.00    +0.000 OA
BRANCH   9  12
ATOM     12  N   UNL     1       6.258   4.983  15.873  0.00  0.00    +0.000 NA
ATOM     13  C   UNL     1       7.593   4.827  15.228  0.00  0.00    +0.000 C 
ATOM     14  C   UNL     1       7.448   4.979  13.710  0.00  0.00    +0.000 C 
ATOM     15  O   UNL     1       6.558   3.988  13.185  0.00  0.00    +0.000 OA
ATOM     16  C   UNL     1       5.246   4.061  13.767  0.00  0.00    +0.000 C 
ATOM     17  C   UNL     1       5.259   4.049  15.285  0.00  0.00    +0.000 C 
ENDBRANCH   9  12
ENDBRANCH   3   9
BRANCH   1  18
ATOM     18  C   UNL     1       1.881   7.568  19.743  0.00  0.00    +0.000 C 
ATOM     19  O   UNL     1       1.420   7.531  20.866  0.00  0.00    +0.000 OA
BRANCH  18  20
ATOM     20  O   UNL     1       1.784   8.543  18.816  0.00  0.00    +0.000 OA
BRANCH  20  21
ATOM     21  C   UNL     1       0.999   9.699  19.233  0.00  0.00    +0.000 C 
BRANCH  21  22
ATOM     22  C   UNL     1      -0.010  10.003  18.123  0.00  0.00    +0.000 C 
BRANCH  22  23
ATOM     23  O   UNL     1      -0.548  11.302  18.342  0.00  0.00    +0.000 OA
BRANCH  23  27
ATOM     24  C   UNL     1      -4.679  11.842  18.156  0.00  0.00    +0.000 A 
ATOM     25  C   UNL     1      -3.930  12.199  19.278  0.00  0.00    +0.000 A 
ATOM     26  C   UNL     1      -2.548  12.005  19.297  0.00  0.00    +0.000 A 
ATOM     27  C   UNL     1      -1.905  11.421  18.210  0.00  0.00    +0.000 A 
ATOM     28  C   UNL     1      -2.649  11.052  17.088  0.00  0.00    +0.000 A 
ATOM     29  C   UNL     1      -4.035  11.264  17.062  0.00  0.00    +0.000 A 
BRANCH  24  31
ATOM     30  C   UNL     1      -6.834  10.908  18.428  0.00  0.00    +0.000 C 
ATOM     31  O   UNL     1      -6.024  12.065  18.255  0.00  0.00    +0.000 OA
ENDBRANCH  24  31
ENDBRANCH  23  27
ENDBRANCH  22  23
ENDBRANCH  21  22
ENDBRANCH  20  21
ENDBRANCH  18  20
ENDBRANCH   1  18
TORSDOF 9
ENDMDL
MODEL 4
REMARK VINA RESULT:      -7.1      6.256     12.052
REMARK  Name = 
REMARK  10 active torsions:
REMARK  status: ('A' for Active; 'I' for Inactive)
REMARK    1  A    between atoms: C_1  and  O_2
REMARK    2  A    between atoms: O_2  and  C_3
REMARK    3  A    between atoms: C_6  and  O_7
REMARK    4  A    between atoms: O_7  and  C_8
REMARK    5  A    between atoms: C_8  and  C_9
REMARK    6  A    between atoms: C_9  and  O_10
REMARK    7  A    between atoms: O_10  and  C_11
REMARK    8  A    between atoms: C_11  and  C_13
REMARK    9  A    between atoms: C_15  and  S_16
REMARK   10  A    between atoms: S_16  and  N_19
REMARK                            x       y       z     vdW  Elec       q    Type
REMARK                         _______ _______ _______ _____ _____    ______ ____
ROOT
ATOM      1  C   UNL     1      -2.748  11.663  18.305  0.00  0.00    +0.000 A 
ATOM      2  C   UNL     1      -3.544  12.181  19.322  0.00  0.00    +0.000 A 
ATOM      3  C   UNL     1      -4.935  12.288  19.151  0.00  0.00    +0.000 A 
ATOM      4  C   UNL     1      -5.482  11.902  17.910  0.00  0.00    +0.000 A 
ATOM      5 CL   UNL     1      -6.872  12.726  17.264  0.00  0.00    +0.000 Cl
ATOM      6  C   UNL     1      -4.746  11.109  17.057  0.00  0.00    +0.000 A 
ATOM      7  C   UNL     1      -3.362  10.993  17.219  0.00  0.00    +0.000 A 
ATOM      8 CL   UNL     1      -2.504  10.189  15.940  0.00  0.00    +0.000 Cl
ENDROOT
BRANCH   3   9
ATOM      9  S   UNL     1      -6.006  12.661  20.497  0.00  0.00    +0.000 S 
ATOM     10  O   UNL     1      -6.909  13.706  20.011  0.00  0.00    +0.000 OA
ATOM     11  O   UNL     1      -6.549  11.414  20.988  0.00  0.00    +0.000 OA
BRANCH   9  12
ATOM     12  N   UNL     1      -4.978  13.309  21.650  0.00  0.00    +0.000 NA
ATOM     13  C   UNL     1      -5.071  12.767  23.036  0.00  0.00    +0.000 C 
ATOM     14  C   UNL     1      -6.085  13.589  23.838  0.00  0.00    +0.000 C 
ATOM     15  O   UNL     1      -5.686  14.963  23.900  0.00  0.00    +0.000 OA
ATOM     16  C   UNL     1      -5.559  15.560  22.600  0.00  0.00    +0.000 C 
ATOM     17  C   UNL     1      -4.674  14.766  21.656  0.00  0.00    +0.000 C 
ENDBRANCH   9  12
ENDBRANCH   3   9
BRANCH   1  18
ATOM     18  C   UNL     1      -1.263  11.936  18.260  0.00  0.00    +0.000 C 
ATOM     19  O   UNL     1      -0.720  12.997  18.024  0.00  0.00    +0.000 OA
BRANCH  18  20
ATOM     20  O   UNL     1      -0.718  10.782  18.700  0.00  0.00    +0.000 OA
BRANCH  20  21
ATOM     21  C   UNL     1       0.703  10.864  19.011  0.00  0.00    +0.000 C 
BRANCH  21  22
ATOM     22  C   UNL     1       1.113   9.545  19.672  0.00  0.00    +0.000 C 
BRANCH  22  23
ATOM     23  O   UNL     1       2.030   8.873  18.816  0.00  0.00    +0.000 OA
BRANCH  23  27
ATOM     24  C   UNL     1       2.380   4.824  19.745  0.00  0.00    +0.000 A 
ATOM     25  C   UNL     1       1.864   5.754  20.648  0.00  0.00    +0.000 A 
ATOM     26  C   UNL     1       1.760   7.100  20.295  0.00  0.00    +0.000 A 
ATOM     27  C   UNL     1       2.203   7.536  19.050  0.00  0.00    +0.000 A 
ATOM     28  C   UNL     1       2.729   6.613  18.145  0.00  0.00    +0.000 A 
ATOM     29  C   UNL     1       2.815   5.257  18.493  0.00  0.00    +0.000 A 
BRANCH  24  31
ATOM     30  C   UNL     1       2.082   3.344  21.565  0.00  0.00    +0.000 C 
ATOM     31  O   UNL     1       2.446   3.537  20.204  0.00  0.00    +0.000 OA
ENDBRANCH  24  31
ENDBRANCH  23  27
ENDBRANCH  22  23
ENDBRANCH  21  22
ENDBRANCH  20  21
ENDBRANCH  18  20
ENDBRANCH   1  18
TORSDOF 9
ENDMDL
MODEL 5
REMARK VINA RESULT:      -7.1      5.223      7.605
REMARK  Name = 
REMARK  10 active torsions:
REMARK  status: ('A' for Active; 'I' for Inactive)
REMARK    1  A    between atoms: C_1  and  O_2
REMARK    2  A    between atoms: O_2  and  C_3
REMARK    3  A    between atoms: C_6  and  O_7
REMARK    4  A    between atoms: O_7  and  C_8
REMARK    5  A    between atoms: C_8  and  C_9
REMARK    6  A    between atoms: C_9  and  O_10
REMARK    7  A    between atoms: O_10  and  C_11
REMARK    8  A    between atoms: C_11  and  C_13
REMARK    9  A    between atoms: C_15  and  S_16
REMARK   10  A    between atoms: S_16  and  N_19
REMARK                            x       y       z     vdW  Elec       q    Type
REMARK                         _______ _______ _______ _____ _____    ______ ____
ROOT
ATOM      1  C   UNL     1       5.593   5.373  17.996  0.00  0.00    +0.000 A 
ATOM      2  C   UNL     1       5.429   4.260  18.815  0.00  0.00    +0.000 A 
ATOM      3  C   UNL     1       4.270   4.118  19.597  0.00  0.00    +0.000 A 
ATOM      4  C   UNL     1       3.313   5.154  19.558  0.00  0.00    +0.000 A 
ATOM      5 CL   UNL     1       2.379   5.547  20.973  0.00  0.00    +0.000 Cl
ATOM      6  C   UNL     1       3.335   6.065  18.524  0.00  0.00    +0.000 A 
ATOM      7  C   UNL     1       4.482   6.213  17.739  0.00  0.00    +0.000 A 
ATOM      8 CL   UNL     1       4.495   7.564  16.645  0.00  0.00    +0.000 Cl
ENDROOT
BRANCH   3   9
ATOM      9  S   UNL     1       3.886   2.609  20.418  0.00  0.00    +0.000 S 
ATOM     10  O   UNL     1       5.130   1.837  20.436  0.00  0.00    +0.000 OA
ATOM     11  O   UNL     1       3.228   2.939  21.662  0.00  0.00    +0.000 OA
BRANCH   9  12
ATOM     12  N   UNL     1       2.790   1.870  19.390  0.00  0.00    +0.000 NA
ATOM     13  C   UNL     1       3.156   1.779  17.947  0.00  0.00    +0.000 C 
ATOM     14  C   UNL     1       2.636   3.017  17.209  0.00  0.00    +0.000 C 
ATOM     15  O   UNL     1       1.212   3.113  17.324  0.00  0.00    +0.000 OA
ATOM     16  C   UNL     1       0.772   3.192  18.689  0.00  0.00    +0.000 C 
ATOM     17  C   UNL     1       1.328   2.084  19.566  0.00  0.00    +0.000 C 
ENDBRANCH   9  12
ENDBRANCH   3   9
BRANCH   1  18
ATOM     18  C   UNL     1       6.961   5.785  17.504  0.00  0.00    +0.000 C 
ATOM     19  O   UNL     1       7.557   5.342  16.542  0.00  0.00    +0.000 OA
BRANCH  18  20
ATOM     20  O   UNL     1       7.266   6.847  18.277  0.00  0.00    +0.000 OA
BRANCH  20  21
ATOM     21  C   UNL     1       7.800   7.992  17.551  0.00  0.00    +0.000 C 
BRANCH  21  22
ATOM     22  C   UNL     1       8.493   8.907  18.564  0.00  0.00    +0.000 C 
BRANCH  22  23
ATOM     23  O   UNL     1       8.997  10.046  17.877  0.00  0.00    +0.000 OA
BRANCH  23  27
ATOM     24  C   UNL     1       9.973  13.235  20.381  0.00  0.00    +0.000 A 
ATOM     25  C   UNL     1      10.215  11.907  20.735  0.00  0.00    +0.000 A 
ATOM     26  C   UNL     1       9.877  10.870  19.866  0.00  0.00    +0.000 A 
ATOM     27  C   UNL     1       9.261  11.145  18.648  0.00  0.00    +0.000 A 
ATOM     28  C   UNL     1       9.007  12.470  18.291  0.00  0.00    +0.000 A 
ATOM     29  C   UNL     1       9.365  13.513  19.157  0.00  0.00    +0.000 A 
BRANCH  24  31
ATOM     30  C   UNL     1      10.994  15.322  20.818  0.00  0.00    +0.000 C 
ATOM     31  O   UNL     1      10.333  14.165  21.316  0.00  0.00    +0.000 OA
ENDBRANCH  24  31
ENDBRANCH  23  27
ENDBRANCH  22  23
ENDBRANCH  21  22
ENDBRANCH  20  21
ENDBRANCH  18  20
ENDBRANCH   1  18
TORSDOF 9
ENDMDL
MODEL 6
REMARK VINA RESULT:      -7.1      5.754     11.731
REMARK  Name = 
REMARK  10 active torsions:
REMARK  status: ('A' for Active; 'I' for Inactive)
REMARK    1  A    between atoms: C_1  and  O_2
REMARK    2  A    between atoms: O_2  and  C_3
REMARK    3  A    between atoms: C_6  and  O_7
REMARK    4  A    between atoms: O_7  and  C_8
REMARK    5  A    between atoms: C_8  and  C_9
REMARK    6  A    between atoms: C_9  and  O_10
REMARK    7  A    between atoms: O_10  and  C_11
REMARK    8  A    between atoms: C_11  and  C_13
REMARK    9  A    between atoms: C_15  and  S_16
REMARK   10  A    between atoms: S_16  and  N_19
REMARK                            x       y       z     vdW  Elec       q    Type
REMARK                         _______ _______ _______ _____ _____    ______ ____
ROOT
ATOM      1  C   UNL     1      -2.003  11.506  18.749  0.00  0.00    +0.000 A 
ATOM      2  C   UNL     1      -2.529  12.209  19.829  0.00  0.00    +0.000 A 
ATOM      3  C   UNL     1      -3.903  12.497  19.886  0.00  0.00    +0.000 A 
ATOM      4  C   UNL     1      -4.712  12.096  18.802  0.00  0.00    +0.000 A 
ATOM      5 CL   UNL     1      -6.082  13.055  18.321  0.00  0.00    +0.000 Cl
ATOM      6  C   UNL     1      -4.248  11.143  17.922  0.00  0.00    +0.000 A 
ATOM      7  C   UNL     1      -2.884  10.846  17.857  0.00  0.00    +0.000 A 
ATOM      8 CL   UNL     1      -2.380   9.831  16.540  0.00  0.00    +0.000 Cl
ENDROOT
BRANCH   3   9
ATOM      9  S   UNL     1      -4.657  13.122  21.350  0.00  0.00    +0.000 S 
ATOM     10  O   UNL     1      -5.094  14.481  21.025  0.00  0.00    +0.000 OA
ATOM     11  O   UNL     1      -5.622  12.145  21.800  0.00  0.00    +0.000 OA
BRANCH   9  12
ATOM     12  N   UNL     1      -3.390  13.194  22.443  0.00  0.00    +0.000 NA
ATOM     13  C   UNL     1      -3.414  12.237  23.586  0.00  0.00    +0.000 C 
ATOM     14  C   UNL     1      -4.146  12.876  24.771  0.00  0.00    +0.000 C 
ATOM     15  O   UNL     1      -3.487  14.079  25.184  0.00  0.00    +0.000 OA
ATOM     16  C   UNL     1      -3.408  15.054  24.131  0.00  0.00    +0.000 C 
ATOM     17  C   UNL     1      -2.814  14.506  22.846  0.00  0.00    +0.000 C 
ENDBRANCH   9  12
ENDBRANCH   3   9
BRANCH   1  18
ATOM     18  C   UNL     1      -0.528  11.562  18.425  0.00  0.00    +0.000 C 
ATOM     19  O   UNL     1       0.159  12.558  18.313  0.00  0.00    +0.000 OA
BRANCH  18  20
ATOM     20  O   UNL     1      -0.150  10.268  18.457  0.00  0.00    +0.000 OA
BRANCH  20  21
ATOM     21  C   UNL     1       1.290  10.056  18.392  0.00  0.00    +0.000 C 
BRANCH  21  22
ATOM     22  C   UNL     1       1.619   8.817  19.228  0.00  0.00    +0.000 C 
BRANCH  22  23
ATOM     23  O   UNL     1       2.524   8.000  18.494  0.00  0.00    +0.000 OA
BRANCH  23  27
ATOM     24  C   UNL     1       2.917   3.958  19.444  0.00  0.00    +0.000 A 
ATOM     25  C   UNL     1       3.376   4.488  18.238  0.00  0.00    +0.000 A 
ATOM     26  C   UNL     1       3.228   5.848  17.961  0.00  0.00    +0.000 A 
ATOM     27  C   UNL     1       2.589   6.686  18.871  0.00  0.00    +0.000 A 
ATOM     28  C   UNL     1       2.119   6.161  20.076  0.00  0.00    +0.000 A 
ATOM     29  C   UNL     1       2.285   4.798  20.361  0.00  0.00    +0.000 A 
BRANCH  24  31
ATOM     30  C   UNL     1       3.226   1.860  18.401  0.00  0.00    +0.000 C 
ATOM     31  O   UNL     1       3.103   2.613  19.601  0.00  0.00    +0.000 OA
ENDBRANCH  24  31
ENDBRANCH  23  27
ENDBRANCH  22  23
ENDBRANCH  21  22
ENDBRANCH  20  21
ENDBRANCH  18  20
ENDBRANCH   1  18
TORSDOF 9
ENDMDL
MODEL 7
REMARK VINA RESULT:      -7.0      5.168     10.333
REMARK  Name = 
REMARK  10 active torsions:
REMARK  status: ('A' for Active; 'I' for Inactive)
REMARK    1  A    between atoms: C_1  and  O_2
REMARK    2  A    between atoms: O_2  and  C_3
REMARK    3  A    between atoms: C_6  and  O_7
REMARK    4  A    between atoms: O_7  and  C_8
REMARK    5  A    between atoms: C_8  and  C_9
REMARK    6  A    between atoms: C_9  and  O_10
REMARK    7  A    between atoms: O_10  and  C_11
REMARK    8  A    between atoms: C_11  and  C_13
REMARK    9  A    between atoms: C_15  and  S_16
REMARK   10  A    between atoms: S_16  and  N_19
REMARK                            x       y       z     vdW  Elec       q    Type
REMARK                         _______ _______ _______ _____ _____    ______ ____
ROOT
ATOM      1  C   UNL     1      -0.141  11.057  20.564  0.00  0.00    +0.000 A 
ATOM      2  C   UNL     1       0.057  12.429  20.439  0.00  0.00    +0.000 A 
ATOM      3  C   UNL     1      -0.322  13.299  21.476  0.00  0.00    +0.000 A 
ATOM      4  C   UNL     1      -0.946  12.743  22.612  0.00  0.00    +0.000 A 
ATOM      5 CL   UNL     1      -2.166  13.636  23.474  0.00  0.00    +0.000 Cl
ATOM      6  C   UNL     1      -0.841  11.391  22.856  0.00  0.00    +0.000 A 
ATOM      7  C   UNL     1      -0.462  10.517  21.833  0.00  0.00    +0.000 A 
ATOM      8 CL   UNL     1      -0.618   8.821  22.176  0.00  0.00    +0.000 Cl
ENDROOT
BRANCH   3   9
ATOM      9  S   UNL     1       0.165  14.990  21.489  0.00  0.00    +0.000 S 
ATOM     10  O   UNL     1      -1.047  15.757  21.192  0.00  0.00    +0.000 OA
ATOM     11  O   UNL     1       0.885  15.232  22.718  0.00  0.00    +0.000 OA
BRANCH   9  12
ATOM     12  N   UNL     1       1.223  15.104  20.195  0.00  0.00    +0.000 NA
ATOM     13  C   UNL     1       2.648  15.419  20.499  0.00  0.00    +0.000 C 
ATOM     14  C   UNL     1       2.850  16.938  20.478  0.00  0.00    +0.000 C 
ATOM     15  O   UNL     1       2.518  17.474  19.192  0.00  0.00    +0.000 OA
ATOM     16  C   UNL     1       1.159  17.201  18.815  0.00  0.00    +0.000 C 
ATOM     17  C   UNL     1       0.789  15.732  18.918  0.00  0.00    +0.000 C 
ENDBRANCH   9  12
ENDBRANCH   3   9
BRANCH   1  18
ATOM     18  C   UNL     1      -0.171  10.159  19.349  0.00  0.00    +0.000 C 
ATOM     19  O   UNL     1      -1.081  10.033  18.554  0.00  0.00    +0.000 OA
BRANCH  18  20
ATOM     20  O   UNL     1       1.087   9.678  19.283  0.00  0.00    +0.000 OA
BRANCH  20  21
ATOM     21  C   UNL     1       1.743   9.871  17.996  0.00  0.00    +0.000 C 
BRANCH  21  22
ATOM     22  C   UNL     1       2.661   8.671  17.754  0.00  0.00    +0.000 C 
BRANCH  22  23
ATOM     23  O   UNL     1       2.163   7.561  18.493  0.00  0.00    +0.000 OA
BRANCH  23  27
ATOM     24  C   UNL     1       3.672   3.748  17.741  0.00  0.00    +0.000 A 
ATOM     25  C   UNL     1       2.552   3.960  18.544  0.00  0.00    +0.000 A 
ATOM     26  C   UNL     1       2.077   5.254  18.767  0.00  0.00    +0.000 A 
ATOM     27  C   UNL     1       2.736   6.349  18.219  0.00  0.00    +0.000 A 
ATOM     28  C   UNL     1       3.863   6.145  17.421  0.00  0.00    +0.000 A 
ATOM     29  C   UNL     1       4.329   4.844  17.182  0.00  0.00    +0.000 A 
BRANCH  24  31
ATOM     30  C   UNL     1       3.408   1.513  18.464  0.00  0.00    +0.000 C 
ATOM     31  O   UNL     1       4.055   2.442  17.604  0.00  0.00    +0.000 OA
ENDBRANCH  24  31
ENDBRANCH  23  27
ENDBRANCH  22  23
ENDBRANCH  21  22
ENDBRANCH  20  21
ENDBRANCH  18  20
ENDBRANCH   1  18
TORSDOF 9
ENDMDL
MODEL 8
REMARK VINA RESULT:      -7.0      5.014      7.690
REMARK  Name = 
REMARK  10 active torsions:
REMARK  status: ('A' for Active; 'I' for Inactive)
REMARK    1  A    between atoms: C_1  and  O_2
REMARK    2  A    between atoms: O_2  and  C_3
REMARK    3  A    between atoms: C_6  and  O_7
REMARK    4  A    between atoms: O_7  and  C_8
REMARK    5  A    between atoms: C_8  and  C_9
REMARK    6  A    between atoms: C_9  and  O_10
REMARK    7  A    between atoms: O_10  and  C_11
REMARK    8  A    between atoms: C_11  and  C_13
REMARK    9  A    between atoms: C_15  and  S_16
REMARK   10  A    between atoms: S_16  and  N_19
REMARK                            x       y       z     vdW  Elec       q    Type
REMARK                         _______ _______ _______ _____ _____    ______ ____
ROOT
ATOM      1  C   UNL     1       6.164   5.278  17.886  0.00  0.00    +0.000 A 
ATOM      2  C   UNL     1       5.258   5.263  18.942  0.00  0.00    +0.000 A 
ATOM      3  C   UNL     1       3.972   5.806  18.782  0.00  0.00    +0.000 A 
ATOM      4  C   UNL     1       3.654   6.404  17.544  0.00  0.00    +0.000 A 
ATOM      5 CL   UNL     1       2.584   7.775  17.475  0.00  0.00    +0.000 Cl
ATOM      6  C   UNL     1       4.425   6.128  16.436  0.00  0.00    +0.000 A 
ATOM      7  C   UNL     1       5.704   5.585  16.583  0.00  0.00    +0.000 A 
ATOM      8 CL   UNL     1       6.683   5.525  15.148  0.00  0.00    +0.000 Cl
ENDROOT
BRANCH   3   9
ATOM      9  S   UNL     1       2.705   5.555  19.978  0.00  0.00    +0.000 S 
ATOM     10  O   UNL     1       3.331   4.808  21.071  0.00  0.00    +0.000 OA
ATOM     11  O   UNL     1       2.088   6.835  20.243  0.00  0.00    +0.000 OA
BRANCH   9  12
ATOM     12  N   UNL     1       1.610   4.565  19.187  0.00  0.00    +0.000 NA
ATOM     13  C   UNL     1       0.738   3.696  20.028  0.00  0.00    +0.000 C 
ATOM     14  C   UNL     1       1.424   2.343  20.246  0.00  0.00    +0.000 C 
ATOM     15  O   UNL     1       1.665   1.690  18.995  0.00  0.00    +0.000 OA
ATOM     16  C   UNL     1       2.490   2.471  18.115  0.00  0.00    +0.000 C 
ATOM     17  C   UNL     1       1.985   3.889  17.916  0.00  0.00    +0.000 C 
ENDBRANCH   9  12
ENDBRANCH   3   9
BRANCH   1  18
ATOM     18  C   UNL     1       7.648   5.127  18.130  0.00  0.00    +0.000 C 
ATOM     19  O   UNL     1       8.345   4.177  17.835  0.00  0.00    +0.000 OA
BRANCH  18  20
ATOM     20  O   UNL     1       8.016   6.341  18.589  0.00  0.00    +0.000 OA
BRANCH  20  21
ATOM     21  C   UNL     1       8.051   7.387  17.575  0.00  0.00    +0.000 C 
BRANCH  21  22
ATOM     22  C   UNL     1       7.858   8.731  18.282  0.00  0.00    +0.000 C 
BRANCH  22  23
ATOM     23  O   UNL     1       9.094   9.115  18.873  0.00  0.00    +0.000 OA
BRANCH  23  27
ATOM     24  C   UNL     1       9.777  13.178  19.516  0.00  0.00    +0.000 A 
ATOM     25  C   UNL     1       9.403  12.313  20.545  0.00  0.00    +0.000 A 
ATOM     26  C   UNL     1       9.188  10.959  20.287  0.00  0.00    +0.000 A 
ATOM     27  C   UNL     1       9.310  10.461  18.994  0.00  0.00    +0.000 A 
ATOM     28  C   UNL     1       9.675  11.322  17.958  0.00  0.00    +0.000 A 
ATOM     29  C   UNL     1       9.909  12.679  18.221  0.00  0.00    +0.000 A 
BRANCH  24  31
ATOM     30  C   UNL     1      10.723  14.705  21.053  0.00  0.00    +0.000 C 
ATOM     31  O   UNL     1       9.947  14.485  19.883  0.00  0.00    +0.000 OA
ENDBRANCH  24  31
ENDBRANCH  23  27
ENDBRANCH  22  23
ENDBRANCH  21  22
ENDBRANCH  20  21
ENDBRANCH  18  20
ENDBRANCH   1  18
TORSDOF 9
ENDMDL
MODEL 9
REMARK VINA RESULT:      -6.9      6.242     12.393
REMARK  Name = 
REMARK  10 active torsions:
REMARK  status: ('A' for Active; 'I' for Inactive)
REMARK    1  A    between atoms: C_1  and  O_2
REMARK    2  A    between atoms: O_2  and  C_3
REMARK    3  A    between atoms: C_6  and  O_7
REMARK    4  A    between atoms: O_7  and  C_8
REMARK    5  A    between atoms: C_8  and  C_9
REMARK    6  A    between atoms: C_9  and  O_10
REMARK    7  A    between atoms: O_10  and  C_11
REMARK    8  A    between atoms: C_11  and  C_13
REMARK    9  A    between atoms: C_15  and  S_16
REMARK   10  A    between atoms: S_16  and  N_19
REMARK                            x       y       z     vdW  Elec       q    Type
REMARK                         _______ _______ _______ _____ _____    ______ ____
ROOT
ATOM      1  C   UNL     1      -2.367  12.028  18.923  0.00  0.00    +0.000 A 
ATOM      2  C   UNL     1      -3.026  12.392  20.093  0.00  0.00    +0.000 A 
ATOM      3  C   UNL     1      -4.430  12.452  20.129  0.00  0.00    +0.000 A 
ATOM      4  C   UNL     1      -5.136  12.180  18.938  0.00  0.00    +0.000 A 
ATOM      5 CL   UNL     1      -6.629  13.003  18.590  0.00  0.00    +0.000 Cl
ATOM      6  C   UNL     1      -4.504  11.521  17.906  0.00  0.00    +0.000 A 
ATOM      7  C   UNL     1      -3.108  11.453  17.861  0.00  0.00    +0.000 A 
ATOM      8 CL   UNL     1      -2.416  10.837  16.391  0.00  0.00    +0.000 Cl
ENDROOT
BRANCH   3   9
ATOM      9  S   UNL     1      -5.310  12.622  21.644  0.00  0.00    +0.000 S 
ATOM     10  O   UNL     1      -6.507  11.790  21.506  0.00  0.00    +0.000 OA
ATOM     11  O   UNL     1      -4.383  12.373  22.724  0.00  0.00    +0.000 OA
BRANCH   9  12
ATOM     12  N   UNL     1      -5.757  14.236  21.658  0.00  0.00    +0.000 NA
ATOM     13  C   UNL     1      -4.743  15.225  22.124  0.00  0.00    +0.000 C 
ATOM     14  C   UNL     1      -4.886  15.429  23.636  0.00  0.00    +0.000 C 
ATOM     15  O   UNL     1      -6.194  15.915  23.959  0.00  0.00    +0.000 OA
ATOM     16  C   UNL     1      -7.235  15.023  23.530  0.00  0.00    +0.000 C 
ATOM     17  C   UNL     1      -7.131  14.636  22.066  0.00  0.00    +0.000 C 
ENDBRANCH   9  12
ENDBRANCH   3   9
BRANCH   1  18
ATOM     18  C   UNL     1      -0.913  12.374  18.706  0.00  0.00    +0.000 C 
ATOM     19  O   UNL     1      -0.456  13.124  17.867  0.00  0.00    +0.000 OA
BRANCH  18  20
ATOM     20  O   UNL     1      -0.292  11.790  19.752  0.00  0.00    +0.000 OA
BRANCH  20  21
ATOM     21  C   UNL     1       1.062  11.330  19.473  0.00  0.00    +0.000 C 
BRANCH  21  22
ATOM     22  C   UNL     1       0.959  10.068  18.612  0.00  0.00    +0.000 C 
BRANCH  22  23
ATOM     23  O   UNL     1       1.177   8.933  19.442  0.00  0.00    +0.000 OA
BRANCH  23  27
ATOM     24  C   UNL     1       3.921   6.016  18.280  0.00  0.00    +0.000 A 
ATOM     25  C   UNL     1       3.193   5.924  19.466  0.00  0.00    +0.000 A 
ATOM     26  C   UNL     1       2.281   6.921  19.816  0.00  0.00    +0.000 A 
ATOM     27  C   UNL     1       2.112   8.036  19.001  0.00  0.00    +0.000 A 
ATOM     28  C   UNL     1       2.843   8.140  17.817  0.00  0.00    +0.000 A 
ATOM     29  C   UNL     1       3.746   7.128  17.457  0.00  0.00    +0.000 A 
BRANCH  24  31
ATOM     30  C   UNL     1       4.475   4.140  16.951  0.00  0.00    +0.000 C 
ATOM     31  O   UNL     1       4.793   4.989  18.047  0.00  0.00    +0.000 OA
ENDBRANCH  24  31
ENDBRANCH  23  27
ENDBRANCH  22  23
ENDBRANCH  21  22
ENDBRANCH  20  21
ENDBRANCH  18  20
ENDBRANCH   1  18
TORSDOF 9
ENDMDL
