MODEL 1
REMARK VINA RESULT:      -6.4      0.000      0.000
REMARK  Name = 
REMARK  13 active torsions:
REMARK  status: ('A' for Active; 'I' for Inactive)
REMARK    1  A    between atoms: C_1  and  O_2
REMARK    2  A    between atoms: O_2  and  C_3
REMARK    3  A    between atoms: C_5  and  N_6
REMARK    4  A    between atoms: C_11  and  C_12
REMARK    5  A    between atoms: N_14  and  C_15
REMARK    6  A    between atoms: C_15  and  C_16
REMARK    7  A    between atoms: C_16  and  C_17
REMARK    8  A    between atoms: C_17  and  C_18
REMARK    9  A    between atoms: C_18  and  C_19
REMARK   10  A    between atoms: C_19  and  C_20
REMARK   11  A    between atoms: C_20  and  C_21
REMARK   12  A    between atoms: C_21  and  C_22
REMARK   13  A    between atoms: C_22  and  O_24
REMARK                            x       y       z     vdW  Elec       q    Type
REMARK                         _______ _______ _______ _____ _____    ______ ____
ROOT
ATOM      1  C   UNL     1       5.400   4.795  18.213  0.00  0.00    +0.000 C 
ATOM      2  O   UNL     1       5.977   4.095  19.043  0.00  0.00    +0.000 OA
ATOM      3  N   UNL     1       4.250   5.484  18.517  0.00  0.00    +0.000 N 
ATOM      4  H   UNL     1       3.849   6.087  17.806  0.00  0.00    +0.000 HD
ENDROOT
BRANCH   1  10
ATOM      5  C   UNL     1       6.606   6.050  16.287  0.00  0.00    +0.000 A 
ATOM      6  C   UNL     1       7.062   6.015  14.957  0.00  0.00    +0.000 A 
ATOM      7  C   UNL     1       6.906   4.860  14.177  0.00  0.00    +0.000 A 
ATOM      8  C   UNL     1       6.294   3.727  14.706  0.00  0.00    +0.000 A 
ATOM      9  C   UNL     1       5.823   3.763  16.019  0.00  0.00    +0.000 A 
ATOM     10  C   UNL     1       5.961   4.915  16.824  0.00  0.00    +0.000 A 
BRANCH   7  11
ATOM     11  N   UNL     1       7.392   4.852  12.791  0.00  0.00    +0.000 N 
ATOM     12  O   UNL     1       7.035   3.913  12.064  0.00  0.00    +0.000 OA
ATOM     13  O   UNL     1       8.124   5.782  12.429  0.00  0.00    +0.000 OA
ENDBRANCH   7  11
BRANCH   5  15
ATOM     14  C   UNL     1       7.872   7.184  17.962  0.00  0.00    +0.000 C 
ATOM     15  O   UNL     1       6.749   7.169  17.076  0.00  0.00    +0.000 OA
ENDBRANCH   5  15
ENDBRANCH   1  10
BRANCH   3  16
ATOM     16  C   UNL     1       3.686   5.489  19.852  0.00  0.00    +0.000 C 
BRANCH  16  17
ATOM     17  C   UNL     1       2.309   6.156  19.906  0.00  0.00    +0.000 C 
BRANCH  17  18
ATOM     18  C   UNL     1       1.277   5.268  20.604  0.00  0.00    +0.000 C 
BRANCH  18  19
ATOM     19  C   UNL     1       1.918   4.082  21.323  0.00  0.00    +0.000 C 
BRANCH  19  20
ATOM     20  C   UNL     1       1.156   2.792  21.003  0.00  0.00    +0.000 C 
BRANCH  20  21
ATOM     21  C   UNL     1       0.785   2.703  19.525  0.00  0.00    +0.000 C 
BRANCH  21  22
ATOM     22  C   UNL     1       1.636   1.657  18.804  0.00  0.00    +0.000 C 
BRANCH  22  23
ATOM     23  C   UNL     1       2.615   2.290  17.844  0.00  0.00    +0.000 C 
ATOM     24  O   UNL     1       2.390   3.259  17.140  0.00  0.00    +0.000 OA
BRANCH  23  25
ATOM     25  O   UNL     1       3.813   1.655  17.840  0.00  0.00    +0.000 OA
ATOM     26  H   UNL     1       4.449   2.011  18.488  0.00  0.00    +0.000 HD
ENDBRANCH  23  25
ENDBRANCH  22  23
ENDBRANCH  21  22
ENDBRANCH  20  21
ENDBRANCH  19  20
ENDBRANCH  18  19
ENDBRANCH  17  18
ENDBRANCH  16  17
ENDBRANCH   3  16
TORSDOF 12
ENDMDL
MODEL 2
REMARK VINA RESULT:      -6.3      1.296      1.623
REMARK  Name = 
REMARK  13 active torsions:
REMARK  status: ('A' for Active; 'I' for Inactive)
REMARK    1  A    between atoms: C_1  and  O_2
REMARK    2  A    between atoms: O_2  and  C_3
REMARK    3  A    between atoms: C_5  and  N_6
REMARK    4  A    between atoms: C_11  and  C_12
REMARK    5  A    between atoms: N_14  and  C_15
REMARK    6  A    between atoms: C_15  and  C_16
REMARK    7  A    between atoms: C_16  and  C_17
REMARK    8  A    between atoms: C_17  and  C_18
REMARK    9  A    between atoms: C_18  and  C_19
REMARK   10  A    between atoms: C_19  and  C_20
REMARK   11  A    between atoms: C_20  and  C_21
REMARK   12  A    between atoms: C_21  and  C_22
REMARK   13  A    between atoms: C_22  and  O_24
REMARK                            x       y       z     vdW  Elec       q    Type
REMARK                         _______ _______ _______ _____ _____    ______ ____
ROOT
ATOM      1  C   UNL     1       5.006   5.324  18.470  0.00  0.00    +0.000 C 
ATOM      2  O   UNL     1       5.786   5.161  19.407  0.00  0.00    +0.000 OA
ATOM      3  N   UNL     1       3.699   5.698  18.669  0.00  0.00    +0.000 N 
ATOM      4  H   UNL     1       3.118   5.869  17.854  0.00  0.00    +0.000 HD
ENDROOT
BRANCH   1  10
ATOM      5  C   UNL     1       6.131   6.083  16.256  0.00  0.00    +0.000 A 
ATOM      6  C   UNL     1       6.505   5.742  14.944  0.00  0.00    +0.000 A 
ATOM      7  C   UNL     1       6.268   4.454  14.444  0.00  0.00    +0.000 A 
ATOM      8  C   UNL     1       5.656   3.488  15.237  0.00  0.00    +0.000 A 
ATOM      9  C   UNL     1       5.266   3.826  16.534  0.00  0.00    +0.000 A 
ATOM     10  C   UNL     1       5.486   5.118  17.061  0.00  0.00    +0.000 A 
BRANCH   7  11
ATOM     11  N   UNL     1       6.669   4.127  13.069  0.00  0.00    +0.000 N 
ATOM     12  O   UNL     1       6.061   3.210  12.497  0.00  0.00    +0.000 OA
ATOM     13  O   UNL     1       7.585   4.786  12.561  0.00  0.00    +0.000 OA
ENDBRANCH   7  11
BRANCH   5  15
ATOM     14  C   UNL     1       7.615   7.549  17.414  0.00  0.00    +0.000 C 
ATOM     15  O   UNL     1       6.353   7.338  16.774  0.00  0.00    +0.000 OA
ENDBRANCH   5  15
ENDBRANCH   1  10
BRANCH   3  16
ATOM     16  C   UNL     1       3.175   5.995  19.987  0.00  0.00    +0.000 C 
BRANCH  16  17
ATOM     17  C   UNL     1       1.796   5.375  20.226  0.00  0.00    +0.000 C 
BRANCH  17  18
ATOM     18  C   UNL     1       1.344   4.527  19.035  0.00  0.00    +0.000 C 
BRANCH  18  19
ATOM     19  C   UNL     1       0.559   3.288  19.466  0.00  0.00    +0.000 C 
BRANCH  19  20
ATOM     20  C   UNL     1       1.019   2.065  18.666  0.00  0.00    +0.000 C 
BRANCH  20  21
ATOM     21  C   UNL     1       2.375   2.295  18.004  0.00  0.00    +0.000 C 
BRANCH  21  22
ATOM     22  C   UNL     1       3.456   1.419  18.639  0.00  0.00    +0.000 C 
BRANCH  22  23
ATOM     23  C   UNL     1       4.063   2.069  19.860  0.00  0.00    +0.000 C 
ATOM     24  O   UNL     1       3.456   2.396  20.864  0.00  0.00    +0.000 OA
BRANCH  23  25
ATOM     25  O   UNL     1       5.399   2.261  19.727  0.00  0.00    +0.000 OA
ATOM     26  H   UNL     1       5.873   2.332  20.576  0.00  0.00    +0.000 HD
ENDBRANCH  23  25
ENDBRANCH  22  23
ENDBRANCH  21  22
ENDBRANCH  20  21
ENDBRANCH  19  20
ENDBRANCH  18  19
ENDBRANCH  17  18
ENDBRANCH  16  17
ENDBRANCH   3  16
TORSDOF 12
ENDMDL
MODEL 3
REMARK VINA RESULT:      -6.1      2.408      3.442
REMARK  Name = 
REMARK  13 active torsions:
REMARK  status: ('A' for Active; 'I' for Inactive)
REMARK    1  A    between atoms: C_1  and  O_2
REMARK    2  A    between atoms: O_2  and  C_3
REMARK    3  A    between atoms: C_5  and  N_6
REMARK    4  A    between atoms: C_11  and  C_12
REMARK    5  A    between atoms: N_14  and  C_15
REMARK    6  A    between atoms: C_15  and  C_16
REMARK    7  A    between atoms: C_16  and  C_17
REMARK    8  A    between atoms: C_17  and  C_18
REMARK    9  A    between atoms: C_18  and  C_19
REMARK   10  A    between atoms: C_19  and  C_20
REMARK   11  A    between atoms: C_20  and  C_21
REMARK   12  A    between atoms: C_21  and  C_22
REMARK   13  A    between atoms: C_22  and  O_24
REMARK                            x       y       z     vdW  Elec       q    Type
REMARK                         _______ _______ _______ _____ _____    ______ ____
ROOT
ATOM      1  C   UNL     1       4.275   3.853  17.435  0.00  0.00    +0.000 C 
ATOM      2  O   UNL     1       3.432   4.680  17.779  0.00  0.00    +0.000 OA
ATOM      3  N   UNL     1       4.327   2.595  17.986  0.00  0.00    +0.000 N 
ATOM      4  H   UNL     1       5.010   1.939  17.623  0.00  0.00    +0.000 HD
ENDROOT
BRANCH   1  10
ATOM      5  C   UNL     1       6.583   4.706  16.606  0.00  0.00    +0.000 A 
ATOM      6  C   UNL     1       7.402   5.016  15.505  0.00  0.00    +0.000 A 
ATOM      7  C   UNL     1       6.947   4.814  14.195  0.00  0.00    +0.000 A 
ATOM      8  C   UNL     1       5.673   4.304  13.959  0.00  0.00    +0.000 A 
ATOM      9  C   UNL     1       4.849   4.012  15.047  0.00  0.00    +0.000 A 
ATOM     10  C   UNL     1       5.280   4.213  16.377  0.00  0.00    +0.000 A 
BRANCH   7  11
ATOM     11  N   UNL     1       7.824   5.147  13.065  0.00  0.00    +0.000 N 
ATOM     12  O   UNL     1       7.562   4.637  11.965  0.00  0.00    +0.000 OA
ATOM     13  O   UNL     1       8.770   5.918  13.274  0.00  0.00    +0.000 OA
ENDBRANCH   7  11
BRANCH   5  15
ATOM     14  C   UNL     1       7.465   6.203  18.241  0.00  0.00    +0.000 C 
ATOM     15  O   UNL     1       7.005   4.892  17.902  0.00  0.00    +0.000 OA
ENDBRANCH   5  15
ENDBRANCH   1  10
BRANCH   3  16
ATOM     16  C   UNL     1       3.348   2.138  18.952  0.00  0.00    +0.000 C 
BRANCH  16  17
ATOM     17  C   UNL     1       3.744   2.471  20.393  0.00  0.00    +0.000 C 
BRANCH  17  18
ATOM     18  C   UNL     1       2.598   3.142  21.154  0.00  0.00    +0.000 C 
BRANCH  18  19
ATOM     19  C   UNL     1       1.347   3.314  20.292  0.00  0.00    +0.000 C 
BRANCH  19  20
ATOM     20  C   UNL     1       0.936   4.789  20.241  0.00  0.00    +0.000 C 
BRANCH  20  21
ATOM     21  C   UNL     1       2.054   5.708  20.728  0.00  0.00    +0.000 C 
BRANCH  21  22
ATOM     22  C   UNL     1       1.870   7.131  20.198  0.00  0.00    +0.000 C 
BRANCH  22  23
ATOM     23  C   UNL     1       1.143   8.011  21.186  0.00  0.00    +0.000 C 
ATOM     24  O   UNL     1      -0.048   8.270  21.162  0.00  0.00    +0.000 OA
BRANCH  23  25
ATOM     25  O   UNL     1       1.971   8.505  22.139  0.00  0.00    +0.000 OA
ATOM     26  H   UNL     1       1.795   9.436  22.370  0.00  0.00    +0.000 HD
ENDBRANCH  23  25
ENDBRANCH  22  23
ENDBRANCH  21  22
ENDBRANCH  20  21
ENDBRANCH  19  20
ENDBRANCH  18  19
ENDBRANCH  17  18
ENDBRANCH  16  17
ENDBRANCH   3  16
TORSDOF 12
ENDMDL
MODEL 4
REMARK VINA RESULT:      -6.1      1.994      2.924
REMARK  Name = 
REMARK  13 active torsions:
REMARK  status: ('A' for Active; 'I' for Inactive)
REMARK    1  A    between atoms: C_1  and  O_2
REMARK    2  A    between atoms: O_2  and  C_3
REMARK    3  A    between atoms: C_5  and  N_6
REMARK    4  A    between atoms: C_11  and  C_12
REMARK    5  A    between atoms: N_14  and  C_15
REMARK    6  A    between atoms: C_15  and  C_16
REMARK    7  A    between atoms: C_16  and  C_17
REMARK    8  A    between atoms: C_17  and  C_18
REMARK    9  A    between atoms: C_18  and  C_19
REMARK   10  A    between atoms: C_19  and  C_20
REMARK   11  A    between atoms: C_20  and  C_21
REMARK   12  A    between atoms: C_21  and  C_22
REMARK   13  A    between atoms: C_22  and  O_24
REMARK                            x       y       z     vdW  Elec       q    Type
REMARK                         _______ _______ _______ _____ _____    ______ ____
ROOT
ATOM      1  C   UNL     1       5.570   4.103  18.792  0.00  0.00    +0.000 C 
ATOM      2  O   UNL     1       5.721   4.943  19.678  0.00  0.00    +0.000 OA
ATOM      3  N   UNL     1       4.919   2.914  19.021  0.00  0.00    +0.000 N 
ATOM      4  H   UNL     1       4.777   2.285  18.238  0.00  0.00    +0.000 HD
ENDROOT
BRANCH   1  10
ATOM      5  C   UNL     1       7.125   5.289  17.084  0.00  0.00    +0.000 A 
ATOM      6  C   UNL     1       7.498   5.445  15.737  0.00  0.00    +0.000 A 
ATOM      7  C   UNL     1       6.885   4.685  14.731  0.00  0.00    +0.000 A 
ATOM      8  C   UNL     1       5.892   3.763  15.047  0.00  0.00    +0.000 A 
ATOM      9  C   UNL     1       5.503   3.617  16.380  0.00  0.00    +0.000 A 
ATOM     10  C   UNL     1       6.100   4.374  17.413  0.00  0.00    +0.000 A 
BRANCH   7  11
ATOM     11  N   UNL     1       7.296   4.870  13.333  0.00  0.00    +0.000 N 
ATOM     12  O   UNL     1       6.808   4.107  12.486  0.00  0.00    +0.000 OA
ATOM     13  O   UNL     1       8.101   5.776  13.081  0.00  0.00    +0.000 OA
ENDBRANCH   7  11
BRANCH   5  15
ATOM     14  C   UNL     1       7.714   7.440  17.930  0.00  0.00    +0.000 C 
ATOM     15  O   UNL     1       7.711   6.018  18.092  0.00  0.00    +0.000 OA
ENDBRANCH   5  15
ENDBRANCH   1  10
BRANCH   3  16
ATOM     16  C   UNL     1       4.306   2.606  20.298  0.00  0.00    +0.000 C 
BRANCH  16  17
ATOM     17  C   UNL     1       2.885   3.162  20.418  0.00  0.00    +0.000 C 
BRANCH  17  18
ATOM     18  C   UNL     1       1.863   2.256  19.728  0.00  0.00    +0.000 C 
BRANCH  18  19
ATOM     19  C   UNL     1       1.046   2.998  18.671  0.00  0.00    +0.000 C 
BRANCH  19  20
ATOM     20  C   UNL     1       1.964   3.851  17.792  0.00  0.00    +0.000 C 
BRANCH  20  21
ATOM     21  C   UNL     1       1.580   5.329  17.833  0.00  0.00    +0.000 C 
BRANCH  21  22
ATOM     22  C   UNL     1       2.741   6.188  18.334  0.00  0.00    +0.000 C 
BRANCH  22  23
ATOM     23  C   UNL     1       2.351   7.641  18.469  0.00  0.00    +0.000 C 
ATOM     24  O   UNL     1       1.892   8.161  19.471  0.00  0.00    +0.000 OA
BRANCH  23  25
ATOM     25  O   UNL     1       2.569   8.338  17.327  0.00  0.00    +0.000 OA
ATOM     26  H   UNL     1       2.007   8.057  16.580  0.00  0.00    +0.000 HD
ENDBRANCH  23  25
ENDBRANCH  22  23
ENDBRANCH  21  22
ENDBRANCH  20  21
ENDBRANCH  19  20
ENDBRANCH  18  19
ENDBRANCH  17  18
ENDBRANCH  16  17
ENDBRANCH   3  16
TORSDOF 12
ENDMDL
MODEL 5
REMARK VINA RESULT:      -6.0      2.222      4.353
REMARK  Name = 
REMARK  13 active torsions:
REMARK  status: ('A' for Active; 'I' for Inactive)
REMARK    1  A    between atoms: C_1  and  O_2
REMARK    2  A    between atoms: O_2  and  C_3
REMARK    3  A    between atoms: C_5  and  N_6
REMARK    4  A    between atoms: C_11  and  C_12
REMARK    5  A    between atoms: N_14  and  C_15
REMARK    6  A    between atoms: C_15  and  C_16
REMARK    7  A    between atoms: C_16  and  C_17
REMARK    8  A    between atoms: C_17  and  C_18
REMARK    9  A    between atoms: C_18  and  C_19
REMARK   10  A    between atoms: C_19  and  C_20
REMARK   11  A    between atoms: C_20  and  C_21
REMARK   12  A    between atoms: C_21  and  C_22
REMARK   13  A    between atoms: C_22  and  O_24
REMARK                            x       y       z     vdW  Elec       q    Type
REMARK                         _______ _______ _______ _____ _____    ______ ____
ROOT
ATOM      1  C   UNL     1       3.781   2.988  18.043  0.00  0.00    +0.000 C 
ATOM      2  O   UNL     1       4.128   1.810  18.119  0.00  0.00    +0.000 OA
ATOM      3  N   UNL     1       2.460   3.363  18.108  0.00  0.00    +0.000 N 
ATOM      4  H   UNL     1       2.240   4.353  18.094  0.00  0.00    +0.000 HD
ENDROOT
BRANCH   1  10
ATOM      5  C   UNL     1       5.371   4.506  16.661  0.00  0.00    +0.000 A 
ATOM      6  C   UNL     1       6.356   5.510  16.678  0.00  0.00    +0.000 A 
ATOM      7  C   UNL     1       6.773   6.085  17.886  0.00  0.00    +0.000 A 
ATOM      8  C   UNL     1       6.219   5.670  19.094  0.00  0.00    +0.000 A 
ATOM      9  C   UNL     1       5.255   4.661  19.086  0.00  0.00    +0.000 A 
ATOM     10  C   UNL     1       4.822   4.060  17.883  0.00  0.00    +0.000 A 
BRANCH   7  11
ATOM     11  N   UNL     1       7.804   7.131  17.873  0.00  0.00    +0.000 N 
ATOM     12  O   UNL     1       8.515   7.248  18.881  0.00  0.00    +0.000 OA
ATOM     13  O   UNL     1       7.904   7.831  16.857  0.00  0.00    +0.000 OA
ENDBRANCH   7  11
BRANCH   5  15
ATOM     14  C   UNL     1       5.603   4.344  14.292  0.00  0.00    +0.000 C 
ATOM     15  O   UNL     1       4.941   3.926  15.490  0.00  0.00    +0.000 OA
ENDBRANCH   5  15
ENDBRANCH   1  10
BRANCH   3  16
ATOM     16  C   UNL     1       1.399   2.403  18.342  0.00  0.00    +0.000 C 
BRANCH  16  17
ATOM     17  C   UNL     1       0.637   2.676  19.641  0.00  0.00    +0.000 C 
BRANCH  17  18
ATOM     18  C   UNL     1       1.566   2.658  20.857  0.00  0.00    +0.000 C 
BRANCH  18  19
ATOM     19  C   UNL     1       2.003   4.062  21.277  0.00  0.00    +0.000 C 
BRANCH  19  20
ATOM     20  C   UNL     1       1.238   5.118  20.476  0.00  0.00    +0.000 C 
BRANCH  20  21
ATOM     21  C   UNL     1       1.953   6.467  20.484  0.00  0.00    +0.000 C 
BRANCH  21  22
ATOM     22  C   UNL     1       2.455   6.835  19.087  0.00  0.00    +0.000 C 
BRANCH  22  23
ATOM     23  C   UNL     1       2.048   8.235  18.692  0.00  0.00    +0.000 C 
ATOM     24  O   UNL     1       1.487   9.040  19.414  0.00  0.00    +0.000 OA
BRANCH  23  25
ATOM     25  O   UNL     1       2.379   8.522  17.409  0.00  0.00    +0.000 OA
ATOM     26  H   UNL     1       3.321   8.374  17.202  0.00  0.00    +0.000 HD
ENDBRANCH  23  25
ENDBRANCH  22  23
ENDBRANCH  21  22
ENDBRANCH  20  21
ENDBRANCH  19  20
ENDBRANCH  18  19
ENDBRANCH  17  18
ENDBRANCH  16  17
ENDBRANCH   3  16
TORSDOF 12
ENDMDL
MODEL 6
REMARK VINA RESULT:      -6.0      1.586      2.836
REMARK  Name = 
REMARK  13 active torsions:
REMARK  status: ('A' for Active; 'I' for Inactive)
REMARK    1  A    between atoms: C_1  and  O_2
REMARK    2  A    between atoms: O_2  and  C_3
REMARK    3  A    between atoms: C_5  and  N_6
REMARK    4  A    between atoms: C_11  and  C_12
REMARK    5  A    between atoms: N_14  and  C_15
REMARK    6  A    between atoms: C_15  and  C_16
REMARK    7  A    between atoms: C_16  and  C_17
REMARK    8  A    between atoms: C_17  and  C_18
REMARK    9  A    between atoms: C_18  and  C_19
REMARK   10  A    between atoms: C_19  and  C_20
REMARK   11  A    between atoms: C_20  and  C_21
REMARK   12  A    between atoms: C_21  and  C_22
REMARK   13  A    between atoms: C_22  and  O_24
REMARK                            x       y       z     vdW  Elec       q    Type
REMARK                         _______ _______ _______ _____ _____    ______ ____
ROOT
ATOM      1  C   UNL     1       4.587   3.629  17.335  0.00  0.00    +0.000 C 
ATOM      2  O   UNL     1       3.378   3.647  17.108  0.00  0.00    +0.000 OA
ATOM      3  N   UNL     1       5.094   3.193  18.535  0.00  0.00    +0.000 N 
ATOM      4  H   UNL     1       6.102   3.150  18.644  0.00  0.00    +0.000 HD
ENDROOT
BRANCH   1  10
ATOM      5  C   UNL     1       6.834   4.626  16.499  0.00  0.00    +0.000 A 
ATOM      6  C   UNL     1       7.611   5.027  15.398  0.00  0.00    +0.000 A 
ATOM      7  C   UNL     1       7.134   4.870  14.089  0.00  0.00    +0.000 A 
ATOM      8  C   UNL     1       5.878   4.315  13.856  0.00  0.00    +0.000 A 
ATOM      9  C   UNL     1       5.095   3.932  14.946  0.00  0.00    +0.000 A 
ATOM     10  C   UNL     1       5.548   4.086  16.275  0.00  0.00    +0.000 A 
BRANCH   7  11
ATOM     11  N   UNL     1       7.967   5.299  12.958  0.00  0.00    +0.000 N 
ATOM     12  O   UNL     1       8.940   6.026  13.206  0.00  0.00    +0.000 OA
ATOM     13  O   UNL     1       7.653   4.907  11.827  0.00  0.00    +0.000 OA
ENDBRANCH   7  11
BRANCH   5  15
ATOM     14  C   UNL     1       7.550   6.100  18.233  0.00  0.00    +0.000 C 
ATOM     15  O   UNL     1       7.278   4.766  17.794  0.00  0.00    +0.000 OA
ENDBRANCH   5  15
ENDBRANCH   1  10
BRANCH   3  16
ATOM     16  C   UNL     1       4.244   2.659  19.582  0.00  0.00    +0.000 C 
BRANCH  16  17
ATOM     17  C   UNL     1       3.312   1.556  19.076  0.00  0.00    +0.000 C 
BRANCH  17  18
ATOM     18  C   UNL     1       1.849   1.854  19.412  0.00  0.00    +0.000 C 
BRANCH  18  19
ATOM     19  C   UNL     1       1.696   2.619  20.727  0.00  0.00    +0.000 C 
BRANCH  19  20
ATOM     20  C   UNL     1       0.854   3.880  20.512  0.00  0.00    +0.000 C 
BRANCH  20  21
ATOM     21  C   UNL     1       1.707   5.146  20.543  0.00  0.00    +0.000 C 
BRANCH  21  22
ATOM     22  C   UNL     1       1.855   5.747  19.145  0.00  0.00    +0.000 C 
BRANCH  22  23
ATOM     23  C   UNL     1       3.155   6.501  18.989  0.00  0.00    +0.000 C 
ATOM     24  O   UNL     1       4.237   6.143  19.422  0.00  0.00    +0.000 OA
BRANCH  23  25
ATOM     25  O   UNL     1       2.998   7.655  18.296  0.00  0.00    +0.000 OA
ATOM     26  H   UNL     1       3.752   8.268  18.376  0.00  0.00    +0.000 HD
ENDBRANCH  23  25
ENDBRANCH  22  23
ENDBRANCH  21  22
ENDBRANCH  20  21
ENDBRANCH  19  20
ENDBRANCH  18  19
ENDBRANCH  17  18
ENDBRANCH  16  17
ENDBRANCH   3  16
TORSDOF 12
ENDMDL
MODEL 7
REMARK VINA RESULT:      -5.9      4.071      8.923
REMARK  Name = 
REMARK  13 active torsions:
REMARK  status: ('A' for Active; 'I' for Inactive)
REMARK    1  A    between atoms: C_1  and  O_2
REMARK    2  A    between atoms: O_2  and  C_3
REMARK    3  A    between atoms: C_5  and  N_6
REMARK    4  A    between atoms: C_11  and  C_12
REMARK    5  A    between atoms: N_14  and  C_15
REMARK    6  A    between atoms: C_15  and  C_16
REMARK    7  A    between atoms: C_16  and  C_17
REMARK    8  A    between atoms: C_17  and  C_18
REMARK    9  A    between atoms: C_18  and  C_19
REMARK   10  A    between atoms: C_19  and  C_20
REMARK   11  A    between atoms: C_20  and  C_21
REMARK   12  A    between atoms: C_21  and  C_22
REMARK   13  A    between atoms: C_22  and  O_24
REMARK                            x       y       z     vdW  Elec       q    Type
REMARK                         _______ _______ _______ _____ _____    ______ ____
ROOT
ATOM      1  C   UNL     1       6.188   5.734  18.575  0.00  0.00    +0.000 C 
ATOM      2  O   UNL     1       7.178   5.355  19.200  0.00  0.00    +0.000 OA
ATOM      3  N   UNL     1       6.258   6.741  17.643  0.00  0.00    +0.000 N 
ATOM      4  H   UNL     1       5.419   6.973  17.121  0.00  0.00    +0.000 HD
ENDROOT
BRANCH   1  10
ATOM      5  C   UNL     1       3.593   5.682  18.650  0.00  0.00    +0.000 A 
ATOM      6  C   UNL     1       2.434   4.941  18.944  0.00  0.00    +0.000 A 
ATOM      7  C   UNL     1       2.526   3.611  19.377  0.00  0.00    +0.000 A 
ATOM      8  C   UNL     1       3.768   3.000  19.527  0.00  0.00    +0.000 A 
ATOM      9  C   UNL     1       4.922   3.736  19.255  0.00  0.00    +0.000 A 
ATOM     10  C   UNL     1       4.858   5.080  18.824  0.00  0.00    +0.000 A 
BRANCH   7  11
ATOM     11  N   UNL     1       1.299   2.861  19.678  0.00  0.00    +0.000 N 
ATOM     12  O   UNL     1       0.701   2.335  18.727  0.00  0.00    +0.000 OA
ATOM     13  O   UNL     1       0.935   2.796  20.859  0.00  0.00    +0.000 OA
ENDBRANCH   7  11
BRANCH   5  15
ATOM     14  C   UNL     1       2.365   7.727  18.590  0.00  0.00    +0.000 C 
ATOM     15  O   UNL     1       3.533   6.987  18.220  0.00  0.00    +0.000 OA
ENDBRANCH   5  15
ENDBRANCH   1  10
BRANCH   3  16
ATOM     16  C   UNL     1       7.513   7.371  17.284  0.00  0.00    +0.000 C 
BRANCH  16  17
ATOM     17  C   UNL     1       8.236   7.972  18.491  0.00  0.00    +0.000 C 
BRANCH  17  18
ATOM     18  C   UNL     1       8.664   9.418  18.232  0.00  0.00    +0.000 C 
BRANCH  18  19
ATOM     19  C   UNL     1       9.197  10.104  19.491  0.00  0.00    +0.000 C 
BRANCH  19  20
ATOM     20  C   UNL     1       9.484  11.581  19.209  0.00  0.00    +0.000 C 
BRANCH  20  21
ATOM     21  C   UNL     1      10.113  11.787  17.833  0.00  0.00    +0.000 C 
BRANCH  21  22
ATOM     22  C   UNL     1       9.961  13.236  17.368  0.00  0.00    +0.000 C 
BRANCH  22  23
ATOM     23  C   UNL     1      11.247  13.781  16.792  0.00  0.00    +0.000 C 
ATOM     24  O   UNL     1      12.333  13.230  16.839  0.00  0.00    +0.000 OA
BRANCH  23  25
ATOM     25  O   UNL     1      11.071  14.986  16.196  0.00  0.00    +0.000 OA
ATOM     26  H   UNL     1      11.794  15.618  16.366  0.00  0.00    +0.000 HD
ENDBRANCH  23  25
ENDBRANCH  22  23
ENDBRANCH  21  22
ENDBRANCH  20  21
ENDBRANCH  19  20
ENDBRANCH  18  19
ENDBRANCH  17  18
ENDBRANCH  16  17
ENDBRANCH   3  16
TORSDOF 12
ENDMDL
MODEL 8
REMARK VINA RESULT:      -5.9      1.555      2.161
REMARK  Name = 
REMARK  13 active torsions:
REMARK  status: ('A' for Active; 'I' for Inactive)
REMARK    1  A    between atoms: C_1  and  O_2
REMARK    2  A    between atoms: O_2  and  C_3
REMARK    3  A    between atoms: C_5  and  N_6
REMARK    4  A    between atoms: C_11  and  C_12
REMARK    5  A    between atoms: N_14  and  C_15
REMARK    6  A    between atoms: C_15  and  C_16
REMARK    7  A    between atoms: C_16  and  C_17
REMARK    8  A    between atoms: C_17  and  C_18
REMARK    9  A    between atoms: C_18  and  C_19
REMARK   10  A    between atoms: C_19  and  C_20
REMARK   11  A    between atoms: C_20  and  C_21
REMARK   12  A    between atoms: C_21  and  C_22
REMARK   13  A    between atoms: C_22  and  O_24
REMARK                            x       y       z     vdW  Elec       q    Type
REMARK                         _______ _______ _______ _____ _____    ______ ____
ROOT
ATOM      1  C   UNL     1       3.821   6.569  18.402  0.00  0.00    +0.000 C 
ATOM      2  O   UNL     1       3.112   7.552  18.193  0.00  0.00    +0.000 OA
ATOM      3  N   UNL     1       3.721   5.833  19.558  0.00  0.00    +0.000 N 
ATOM      4  H   UNL     1       4.296   5.002  19.650  0.00  0.00    +0.000 HD
ENDROOT
BRANCH   1  10
ATOM      5  C   UNL     1       6.227   6.102  17.543  0.00  0.00    +0.000 A 
ATOM      6  C   UNL     1       7.040   5.699  16.468  0.00  0.00    +0.000 A 
ATOM      7  C   UNL     1       6.472   5.316  15.245  0.00  0.00    +0.000 A 
ATOM      8  C   UNL     1       5.091   5.331  15.071  0.00  0.00    +0.000 A 
ATOM      9  C   UNL     1       4.280   5.748  16.127  0.00  0.00    +0.000 A 
ATOM     10  C   UNL     1       4.826   6.145  17.368  0.00  0.00    +0.000 A 
BRANCH   7  11
ATOM     11  N   UNL     1       7.346   4.900  14.140  0.00  0.00    +0.000 N 
ATOM     12  O   UNL     1       8.363   5.576  13.928  0.00  0.00    +0.000 OA
ATOM     13  O   UNL     1       7.018   3.900  13.488  0.00  0.00    +0.000 OA
ENDBRANCH   7  11
BRANCH   5  15
ATOM     14  C   UNL     1       7.764   5.626  19.304  0.00  0.00    +0.000 C 
ATOM     15  O   UNL     1       6.757   6.480  18.755  0.00  0.00    +0.000 OA
ENDBRANCH   5  15
ENDBRANCH   1  10
BRANCH   3  16
ATOM     16  C   UNL     1       2.725   6.123  20.571  0.00  0.00    +0.000 C 
BRANCH  16  17
ATOM     17  C   UNL     1       1.541   5.154  20.525  0.00  0.00    +0.000 C 
BRANCH  17  18
ATOM     18  C   UNL     1       1.846   3.853  21.269  0.00  0.00    +0.000 C 
BRANCH  18  19
ATOM     19  C   UNL     1       1.201   2.636  20.606  0.00  0.00    +0.000 C 
BRANCH  19  20
ATOM     20  C   UNL     1       1.062   2.865  19.098  0.00  0.00    +0.000 C 
BRANCH  20  21
ATOM     21  C   UNL     1       2.022   1.988  18.298  0.00  0.00    +0.000 C 
BRANCH  21  22
ATOM     22  C   UNL     1       3.305   2.745  17.954  0.00  0.00    +0.000 C 
BRANCH  22  23
ATOM     23  C   UNL     1       4.410   2.464  18.945  0.00  0.00    +0.000 C 
ATOM     24  O   UNL     1       5.090   3.306  19.506  0.00  0.00    +0.000 OA
BRANCH  23  25
ATOM     25  O   UNL     1       4.579   1.136  19.160  0.00  0.00    +0.000 OA
ATOM     26  H   UNL     1       4.832   0.637  18.361  0.00  0.00    +0.000 HD
ENDBRANCH  23  25
ENDBRANCH  22  23
ENDBRANCH  21  22
ENDBRANCH  20  21
ENDBRANCH  19  20
ENDBRANCH  18  19
ENDBRANCH  17  18
ENDBRANCH  16  17
ENDBRANCH   3  16
TORSDOF 12
ENDMDL
MODEL 9
REMARK VINA RESULT:      -5.9      1.530      2.016
REMARK  Name = 
REMARK  13 active torsions:
REMARK  status: ('A' for Active; 'I' for Inactive)
REMARK    1  A    between atoms: C_1  and  O_2
REMARK    2  A    between atoms: O_2  and  C_3
REMARK    3  A    between atoms: C_5  and  N_6
REMARK    4  A    between atoms: C_11  and  C_12
REMARK    5  A    between atoms: N_14  and  C_15
REMARK    6  A    between atoms: C_15  and  C_16
REMARK    7  A    between atoms: C_16  and  C_17
REMARK    8  A    between atoms: C_17  and  C_18
REMARK    9  A    between atoms: C_18  and  C_19
REMARK   10  A    between atoms: C_19  and  C_20
REMARK   11  A    between atoms: C_20  and  C_21
REMARK   12  A    between atoms: C_21  and  C_22
REMARK   13  A    between atoms: C_22  and  O_24
REMARK                            x       y       z     vdW  Elec       q    Type
REMARK                         _______ _______ _______ _____ _____    ______ ____
ROOT
ATOM      1  C   UNL     1       4.492   4.534  17.752  0.00  0.00    +0.000 C 
ATOM      2  O   UNL     1       3.804   3.518  17.842  0.00  0.00    +0.000 OA
ATOM      3  N   UNL     1       4.441   5.532  18.696  0.00  0.00    +0.000 N 
ATOM      4  H   UNL     1       5.072   6.320  18.596  0.00  0.00    +0.000 HD
ENDROOT
BRANCH   1  10
ATOM      5  C   UNL     1       6.765   5.142  16.655  0.00  0.00    +0.000 A 
ATOM      6  C   UNL     1       7.509   5.261  15.467  0.00  0.00    +0.000 A 
ATOM      7  C   UNL     1       6.945   4.916  14.231  0.00  0.00    +0.000 A 
ATOM      8  C   UNL     1       5.634   4.453  14.157  0.00  0.00    +0.000 A 
ATOM      9  C   UNL     1       4.885   4.350  15.330  0.00  0.00    +0.000 A 
ATOM     10  C   UNL     1       5.427   4.697  16.587  0.00  0.00    +0.000 A 
BRANCH   7  11
ATOM     11  N   UNL     1       7.745   5.051  13.007  0.00  0.00    +0.000 N 
ATOM     12  O   UNL     1       8.702   5.839  13.031  0.00  0.00    +0.000 OA
ATOM     13  O   UNL     1       7.421   4.369  12.026  0.00  0.00    +0.000 OA
ENDBRANCH   7  11
BRANCH   5  15
ATOM     14  C   UNL     1       7.670   6.838  18.069  0.00  0.00    +0.000 C 
ATOM     15  O   UNL     1       7.295   5.470  17.882  0.00  0.00    +0.000 OA
ENDBRANCH   5  15
ENDBRANCH   1  10
BRANCH   3  16
ATOM     16  C   UNL     1       3.629   5.420  19.891  0.00  0.00    +0.000 C 
BRANCH  16  17
ATOM     17  C   UNL     1       2.283   6.138  19.757  0.00  0.00    +0.000 C 
BRANCH  17  18
ATOM     18  C   UNL     1       1.162   5.374  20.464  0.00  0.00    +0.000 C 
BRANCH  18  19
ATOM     19  C   UNL     1       1.066   3.919  20.004  0.00  0.00    +0.000 C 
BRANCH  19  20
ATOM     20  C   UNL     1       1.119   2.977  21.210  0.00  0.00    +0.000 C 
BRANCH  20  21
ATOM     21  C   UNL     1       2.259   1.968  21.094  0.00  0.00    +0.000 C 
BRANCH  21  22
ATOM     22  C   UNL     1       3.619   2.668  21.107  0.00  0.00    +0.000 C 
BRANCH  22  23
ATOM     23  C   UNL     1       4.751   1.706  20.831  0.00  0.00    +0.000 C 
ATOM     24  O   UNL     1       5.477   1.207  21.672  0.00  0.00    +0.000 OA
BRANCH  23  25
ATOM     25  O   UNL     1       4.887   1.441  19.508  0.00  0.00    +0.000 OA
ATOM     26  H   UNL     1       4.862   2.235  18.942  0.00  0.00    +0.000 HD
ENDBRANCH  23  25
ENDBRANCH  22  23
ENDBRANCH  21  22
ENDBRANCH  20  21
ENDBRANCH  19  20
ENDBRANCH  18  19
ENDBRANCH  17  18
ENDBRANCH  16  17
ENDBRANCH   3  16
TORSDOF 12
ENDMDL
