MODEL 1
REMARK VINA RESULT:      -7.6      0.000      0.000
REMARK  Name = 
REMARK  10 active torsions:
REMARK  status: ('A' for Active; 'I' for Inactive)
REMARK    1  A    between atoms: C_1  and  C_2
REMARK    2  A    between atoms: C_2  and  N_3
REMARK    3  A    between atoms: N_6  and  C_7
REMARK    4  A    between atoms: C_7  and  C_8
REMARK    5  A    between atoms: C_8  and  C_9
REMARK    6  A    between atoms: C_9  and  N_10
REMARK    7  A    between atoms: C_11  and  C_13
REMARK    8  A    between atoms: N_19  and  C_20
REMARK    9  A    between atoms: C_20  and  C_21
REMARK   10  A    between atoms: C_24  and  C_25
REMARK                            x       y       z     vdW  Elec       q    Type
REMARK                         _______ _______ _______ _____ _____    ______ ____
ROOT
ATOM      1  C   UNL     1       1.323   8.725  20.124  0.00  0.00    +0.000 A 
ATOM      2  C   UNL     1       1.335   8.599  21.515  0.00  0.00    +0.000 A 
ATOM      3  C   UNL     1       0.595   9.511  22.284  0.00  0.00    +0.000 A 
ATOM      4  C   UNL     1      -0.141  10.537  21.676  0.00  0.00    +0.000 A 
ATOM      5  C   UNL     1      -0.092  10.717  20.278  0.00  0.00    +0.000 A 
ATOM      6  C   UNL     1       0.651   9.794  19.537  0.00  0.00    +0.000 A 
ATOM      7  N   UNL     1      -0.766  11.746  19.635  0.00  0.00    +0.000 N 
ATOM      8  C   UNL     1      -2.094  12.045  20.147  0.00  0.00    +0.000 C 
ATOM      9  C   UNL     1      -2.070  12.571  21.577  0.00  0.00    +0.000 C 
ATOM     10  S   UNL     1      -1.096  11.590  22.767  0.00  0.00    +0.000 S 
ENDROOT
BRANCH   1  12
ATOM     11  N   UNL     1       2.055   6.439  19.767  0.00  0.00    +0.000 N 
ATOM     12  C   UNL     1       2.033   7.735  19.284  0.00  0.00    +0.000 C 
ATOM     13  O   UNL     1       2.571   8.088  18.236  0.00  0.00    +0.000 OA
ATOM     14  H   UNL     1       1.716   6.231  20.696  0.00  0.00    +0.000 HD
BRANCH  11  15
ATOM     15  C   UNL     1       2.703   5.372  19.044  0.00  0.00    +0.000 C 
BRANCH  15  16
ATOM     16  C   UNL     1       3.902   4.824  19.810  0.00  0.00    +0.000 C 
BRANCH  16  17
ATOM     17  C   UNL     1       5.218   5.426  19.300  0.00  0.00    +0.000 C 
BRANCH  17  21
ATOM     18  N   UNL     1       6.366   5.671  15.722  0.00  0.00    +0.000 NA
ATOM     19  C   UNL     1       5.089   5.080  16.196  0.00  0.00    +0.000 C 
ATOM     20  C   UNL     1       5.255   4.007  17.300  0.00  0.00    +0.000 C 
ATOM     21  N   UNL     1       6.002   4.482  18.488  0.00  0.00    +0.000 NA
ATOM     22  C   UNL     1       7.281   5.063  18.031  0.00  0.00    +0.000 C 
ATOM     23  C   UNL     1       7.144   6.111  16.901  0.00  0.00    +0.000 C 
BRANCH  18  25
ATOM     24  C   UNL     1       6.186   3.996  13.819  0.00  0.00    +0.000 C 
ATOM     25  C   UNL     1       7.056   4.709  14.849  0.00  0.00    +0.000 C 
ENDBRANCH  18  25
ENDBRANCH  17  21
ENDBRANCH  16  17
ENDBRANCH  15  16
ENDBRANCH  11  15
ENDBRANCH   1  12
BRANCH   7  26
ATOM     26  C   UNL     1      -0.253  12.377  18.419  0.00  0.00    +0.000 C 
BRANCH  26  27
ATOM     27  C   UNL     1       0.817  13.427  18.657  0.00  0.00    +0.000 A 
ATOM     28  C   UNL     1       0.523  14.646  19.279  0.00  0.00    +0.000 A 
ATOM     29  C   UNL     1       1.534  15.567  19.567  0.00  0.00    +0.000 A 
ATOM     30  C   UNL     1       2.866  15.277  19.257  0.00  0.00    +0.000 A 
ATOM     31  C   UNL     1       3.973  16.221  19.622  0.00  0.00    +0.000 C 
ATOM     32  C   UNL     1       3.168  14.068  18.626  0.00  0.00    +0.000 A 
ATOM     33  C   UNL     1       2.154  13.160  18.317  0.00  0.00    +0.000 A 
ENDBRANCH  26  27
ENDBRANCH   7  26
TORSDOF 8
ENDMDL
MODEL 2
REMARK VINA RESULT:      -7.5      4.863      8.125
REMARK  Name = 
REMARK  10 active torsions:
REMARK  status: ('A' for Active; 'I' for Inactive)
REMARK    1  A    between atoms: C_1  and  C_2
REMARK    2  A    between atoms: C_2  and  N_3
REMARK    3  A    between atoms: N_6  and  C_7
REMARK    4  A    between atoms: C_7  and  C_8
REMARK    5  A    between atoms: C_8  and  C_9
REMARK    6  A    between atoms: C_9  and  N_10
REMARK    7  A    between atoms: C_11  and  C_13
REMARK    8  A    between atoms: N_19  and  C_20
REMARK    9  A    between atoms: C_20  and  C_21
REMARK   10  A    between atoms: C_24  and  C_25
REMARK                            x       y       z     vdW  Elec       q    Type
REMARK                         _______ _______ _______ _____ _____    ______ ____
ROOT
ATOM      1  C   UNL     1       6.368   6.513  18.072  0.00  0.00    +0.000 A 
ATOM      2  C   UNL     1       6.739   5.463  18.915  0.00  0.00    +0.000 A 
ATOM      3  C   UNL     1       5.738   4.637  19.448  0.00  0.00    +0.000 A 
ATOM      4  C   UNL     1       4.387   4.857  19.151  0.00  0.00    +0.000 A 
ATOM      5  C   UNL     1       4.001   5.963  18.366  0.00  0.00    +0.000 A 
ATOM      6  C   UNL     1       5.018   6.768  17.846  0.00  0.00    +0.000 A 
ATOM      7  N   UNL     1       2.671   6.250  18.083  0.00  0.00    +0.000 N 
ATOM      8  C   UNL     1       1.826   5.100  17.806  0.00  0.00    +0.000 C 
ATOM      9  C   UNL     1       1.668   4.179  19.009  0.00  0.00    +0.000 C 
ATOM     10  S   UNL     1       3.216   3.689  19.842  0.00  0.00    +0.000 S 
ENDROOT
BRANCH   1  12
ATOM     11  N   UNL     1       7.629   8.586  18.027  0.00  0.00    +0.000 N 
ATOM     12  C   UNL     1       7.405   7.355  17.435  0.00  0.00    +0.000 C 
ATOM     13  O   UNL     1       7.996   6.956  16.434  0.00  0.00    +0.000 OA
ATOM     14  H   UNL     1       7.023   8.920  18.764  0.00  0.00    +0.000 HD
BRANCH  11  15
ATOM     15  C   UNL     1       8.618   9.503  17.516  0.00  0.00    +0.000 C 
BRANCH  15  16
ATOM     16  C   UNL     1       9.099  10.466  18.596  0.00  0.00    +0.000 C 
BRANCH  16  17
ATOM     17  C   UNL     1      10.315  11.276  18.125  0.00  0.00    +0.000 C 
BRANCH  17  21
ATOM     18  N   UNL     1      11.238  14.831  18.950  0.00  0.00    +0.000 NA
ATOM     19  C   UNL     1      10.055  14.092  19.457  0.00  0.00    +0.000 C 
ATOM     20  C   UNL     1       9.188  13.442  18.350  0.00  0.00    +0.000 C 
ATOM     21  N   UNL     1       9.942  12.532  17.457  0.00  0.00    +0.000 NA
ATOM     22  C   UNL     1      11.117  13.261  16.936  0.00  0.00    +0.000 C 
ATOM     23  C   UNL     1      11.979  13.951  18.020  0.00  0.00    +0.000 C 
BRANCH  18  25
ATOM     24  C   UNL     1      11.777  16.779  17.408  0.00  0.00    +0.000 C 
ATOM     25  C   UNL     1      10.803  16.113  18.374  0.00  0.00    +0.000 C 
ENDBRANCH  18  25
ENDBRANCH  17  21
ENDBRANCH  16  17
ENDBRANCH  15  16
ENDBRANCH  11  15
ENDBRANCH   1  12
BRANCH   7  26
ATOM     26  C   UNL     1       2.187   7.618  17.908  0.00  0.00    +0.000 C 
BRANCH  26  27
ATOM     27  C   UNL     1       1.665   8.269  19.177  0.00  0.00    +0.000 A 
ATOM     28  C   UNL     1       1.054   9.529  19.157  0.00  0.00    +0.000 A 
ATOM     29  C   UNL     1       0.504  10.077  20.318  0.00  0.00    +0.000 A 
ATOM     30  C   UNL     1       0.534   9.367  21.521  0.00  0.00    +0.000 A 
ATOM     31  C   UNL     1      -0.113   9.908  22.760  0.00  0.00    +0.000 C 
ATOM     32  C   UNL     1       1.153   8.115  21.554  0.00  0.00    +0.000 A 
ATOM     33  C   UNL     1       1.724   7.579  20.398  0.00  0.00    +0.000 A 
ENDBRANCH  26  27
ENDBRANCH   7  26
TORSDOF 8
ENDMDL
MODEL 3
REMARK VINA RESULT:      -7.3      4.628      7.923
REMARK  Name = 
REMARK  10 active torsions:
REMARK  status: ('A' for Active; 'I' for Inactive)
REMARK    1  A    between atoms: C_1  and  C_2
REMARK    2  A    between atoms: C_2  and  N_3
REMARK    3  A    between atoms: N_6  and  C_7
REMARK    4  A    between atoms: C_7  and  C_8
REMARK    5  A    between atoms: C_8  and  C_9
REMARK    6  A    between atoms: C_9  and  N_10
REMARK    7  A    between atoms: C_11  and  C_13
REMARK    8  A    between atoms: N_19  and  C_20
REMARK    9  A    between atoms: C_20  and  C_21
REMARK   10  A    between atoms: C_24  and  C_25
REMARK                            x       y       z     vdW  Elec       q    Type
REMARK                         _______ _______ _______ _____ _____    ______ ____
ROOT
ATOM      1  C   UNL     1       6.156   5.954  17.254  0.00  0.00    +0.000 A 
ATOM      2  C   UNL     1       6.388   4.661  16.781  0.00  0.00    +0.000 A 
ATOM      3  C   UNL     1       5.377   3.697  16.922  0.00  0.00    +0.000 A 
ATOM      4  C   UNL     1       4.156   4.016  17.531  0.00  0.00    +0.000 A 
ATOM      5  C   UNL     1       3.947   5.297  18.082  0.00  0.00    +0.000 A 
ATOM      6  C   UNL     1       4.969   6.238  17.925  0.00  0.00    +0.000 A 
ATOM      7  N   UNL     1       2.773   5.645  18.736  0.00  0.00    +0.000 N 
ATOM      8  C   UNL     1       1.547   5.132  18.144  0.00  0.00    +0.000 C 
ATOM      9  C   UNL     1       1.461   3.612  18.193  0.00  0.00    +0.000 C 
ATOM     10  S   UNL     1       2.927   2.712  17.586  0.00  0.00    +0.000 S 
ENDROOT
BRANCH   1  12
ATOM     11  N   UNL     1       7.002   8.161  17.804  0.00  0.00    +0.000 N 
ATOM     12  C   UNL     1       7.172   7.011  17.053  0.00  0.00    +0.000 C 
ATOM     13  O   UNL     1       8.085   6.845  16.248  0.00  0.00    +0.000 OA
ATOM     14  H   UNL     1       6.162   8.300  18.348  0.00  0.00    +0.000 HD
BRANCH  11  15
ATOM     15  C   UNL     1       7.925   9.266  17.716  0.00  0.00    +0.000 C 
BRANCH  15  16
ATOM     16  C   UNL     1       8.810   9.358  18.954  0.00  0.00    +0.000 C 
BRANCH  16  17
ATOM     17  C   UNL     1       9.707  10.602  18.913  0.00  0.00    +0.000 C 
BRANCH  17  21
ATOM     18  N   UNL     1      10.903  14.168  18.750  0.00  0.00    +0.000 NA
ATOM     19  C   UNL     1      10.562  13.412  19.982  0.00  0.00    +0.000 C 
ATOM     20  C   UNL     1       9.160  12.753  19.956  0.00  0.00    +0.000 C 
ATOM     21  N   UNL     1       8.944  11.854  18.798  0.00  0.00    +0.000 NA
ATOM     22  C   UNL     1       9.269  12.599  17.565  0.00  0.00    +0.000 C 
ATOM     23  C   UNL     1      10.649  13.298  17.581  0.00  0.00    +0.000 C 
BRANCH  18  25
ATOM     24  C   UNL     1      10.208  16.230  17.436  0.00  0.00    +0.000 C 
ATOM     25  C   UNL     1      10.172  15.445  18.743  0.00  0.00    +0.000 C 
ENDBRANCH  18  25
ENDBRANCH  17  21
ENDBRANCH  16  17
ENDBRANCH  15  16
ENDBRANCH  11  15
ENDBRANCH   1  12
BRANCH   7  26
ATOM     26  C   UNL     1       2.749   6.599  19.844  0.00  0.00    +0.000 C 
BRANCH  26  27
ATOM     27  C   UNL     1       2.002   7.888  19.550  0.00  0.00    +0.000 A 
ATOM     28  C   UNL     1       1.279   8.559  20.544  0.00  0.00    +0.000 A 
ATOM     29  C   UNL     1       0.668   9.787  20.280  0.00  0.00    +0.000 A 
ATOM     30  C   UNL     1       0.784  10.381  19.021  0.00  0.00    +0.000 A 
ATOM     31  C   UNL     1       0.195  11.731  18.739  0.00  0.00    +0.000 C 
ATOM     32  C   UNL     1       1.493   9.713  18.019  0.00  0.00    +0.000 A 
ATOM     33  C   UNL     1       2.083   8.475  18.277  0.00  0.00    +0.000 A 
ENDBRANCH  26  27
ENDBRANCH   7  26
TORSDOF 8
ENDMDL
MODEL 4
REMARK VINA RESULT:      -7.3      4.758      7.915
REMARK  Name = 
REMARK  10 active torsions:
REMARK  status: ('A' for Active; 'I' for Inactive)
REMARK    1  A    between atoms: C_1  and  C_2
REMARK    2  A    between atoms: C_2  and  N_3
REMARK    3  A    between atoms: N_6  and  C_7
REMARK    4  A    between atoms: C_7  and  C_8
REMARK    5  A    between atoms: C_8  and  C_9
REMARK    6  A    between atoms: C_9  and  N_10
REMARK    7  A    between atoms: C_11  and  C_13
REMARK    8  A    between atoms: N_19  and  C_20
REMARK    9  A    between atoms: C_20  and  C_21
REMARK   10  A    between atoms: C_24  and  C_25
REMARK                            x       y       z     vdW  Elec       q    Type
REMARK                         _______ _______ _______ _____ _____    ______ ____
ROOT
ATOM      1  C   UNL     1       6.203   5.561  17.354  0.00  0.00    +0.000 A 
ATOM      2  C   UNL     1       6.363   4.280  16.821  0.00  0.00    +0.000 A 
ATOM      3  C   UNL     1       5.280   3.388  16.866  0.00  0.00    +0.000 A 
ATOM      4  C   UNL     1       4.058   3.766  17.438  0.00  0.00    +0.000 A 
ATOM      5  C   UNL     1       3.917   5.029  18.049  0.00  0.00    +0.000 A 
ATOM      6  C   UNL     1       5.010   5.897  17.988  0.00  0.00    +0.000 A 
ATOM      7  N   UNL     1       2.741   5.430  18.670  0.00  0.00    +0.000 N 
ATOM      8  C   UNL     1       1.511   5.041  17.998  0.00  0.00    +0.000 C 
ATOM      9  C   UNL     1       1.312   3.531  17.960  0.00  0.00    +0.000 C 
ATOM     10  S   UNL     1       2.736   2.557  17.369  0.00  0.00    +0.000 S 
ENDROOT
BRANCH   1  12
ATOM     11  N   UNL     1       7.664   7.165  18.440  0.00  0.00    +0.000 N 
ATOM     12  C   UNL     1       7.302   6.548  17.256  0.00  0.00    +0.000 C 
ATOM     13  O   UNL     1       7.822   6.786  16.169  0.00  0.00    +0.000 OA
ATOM     14  H   UNL     1       7.116   7.033  19.278  0.00  0.00    +0.000 HD
BRANCH  11  15
ATOM     15  C   UNL     1       8.727   8.140  18.491  0.00  0.00    +0.000 C 
BRANCH  15  16
ATOM     16  C   UNL     1       8.228   9.531  18.117  0.00  0.00    +0.000 C 
BRANCH  16  17
ATOM     17  C   UNL     1       8.746  10.595  19.094  0.00  0.00    +0.000 C 
BRANCH  17  21
ATOM     18  N   UNL     1      10.397  13.972  18.880  0.00  0.00    +0.000 NA
ATOM     19  C   UNL     1       9.815  13.207  17.749  0.00  0.00    +0.000 C 
ATOM     20  C   UNL     1      10.336  11.753  17.629  0.00  0.00    +0.000 C 
ATOM     21  N   UNL     1      10.155  10.949  18.860  0.00  0.00    +0.000 NA
ATOM     22  C   UNL     1      10.741  11.696  19.993  0.00  0.00    +0.000 C 
ATOM     23  C   UNL     1      10.264  13.163  20.112  0.00  0.00    +0.000 C 
BRANCH  18  25
ATOM     24  C   UNL     1      11.951  15.138  17.242  0.00  0.00    +0.000 C 
ATOM     25  C   UNL     1      11.774  14.368  18.545  0.00  0.00    +0.000 C 
ENDBRANCH  18  25
ENDBRANCH  17  21
ENDBRANCH  16  17
ENDBRANCH  15  16
ENDBRANCH  11  15
ENDBRANCH   1  12
BRANCH   7  26
ATOM     26  C   UNL     1       2.734   6.325  19.826  0.00  0.00    +0.000 C 
BRANCH  26  27
ATOM     27  C   UNL     1       2.079   7.671  19.578  0.00  0.00    +0.000 A 
ATOM     28  C   UNL     1       2.188   8.324  18.343  0.00  0.00    +0.000 A 
ATOM     29  C   UNL     1       1.510   9.521  18.103  0.00  0.00    +0.000 A 
ATOM     30  C   UNL     1       0.691  10.082  19.086  0.00  0.00    +0.000 A 
ATOM     31  C   UNL     1      -0.100  11.329  18.823  0.00  0.00    +0.000 C 
ATOM     32  C   UNL     1       0.586   9.446  20.325  0.00  0.00    +0.000 A 
ATOM     33  C   UNL     1       1.283   8.262  20.573  0.00  0.00    +0.000 A 
ENDBRANCH  26  27
ENDBRANCH   7  26
TORSDOF 8
ENDMDL
MODEL 5
REMARK VINA RESULT:      -7.3      4.647      7.568
REMARK  Name = 
REMARK  10 active torsions:
REMARK  status: ('A' for Active; 'I' for Inactive)
REMARK    1  A    between atoms: C_1  and  C_2
REMARK    2  A    between atoms: C_2  and  N_3
REMARK    3  A    between atoms: N_6  and  C_7
REMARK    4  A    between atoms: C_7  and  C_8
REMARK    5  A    between atoms: C_8  and  C_9
REMARK    6  A    between atoms: C_9  and  N_10
REMARK    7  A    between atoms: C_11  and  C_13
REMARK    8  A    between atoms: N_19  and  C_20
REMARK    9  A    between atoms: C_20  and  C_21
REMARK   10  A    between atoms: C_24  and  C_25
REMARK                            x       y       z     vdW  Elec       q    Type
REMARK                         _______ _______ _______ _____ _____    ______ ____
ROOT
ATOM      1  C   UNL     1       5.228   5.676  18.016  0.00  0.00    +0.000 A 
ATOM      2  C   UNL     1       5.528   4.314  17.950  0.00  0.00    +0.000 A 
ATOM      3  C   UNL     1       4.677   3.402  18.594  0.00  0.00    +0.000 A 
ATOM      4  C   UNL     1       3.548   3.842  19.297  0.00  0.00    +0.000 A 
ATOM      5  C   UNL     1       3.286   5.221  19.434  0.00  0.00    +0.000 A 
ATOM      6  C   UNL     1       4.148   6.106  18.782  0.00  0.00    +0.000 A 
ATOM      7  N   UNL     1       2.206   5.706  20.161  0.00  0.00    +0.000 N 
ATOM      8  C   UNL     1       0.968   4.957  20.024  0.00  0.00    +0.000 C 
ATOM      9  C   UNL     1       1.070   3.541  20.578  0.00  0.00    +0.000 C 
ATOM     10  S   UNL     1       2.508   2.570  20.015  0.00  0.00    +0.000 S 
ENDROOT
BRANCH   1  12
ATOM     11  N   UNL     1       6.990   7.344  18.050  0.00  0.00    +0.000 N 
ATOM     12  C   UNL     1       6.064   6.656  17.286  0.00  0.00    +0.000 C 
ATOM     13  O   UNL     1       5.903   6.828  16.080  0.00  0.00    +0.000 OA
ATOM     14  H   UNL     1       6.990   7.263  19.057  0.00  0.00    +0.000 HD
BRANCH  11  15
ATOM     15  C   UNL     1       7.877   8.321  17.465  0.00  0.00    +0.000 C 
BRANCH  15  16
ATOM     16  C   UNL     1       8.540   9.185  18.532  0.00  0.00    +0.000 C 
BRANCH  16  17
ATOM     17  C   UNL     1       9.219  10.415  17.917  0.00  0.00    +0.000 C 
BRANCH  17  21
ATOM     18  N   UNL     1      11.916  12.984  18.472  0.00  0.00    +0.000 NA
ATOM     19  C   UNL     1      11.770  11.694  19.192  0.00  0.00    +0.000 C 
ATOM     20  C   UNL     1      10.369  11.465  19.812  0.00  0.00    +0.000 C 
ATOM     21  N   UNL     1       9.260  11.565  18.835  0.00  0.00    +0.000 NA
ATOM     22  C   UNL     1       9.387  12.851  18.118  0.00  0.00    +0.000 C 
ATOM     23  C   UNL     1      10.789  13.120  17.522  0.00  0.00    +0.000 C 
BRANCH  18  25
ATOM     24  C   UNL     1      12.050  15.490  18.874  0.00  0.00    +0.000 C 
ATOM     25  C   UNL     1      12.038  14.078  19.448  0.00  0.00    +0.000 C 
ENDBRANCH  18  25
ENDBRANCH  17  21
ENDBRANCH  16  17
ENDBRANCH  15  16
ENDBRANCH  11  15
ENDBRANCH   1  12
BRANCH   7  26
ATOM     26  C   UNL     1       2.259   6.977  20.882  0.00  0.00    +0.000 C 
BRANCH  26  27
ATOM     27  C   UNL     1       1.419   8.084  20.271  0.00  0.00    +0.000 A 
ATOM     28  C   UNL     1       0.419   8.735  21.002  0.00  0.00    +0.000 A 
ATOM     29  C   UNL     1      -0.288   9.809  20.454  0.00  0.00    +0.000 A 
ATOM     30  C   UNL     1       0.006  10.267  19.167  0.00  0.00    +0.000 A 
ATOM     31  C   UNL     1      -0.692  11.462  18.588  0.00  0.00    +0.000 C 
ATOM     32  C   UNL     1       0.994   9.616  18.424  0.00  0.00    +0.000 A 
ATOM     33  C   UNL     1       1.683   8.528  18.964  0.00  0.00    +0.000 A 
ENDBRANCH  26  27
ENDBRANCH   7  26
TORSDOF 8
ENDMDL
MODEL 6
REMARK VINA RESULT:      -7.3      0.854      1.479
REMARK  Name = 
REMARK  10 active torsions:
REMARK  status: ('A' for Active; 'I' for Inactive)
REMARK    1  A    between atoms: C_1  and  C_2
REMARK    2  A    between atoms: C_2  and  N_3
REMARK    3  A    between atoms: N_6  and  C_7
REMARK    4  A    between atoms: C_7  and  C_8
REMARK    5  A    between atoms: C_8  and  C_9
REMARK    6  A    between atoms: C_9  and  N_10
REMARK    7  A    between atoms: C_11  and  C_13
REMARK    8  A    between atoms: N_19  and  C_20
REMARK    9  A    between atoms: C_20  and  C_21
REMARK   10  A    between atoms: C_24  and  C_25
REMARK                            x       y       z     vdW  Elec       q    Type
REMARK                         _______ _______ _______ _____ _____    ______ ____
ROOT
ATOM      1  C   UNL     1       1.238   8.841  20.187  0.00  0.00    +0.000 A 
ATOM      2  C   UNL     1       1.288   8.769  21.581  0.00  0.00    +0.000 A 
ATOM      3  C   UNL     1       0.556   9.700  22.334  0.00  0.00    +0.000 A 
ATOM      4  C   UNL     1      -0.209  10.693  21.707  0.00  0.00    +0.000 A 
ATOM      5  C   UNL     1      -0.199  10.820  20.302  0.00  0.00    +0.000 A 
ATOM      6  C   UNL     1       0.537   9.878  19.578  0.00  0.00    +0.000 A 
ATOM      7  N   UNL     1      -0.903  11.816  19.638  0.00  0.00    +0.000 N 
ATOM      8  C   UNL     1      -2.221  12.118  20.174  0.00  0.00    +0.000 C 
ATOM      9  C   UNL     1      -2.166  12.698  21.581  0.00  0.00    +0.000 C 
ATOM     10  S   UNL     1      -1.150  11.775  22.782  0.00  0.00    +0.000 S 
ENDROOT
BRANCH   1  12
ATOM     11  N   UNL     1       2.191   6.619  19.988  0.00  0.00    +0.000 N 
ATOM     12  C   UNL     1       1.939   7.829  19.367  0.00  0.00    +0.000 C 
ATOM     13  O   UNL     1       2.273   8.092  18.214  0.00  0.00    +0.000 OA
ATOM     14  H   UNL     1       2.017   6.502  20.977  0.00  0.00    +0.000 HD
BRANCH  11  15
ATOM     15  C   UNL     1       2.858   5.539  19.301  0.00  0.00    +0.000 C 
BRANCH  15  16
ATOM     16  C   UNL     1       4.335   5.467  19.672  0.00  0.00    +0.000 C 
BRANCH  16  17
ATOM     17  C   UNL     1       5.230   5.509  18.426  0.00  0.00    +0.000 C 
BRANCH  17  21
ATOM     18  N   UNL     1       6.302   4.201  15.063  0.00  0.00    +0.000 NA
ATOM     19  C   UNL     1       6.390   5.609  15.525  0.00  0.00    +0.000 C 
ATOM     20  C   UNL     1       5.060   6.182  16.074  0.00  0.00    +0.000 C 
ATOM     21  N   UNL     1       4.471   5.381  17.172  0.00  0.00    +0.000 NA
ATOM     22  C   UNL     1       4.368   3.978  16.720  0.00  0.00    +0.000 C 
ATOM     23  C   UNL     1       5.675   3.394  16.132  0.00  0.00    +0.000 C 
BRANCH  18  25
ATOM     24  C   UNL     1       6.407   3.581  12.600  0.00  0.00    +0.000 C 
ATOM     25  C   UNL     1       5.610   4.155  13.765  0.00  0.00    +0.000 C 
ENDBRANCH  18  25
ENDBRANCH  17  21
ENDBRANCH  16  17
ENDBRANCH  15  16
ENDBRANCH  11  15
ENDBRANCH   1  12
BRANCH   7  26
ATOM     26  C   UNL     1      -0.429  12.405  18.387  0.00  0.00    +0.000 C 
BRANCH  26  27
ATOM     27  C   UNL     1       0.677  13.432  18.552  0.00  0.00    +0.000 A 
ATOM     28  C   UNL     1       2.016  13.116  18.293  0.00  0.00    +0.000 A 
ATOM     29  C   UNL     1       3.011  14.093  18.368  0.00  0.00    +0.000 A 
ATOM     30  C   UNL     1       2.685  15.414  18.683  0.00  0.00    +0.000 A 
ATOM     31  C   UNL     1       3.728  16.491  18.700  0.00  0.00    +0.000 C 
ATOM     32  C   UNL     1       1.353  15.738  18.956  0.00  0.00    +0.000 A 
ATOM     33  C   UNL     1       0.363  14.755  18.905  0.00  0.00    +0.000 A 
ENDBRANCH  26  27
ENDBRANCH   7  26
TORSDOF 8
ENDMDL
MODEL 7
REMARK VINA RESULT:      -7.2      4.849      7.976
REMARK  Name = 
REMARK  10 active torsions:
REMARK  status: ('A' for Active; 'I' for Inactive)
REMARK    1  A    between atoms: C_1  and  C_2
REMARK    2  A    between atoms: C_2  and  N_3
REMARK    3  A    between atoms: N_6  and  C_7
REMARK    4  A    between atoms: C_7  and  C_8
REMARK    5  A    between atoms: C_8  and  C_9
REMARK    6  A    between atoms: C_9  and  N_10
REMARK    7  A    between atoms: C_11  and  C_13
REMARK    8  A    between atoms: N_19  and  C_20
REMARK    9  A    between atoms: C_20  and  C_21
REMARK   10  A    between atoms: C_24  and  C_25
REMARK                            x       y       z     vdW  Elec       q    Type
REMARK                         _______ _______ _______ _____ _____    ______ ____
ROOT
ATOM      1  C   UNL     1       6.247   6.284  18.037  0.00  0.00    +0.000 A 
ATOM      2  C   UNL     1       6.573   5.196  18.850  0.00  0.00    +0.000 A 
ATOM      3  C   UNL     1       5.536   4.410  19.376  0.00  0.00    +0.000 A 
ATOM      4  C   UNL     1       4.195   4.706  19.100  0.00  0.00    +0.000 A 
ATOM      5  C   UNL     1       3.858   5.849  18.346  0.00  0.00    +0.000 A 
ATOM      6  C   UNL     1       4.910   6.613  17.834  0.00  0.00    +0.000 A 
ATOM      7  N   UNL     1       2.542   6.210  18.086  0.00  0.00    +0.000 N 
ATOM      8  C   UNL     1       1.635   5.112  17.792  0.00  0.00    +0.000 C 
ATOM      9  C   UNL     1       1.444   4.172  18.975  0.00  0.00    +0.000 C 
ATOM     10  S   UNL     1       2.973   3.583  19.777  0.00  0.00    +0.000 S 
ENDROOT
BRANCH   1  12
ATOM     11  N   UNL     1       7.700   8.226  18.096  0.00  0.00    +0.000 N 
ATOM     12  C   UNL     1       7.319   7.087  17.408  0.00  0.00    +0.000 C 
ATOM     13  O   UNL     1       7.803   6.738  16.334  0.00  0.00    +0.000 OA
ATOM     14  H   UNL     1       7.179   8.539  18.903  0.00  0.00    +0.000 HD
BRANCH  11  15
ATOM     15  C   UNL     1       8.741   9.096  17.602  0.00  0.00    +0.000 C 
BRANCH  15  16
ATOM     16  C   UNL     1       8.590  10.513  18.144  0.00  0.00    +0.000 C 
BRANCH  16  17
ATOM     17  C   UNL     1       9.544  10.770  19.318  0.00  0.00    +0.000 C 
BRANCH  17  21
ATOM     18  N   UNL     1      10.646  14.370  19.373  0.00  0.00    +0.000 NA
ATOM     19  C   UNL     1       9.957  13.681  18.253  0.00  0.00    +0.000 C 
ATOM     20  C   UNL     1      10.634  12.362  17.804  0.00  0.00    +0.000 C 
ATOM     21  N   UNL     1      10.816  11.380  18.897  0.00  0.00    +0.000 NA
ATOM     22  C   UNL     1      11.512  12.051  20.014  0.00  0.00    +0.000 C 
ATOM     23  C   UNL     1      10.875  13.390  20.457  0.00  0.00    +0.000 C 
BRANCH  18  25
ATOM     24  C   UNL     1      12.331  16.254  19.642  0.00  0.00    +0.000 C 
ATOM     25  C   UNL     1      11.861  15.029  18.867  0.00  0.00    +0.000 C 
ENDBRANCH  18  25
ENDBRANCH  17  21
ENDBRANCH  16  17
ENDBRANCH  15  16
ENDBRANCH  11  15
ENDBRANCH   1  12
BRANCH   7  26
ATOM     26  C   UNL     1       2.127   7.606  17.950  0.00  0.00    +0.000 C 
BRANCH  26  27
ATOM     27  C   UNL     1       1.626   8.242  19.233  0.00  0.00    +0.000 A 
ATOM     28  C   UNL     1       0.978   9.484  19.232  0.00  0.00    +0.000 A 
ATOM     29  C   UNL     1       0.448  10.017  20.409  0.00  0.00    +0.000 A 
ATOM     30  C   UNL     1       0.535   9.310  21.611  0.00  0.00    +0.000 A 
ATOM     31  C   UNL     1      -0.090   9.833  22.870  0.00  0.00    +0.000 C 
ATOM     32  C   UNL     1       1.190   8.076  21.625  0.00  0.00    +0.000 A 
ATOM     33  C   UNL     1       1.741   7.555  20.453  0.00  0.00    +0.000 A 
ENDBRANCH  26  27
ENDBRANCH   7  26
TORSDOF 8
ENDMDL
MODEL 8
REMARK VINA RESULT:      -7.1      5.213      7.676
REMARK  Name = 
REMARK  10 active torsions:
REMARK  status: ('A' for Active; 'I' for Inactive)
REMARK    1  A    between atoms: C_1  and  C_2
REMARK    2  A    between atoms: C_2  and  N_3
REMARK    3  A    between atoms: N_6  and  C_7
REMARK    4  A    between atoms: C_7  and  C_8
REMARK    5  A    between atoms: C_8  and  C_9
REMARK    6  A    between atoms: C_9  and  N_10
REMARK    7  A    between atoms: C_11  and  C_13
REMARK    8  A    between atoms: N_19  and  C_20
REMARK    9  A    between atoms: C_20  and  C_21
REMARK   10  A    between atoms: C_24  and  C_25
REMARK                            x       y       z     vdW  Elec       q    Type
REMARK                         _______ _______ _______ _____ _____    ______ ____
ROOT
ATOM      1  C   UNL     1       9.719  11.791  18.352  0.00  0.00    +0.000 A 
ATOM      2  C   UNL     1      11.012  11.881  17.833  0.00  0.00    +0.000 A 
ATOM      3  C   UNL     1      11.480  13.130  17.395  0.00  0.00    +0.000 A 
ATOM      4  C   UNL     1      10.670  14.270  17.468  0.00  0.00    +0.000 A 
ATOM      5  C   UNL     1       9.336  14.169  17.917  0.00  0.00    +0.000 A 
ATOM      6  C   UNL     1       8.897  12.915  18.348  0.00  0.00    +0.000 A 
ATOM      7  N   UNL     1       8.480  15.262  17.963  0.00  0.00    +0.000 N 
ATOM      8  C   UNL     1       9.080  16.512  18.402  0.00  0.00    +0.000 C 
ATOM      9  C   UNL     1      10.144  17.026  17.441  0.00  0.00    +0.000 C 
ATOM     10  S   UNL     1      11.412  15.814  16.939  0.00  0.00    +0.000 S 
ENDROOT
BRANCH   1  12
ATOM     11  N   UNL     1       8.629   9.657  17.973  0.00  0.00    +0.000 N 
ATOM     12  C   UNL     1       9.224  10.504  18.890  0.00  0.00    +0.000 C 
ATOM     13  O   UNL     1       9.338  10.251  20.087  0.00  0.00    +0.000 OA
ATOM     14  H   UNL     1       8.439   9.970  17.031  0.00  0.00    +0.000 HD
BRANCH  11  15
ATOM     15  C   UNL     1       8.111   8.366  18.358  0.00  0.00    +0.000 C 
BRANCH  15  16
ATOM     16  C   UNL     1       7.712   7.537  17.143  0.00  0.00    +0.000 C 
BRANCH  16  17
ATOM     17  C   UNL     1       6.239   7.113  17.212  0.00  0.00    +0.000 C 
BRANCH  17  21
ATOM     18  N   UNL     1       4.403   4.531  19.246  0.00  0.00    +0.000 NA
ATOM     19  C   UNL     1       5.837   4.892  19.375  0.00  0.00    +0.000 C 
ATOM     20  C   UNL     1       6.629   4.839  18.044  0.00  0.00    +0.000 C 
ATOM     21  N   UNL     1       6.046   5.675  16.968  0.00  0.00    +0.000 NA
ATOM     22  C   UNL     1       4.620   5.317  16.823  0.00  0.00    +0.000 C 
ATOM     23  C   UNL     1       3.816   5.325  18.145  0.00  0.00    +0.000 C 
BRANCH  18  25
ATOM     24  C   UNL     1       2.881   2.550  18.778  0.00  0.00    +0.000 C 
ATOM     25  C   UNL     1       4.278   3.073  19.093  0.00  0.00    +0.000 C 
ENDBRANCH  18  25
ENDBRANCH  17  21
ENDBRANCH  16  17
ENDBRANCH  15  16
ENDBRANCH  11  15
ENDBRANCH   1  12
BRANCH   7  26
ATOM     26  C   UNL     1       7.040  15.135  17.749  0.00  0.00    +0.000 C 
BRANCH  26  27
ATOM     27  C   UNL     1       6.185  15.611  18.909  0.00  0.00    +0.000 A 
ATOM     28  C   UNL     1       5.170  16.559  18.733  0.00  0.00    +0.000 A 
ATOM     29  C   UNL     1       4.337  16.924  19.793  0.00  0.00    +0.000 A 
ATOM     30  C   UNL     1       4.489  16.333  21.050  0.00  0.00    +0.000 A 
ATOM     31  C   UNL     1       3.560  16.659  22.182  0.00  0.00    +0.000 C 
ATOM     32  C   UNL     1       5.507  15.395  21.240  0.00  0.00    +0.000 A 
ATOM     33  C   UNL     1       6.354  15.049  20.186  0.00  0.00    +0.000 A 
ENDBRANCH  26  27
ENDBRANCH   7  26
TORSDOF 8
ENDMDL
MODEL 9
REMARK VINA RESULT:      -7.1      1.228      1.919
REMARK  Name = 
REMARK  10 active torsions:
REMARK  status: ('A' for Active; 'I' for Inactive)
REMARK    1  A    between atoms: C_1  and  C_2
REMARK    2  A    between atoms: C_2  and  N_3
REMARK    3  A    between atoms: N_6  and  C_7
REMARK    4  A    between atoms: C_7  and  C_8
REMARK    5  A    between atoms: C_8  and  C_9
REMARK    6  A    between atoms: C_9  and  N_10
REMARK    7  A    between atoms: C_11  and  C_13
REMARK    8  A    between atoms: N_19  and  C_20
REMARK    9  A    between atoms: C_20  and  C_21
REMARK   10  A    between atoms: C_24  and  C_25
REMARK                            x       y       z     vdW  Elec       q    Type
REMARK                         _______ _______ _______ _____ _____    ______ ____
ROOT
ATOM      1  C   UNL     1       0.663   9.049  21.009  0.00  0.00    +0.000 A 
ATOM      2  C   UNL     1       0.501   9.205  22.387  0.00  0.00    +0.000 A 
ATOM      3  C   UNL     1      -0.331  10.233  22.858  0.00  0.00    +0.000 A 
ATOM      4  C   UNL     1      -0.988  11.094  21.969  0.00  0.00    +0.000 A 
ATOM      5  C   UNL     1      -0.765  10.991  20.580  0.00  0.00    +0.000 A 
ATOM      6  C   UNL     1       0.067   9.958  20.139  0.00  0.00    +0.000 A 
ATOM      7  N   UNL     1      -1.356  11.851  19.664  0.00  0.00    +0.000 N 
ATOM      8  C   UNL     1      -2.738  12.210  19.939  0.00  0.00    +0.000 C 
ATOM      9  C   UNL     1      -2.894  13.013  21.225  0.00  0.00    +0.000 C 
ATOM     10  S   UNL     1      -2.074  12.319  22.699  0.00  0.00    +0.000 S 
ENDROOT
BRANCH   1  12
ATOM     11  N   UNL     1       1.506   6.787  21.259  0.00  0.00    +0.000 N 
ATOM     12  C   UNL     1       1.475   7.930  20.480  0.00  0.00    +0.000 C 
ATOM     13  O   UNL     1       2.081   8.055  19.418  0.00  0.00    +0.000 OA
ATOM     14  H   UNL     1       1.102   6.784  22.185  0.00  0.00    +0.000 HD
BRANCH  11  15
ATOM     15  C   UNL     1       2.250   5.618  20.858  0.00  0.00    +0.000 C 
BRANCH  15  16
ATOM     16  C   UNL     1       1.445   4.742  19.904  0.00  0.00    +0.000 C 
BRANCH  16  17
ATOM     17  C   UNL     1       2.148   4.593  18.548  0.00  0.00    +0.000 C 
BRANCH  17  21
ATOM     18  N   UNL     1       5.488   5.168  16.909  0.00  0.00    +0.000 NA
ATOM     19  C   UNL     1       4.363   4.374  16.354  0.00  0.00    +0.000 C 
ATOM     20  C   UNL     1       3.816   3.287  17.313  0.00  0.00    +0.000 C 
ATOM     21  N   UNL     1       3.392   3.813  18.632  0.00  0.00    +0.000 NA
ATOM     22  C   UNL     1       4.508   4.596  19.201  0.00  0.00    +0.000 C 
ATOM     23  C   UNL     1       5.097   5.663  18.247  0.00  0.00    +0.000 C 
BRANCH  18  25
ATOM     24  C   UNL     1       7.776   4.716  17.919  0.00  0.00    +0.000 C 
ATOM     25  C   UNL     1       6.717   4.358  16.883  0.00  0.00    +0.000 C 
ENDBRANCH  18  25
ENDBRANCH  17  21
ENDBRANCH  16  17
ENDBRANCH  15  16
ENDBRANCH  11  15
ENDBRANCH   1  12
BRANCH   7  26
ATOM     26  C   UNL     1      -0.696  12.238  18.418  0.00  0.00    +0.000 C 
BRANCH  26  27
ATOM     27  C   UNL     1       0.332  13.345  18.566  0.00  0.00    +0.000 A 
ATOM     28  C   UNL     1       1.697  13.111  18.359  0.00  0.00    +0.000 A 
ATOM     29  C   UNL     1       2.620  14.158  18.416  0.00  0.00    +0.000 A 
ATOM     30  C   UNL     1       2.195  15.466  18.661  0.00  0.00    +0.000 A 
ATOM     31  C   UNL     1       3.162  16.613  18.656  0.00  0.00    +0.000 C 
ATOM     32  C   UNL     1       0.837  15.708  18.882  0.00  0.00    +0.000 A 
ATOM     33  C   UNL     1      -0.082  14.657  18.849  0.00  0.00    +0.000 A 
ENDBRANCH  26  27
ENDBRANCH   7  26
TORSDOF 8
ENDMDL
