MODEL 1
REMARK VINA RESULT:      -6.3      0.000      0.000
REMARK  Name = 
REMARK  3 active torsions:
REMARK  status: ('A' for Active; 'I' for Inactive)
REMARK    1  A    between atoms: N_1  and  C_2
REMARK    2  A    between atoms: N_11  and  C_12
REMARK    3  A    between atoms: C_22  and  O_23
REMARK                            x       y       z     vdW  Elec       q    Type
REMARK                         _______ _______ _______ _____ _____    ______ ____
ROOT
ATOM      1  C   UNL     1       3.821   3.659  17.755  0.00  0.00    +0.000 A 
ATOM      2  N   UNL     1       4.728   4.072  16.850  0.00  0.00    +0.000 NA
ATOM      3  C   UNL     1       4.834   5.392  16.614  0.00  0.00    +0.000 A 
ATOM      4  N   UNL     1       4.151   6.404  17.182  0.00  0.00    +0.000 NA
ATOM      5  C   UNL     1       3.239   5.941  18.060  0.00  0.00    +0.000 A 
ATOM      6  C   UNL     1       3.003   4.606  18.383  0.00  0.00    +0.000 A 
ATOM      7  C   UNL     1       1.947   4.614  19.324  0.00  0.00    +0.000 A 
ATOM      8 BR   UNL     1       1.186   3.100  20.129  0.00  0.00    +0.000 Br
ATOM      9  C   UNL     1       1.572   5.912  19.565  0.00  0.00    +0.000 A 
ATOM     10  N   UNL     1       2.401   6.721  18.823  0.00  0.00    +0.000 N 
ENDROOT
BRANCH  10  11
ATOM     11  C   UNL     1       2.482   8.171  18.904  0.00  0.00    +0.000 C 
ATOM     12  O   UNL     1       1.783   8.598  20.113  0.00  0.00    +0.000 OA
ATOM     13  C   UNL     1       0.853   9.592  19.692  0.00  0.00    +0.000 C 
ATOM     14  C   UNL     1      -0.438   9.725  20.477  0.00  0.00    +0.000 C 
ATOM     15  O   UNL     1      -1.161  10.806  19.901  0.00  0.00    +0.000 OA
ATOM     16  P   UNL     1      -1.597  10.659  18.331  0.00  0.00    +0.000 P 
ATOM     17  O   UNL     1      -2.045  12.004  17.828  0.00  0.00    +0.000 OA
ATOM     18  O   UNL     1      -2.397   9.392  18.183  0.00  0.00    +0.000 OA
ATOM     19  O   UNL     1      -0.119  10.369  17.674  0.00  0.00    +0.000 OA
ATOM     20  C   UNL     1       0.505   9.253  18.260  0.00  0.00    +0.000 C 
ATOM     21  C   UNL     1       1.867   8.921  17.705  0.00  0.00    +0.000 C 
BRANCH  21  22
ATOM     22  O   UNL     1       2.594  10.145  17.423  0.00  0.00    +0.000 OA
ATOM     23  H   UNL     1       2.709  10.116  16.444  0.00  0.00    +0.000 HD
ENDBRANCH  21  22
ENDBRANCH  10  11
BRANCH   1  24
ATOM     24  N   UNL     1       3.767   2.295  18.014  0.00  0.00    +0.000 N 
ATOM     25  H   UNL     1       3.972   1.737  17.195  0.00  0.00    +0.000 HD
ATOM     26  H   UNL     1       3.016   1.988  18.616  0.00  0.00    +0.000 HD
ENDBRANCH   1  24
TORSDOF 3
ENDMDL
MODEL 2
REMARK VINA RESULT:      -6.3      4.348      6.848
REMARK  Name = 
REMARK  3 active torsions:
REMARK  status: ('A' for Active; 'I' for Inactive)
REMARK    1  A    between atoms: N_1  and  C_2
REMARK    2  A    between atoms: N_11  and  C_12
REMARK    3  A    between atoms: C_22  and  O_23
REMARK                            x       y       z     vdW  Elec       q    Type
REMARK                         _______ _______ _______ _____ _____    ______ ____
ROOT
ATOM      1  C   UNL     1       0.607  10.926  19.708  0.00  0.00    +0.000 A 
ATOM      2  N   UNL     1       1.044  11.607  18.632  0.00  0.00    +0.000 NA
ATOM      3  C   UNL     1       1.859  10.975  17.768  0.00  0.00    +0.000 A 
ATOM      4  N   UNL     1       2.308   9.707  17.813  0.00  0.00    +0.000 NA
ATOM      5  C   UNL     1       1.866   9.074  18.918  0.00  0.00    +0.000 A 
ATOM      6  C   UNL     1       1.044   9.611  19.906  0.00  0.00    +0.000 A 
ATOM      7  C   UNL     1       0.873   8.588  20.868  0.00  0.00    +0.000 A 
ATOM      8 BR   UNL     1      -0.141   8.721  22.441  0.00  0.00    +0.000 Br
ATOM      9  C   UNL     1       1.562   7.472  20.462  0.00  0.00    +0.000 A 
ATOM     10  N   UNL     1       2.128   7.763  19.243  0.00  0.00    +0.000 N 
ENDROOT
BRANCH  10  11
ATOM     11  C   UNL     1       2.797   6.820  18.361  0.00  0.00    +0.000 C 
ATOM     12  O   UNL     1       1.868   5.731  18.073  0.00  0.00    +0.000 OA
ATOM     13  C   UNL     1       2.572   4.531  18.380  0.00  0.00    +0.000 C 
ATOM     14  C   UNL     1       1.760   3.343  18.862  0.00  0.00    +0.000 C 
ATOM     15  O   UNL     1       2.672   2.268  19.046  0.00  0.00    +0.000 OA
ATOM     16  P   UNL     1       3.863   2.481  20.148  0.00  0.00    +0.000 P 
ATOM     17  O   UNL     1       4.891   1.398  19.962  0.00  0.00    +0.000 OA
ATOM     18  O   UNL     1       3.225   2.823  21.468  0.00  0.00    +0.000 OA
ATOM     19  O   UNL     1       4.518   3.870  19.561  0.00  0.00    +0.000 OA
ATOM     20  C   UNL     1       3.564   4.897  19.461  0.00  0.00    +0.000 C 
ATOM     21  C   UNL     1       4.092   6.207  18.933  0.00  0.00    +0.000 C 
BRANCH  21  22
ATOM     22  O   UNL     1       5.062   5.957  17.882  0.00  0.00    +0.000 OA
ATOM     23  H   UNL     1       5.926   6.091  18.340  0.00  0.00    +0.000 HD
ENDBRANCH  21  22
ENDBRANCH  10  11
BRANCH   1  24
ATOM     24  N   UNL     1      -0.270  11.588  20.558  0.00  0.00    +0.000 N 
ATOM     25  H   UNL     1      -1.196  11.181  20.553  0.00  0.00    +0.000 HD
ATOM     26  H   UNL     1      -0.200  12.596  20.570  0.00  0.00    +0.000 HD
ENDBRANCH   1  24
TORSDOF 3
ENDMDL
MODEL 3
REMARK VINA RESULT:      -6.3      4.757      6.380
REMARK  Name = 
REMARK  3 active torsions:
REMARK  status: ('A' for Active; 'I' for Inactive)
REMARK    1  A    between atoms: N_1  and  C_2
REMARK    2  A    between atoms: N_11  and  C_12
REMARK    3  A    between atoms: C_22  and  O_23
REMARK                            x       y       z     vdW  Elec       q    Type
REMARK                         _______ _______ _______ _____ _____    ______ ____
ROOT
ATOM      1  C   UNL     1       7.168   5.108  14.466  0.00  0.00    +0.000 A 
ATOM      2  N   UNL     1       6.856   4.324  13.416  0.00  0.00    +0.000 NA
ATOM      3  C   UNL     1       5.748   3.566  13.497  0.00  0.00    +0.000 A 
ATOM      4  N   UNL     1       4.859   3.482  14.505  0.00  0.00    +0.000 NA
ATOM      5  C   UNL     1       5.226   4.264  15.541  0.00  0.00    +0.000 A 
ATOM      6  C   UNL     1       6.356   5.077  15.606  0.00  0.00    +0.000 A 
ATOM      7  C   UNL     1       6.329   5.679  16.885  0.00  0.00    +0.000 A 
ATOM      8 BR   UNL     1       7.601   6.883  17.557  0.00  0.00    +0.000 Br
ATOM      9  C   UNL     1       5.213   5.249  17.559  0.00  0.00    +0.000 A 
ATOM     10  N   UNL     1       4.518   4.419  16.710  0.00  0.00    +0.000 N 
ENDROOT
BRANCH  10  11
ATOM     11  C   UNL     1       3.188   3.878  16.939  0.00  0.00    +0.000 C 
ATOM     12  O   UNL     1       2.390   4.901  17.609  0.00  0.00    +0.000 OA
ATOM     13  C   UNL     1       1.844   4.272  18.764  0.00  0.00    +0.000 C 
ATOM     14  C   UNL     1       1.586   5.138  19.982  0.00  0.00    +0.000 C 
ATOM     15  O   UNL     1       0.998   4.299  20.968  0.00  0.00    +0.000 OA
ATOM     16  P   UNL     1       1.888   3.030  21.494  0.00  0.00    +0.000 P 
ATOM     17  O   UNL     1       0.991   2.099  22.263  0.00  0.00    +0.000 OA
ATOM     18  O   UNL     1       3.200   3.558  22.009  0.00  0.00    +0.000 OA
ATOM     19  O   UNL     1       2.198   2.311  20.049  0.00  0.00    +0.000 OA
ATOM     20  C   UNL     1       2.828   3.190  19.151  0.00  0.00    +0.000 C 
ATOM     21  C   UNL     1       3.149   2.599  17.802  0.00  0.00    +0.000 C 
BRANCH  21  22
ATOM     22  O   UNL     1       2.075   1.717  17.383  0.00  0.00    +0.000 OA
ATOM     23  H   UNL     1       2.556   0.951  16.990  0.00  0.00    +0.000 HD
ENDBRANCH  21  22
ENDBRANCH  10  11
BRANCH   1  24
ATOM     24  N   UNL     1       8.291   5.915  14.336  0.00  0.00    +0.000 N 
ATOM     25  H   UNL     1       8.151   6.840  14.722  0.00  0.00    +0.000 HD
ATOM     26  H   UNL     1       8.791   5.842  13.461  0.00  0.00    +0.000 HD
ENDBRANCH   1  24
TORSDOF 3
ENDMDL
MODEL 4
REMARK VINA RESULT:      -6.2      6.033      8.155
REMARK  Name = 
REMARK  3 active torsions:
REMARK  status: ('A' for Active; 'I' for Inactive)
REMARK    1  A    between atoms: N_1  and  C_2
REMARK    2  A    between atoms: N_11  and  C_12
REMARK    3  A    between atoms: C_22  and  O_23
REMARK                            x       y       z     vdW  Elec       q    Type
REMARK                         _______ _______ _______ _____ _____    ______ ____
ROOT
ATOM      1  C   UNL     1      -1.109  10.046  17.592  0.00  0.00    +0.000 A 
ATOM      2  N   UNL     1      -1.961   9.735  16.597  0.00  0.00    +0.000 NA
ATOM      3  C   UNL     1      -3.199  10.259  16.634  0.00  0.00    +0.000 A 
ATOM      4  N   UNL     1      -3.730  11.095  17.546  0.00  0.00    +0.000 NA
ATOM      5  C   UNL     1      -2.851  11.357  18.533  0.00  0.00    +0.000 A 
ATOM      6  C   UNL     1      -1.551  10.866  18.638  0.00  0.00    +0.000 A 
ATOM      7  C   UNL     1      -1.032  11.393  19.843  0.00  0.00    +0.000 A 
ATOM      8 BR   UNL     1       0.688  11.079  20.524  0.00  0.00    +0.000 Br
ATOM      9  C   UNL     1      -1.985  12.184  20.434  0.00  0.00    +0.000 A 
ATOM     10  N   UNL     1      -3.079  12.195  19.601  0.00  0.00    +0.000 N 
ENDROOT
BRANCH  10  11
ATOM     11  C   UNL     1      -4.254  13.041  19.739  0.00  0.00    +0.000 C 
ATOM     12  O   UNL     1      -3.933  14.114  20.676  0.00  0.00    +0.000 OA
ATOM     13  C   UNL     1      -4.965  14.095  21.657  0.00  0.00    +0.000 C 
ATOM     14  C   UNL     1      -4.609  14.540  23.062  0.00  0.00    +0.000 C 
ATOM     15  O   UNL     1      -5.805  14.482  23.829  0.00  0.00    +0.000 OA
ATOM     16  P   UNL     1      -6.520  13.018  23.984  0.00  0.00    +0.000 P 
ATOM     17  O   UNL     1      -7.908  13.216  24.531  0.00  0.00    +0.000 OA
ATOM     18  O   UNL     1      -5.512  12.062  24.563  0.00  0.00    +0.000 OA
ATOM     19  O   UNL     1      -6.682  12.635  22.394  0.00  0.00    +0.000 OA
ATOM     20  C   UNL     1      -5.448  12.663  21.720  0.00  0.00    +0.000 C 
ATOM     21  C   UNL     1      -5.516  12.318  20.255  0.00  0.00    +0.000 C 
BRANCH  21  22
ATOM     22  O   UNL     1      -6.719  12.882  19.672  0.00  0.00    +0.000 OA
ATOM     23  H   UNL     1      -6.670  12.588  18.731  0.00  0.00    +0.000 HD
ENDBRANCH  21  22
ENDBRANCH  10  11
BRANCH   1  24
ATOM     24  N   UNL     1       0.177   9.529  17.504  0.00  0.00    +0.000 N 
ATOM     25  H   UNL     1       0.691   9.615  18.372  0.00  0.00    +0.000 HD
ATOM     26  H   UNL     1       0.673   9.718  16.644  0.00  0.00    +0.000 HD
ENDBRANCH   1  24
TORSDOF 3
ENDMDL
MODEL 5
REMARK VINA RESULT:      -6.1      9.091     10.031
REMARK  Name = 
REMARK  3 active torsions:
REMARK  status: ('A' for Active; 'I' for Inactive)
REMARK    1  A    between atoms: N_1  and  C_2
REMARK    2  A    between atoms: N_11  and  C_12
REMARK    3  A    between atoms: C_22  and  O_23
REMARK                            x       y       z     vdW  Elec       q    Type
REMARK                         _______ _______ _______ _____ _____    ______ ____
ROOT
ATOM      1  C   UNL     1      11.429  13.061  17.535  0.00  0.00    +0.000 A 
ATOM      2  N   UNL     1      12.027  14.079  16.888  0.00  0.00    +0.000 NA
ATOM      3  C   UNL     1      11.515  15.314  17.039  0.00  0.00    +0.000 A 
ATOM      4  N   UNL     1      10.462  15.702  17.782  0.00  0.00    +0.000 NA
ATOM      5  C   UNL     1       9.883  14.647  18.389  0.00  0.00    +0.000 A 
ATOM      6  C   UNL     1      10.287  13.316  18.302  0.00  0.00    +0.000 A 
ATOM      7  C   UNL     1       9.366  12.578  19.082  0.00  0.00    +0.000 A 
ATOM      8 BR   UNL     1       9.396  10.721  19.346  0.00  0.00    +0.000 Br
ATOM      9  C   UNL     1       8.449  13.441  19.628  0.00  0.00    +0.000 A 
ATOM     10  N   UNL     1       8.801  14.711  19.237  0.00  0.00    +0.000 N 
ENDROOT
BRANCH  10  11
ATOM     11  C   UNL     1       8.217  15.951  19.724  0.00  0.00    +0.000 C 
ATOM     12  O   UNL     1       7.342  15.630  20.848  0.00  0.00    +0.000 OA
ATOM     13  C   UNL     1       6.087  16.231  20.547  0.00  0.00    +0.000 C 
ATOM     14  C   UNL     1       4.837  15.556  21.080  0.00  0.00    +0.000 C 
ATOM     15  O   UNL     1       3.734  16.367  20.695  0.00  0.00    +0.000 OA
ATOM     16  P   UNL     1       3.487  16.577  19.091  0.00  0.00    +0.000 P 
ATOM     17  O   UNL     1       2.507  17.701  18.898  0.00  0.00    +0.000 OA
ATOM     18  O   UNL     1       3.352  15.219  18.455  0.00  0.00    +0.000 OA
ATOM     19  O   UNL     1       4.968  17.154  18.671  0.00  0.00    +0.000 OA
ATOM     20  C   UNL     1       5.998  16.270  19.037  0.00  0.00    +0.000 C 
ATOM     21  C   UNL     1       7.388  16.730  18.680  0.00  0.00    +0.000 C 
BRANCH  21  22
ATOM     22  O   UNL     1       7.500  18.162  18.885  0.00  0.00    +0.000 OA
ATOM     23  H   UNL     1       7.622  18.509  17.970  0.00  0.00    +0.000 HD
ENDBRANCH  21  22
ENDBRANCH  10  11
BRANCH   1  24
ATOM     24  N   UNL     1      12.007  11.805  17.399  0.00  0.00    +0.000 N 
ATOM     25  H   UNL     1      12.881  11.832  16.891  0.00  0.00    +0.000 HD
ATOM     26  H   UNL     1      11.372  11.044  17.200  0.00  0.00    +0.000 HD
ENDBRANCH   1  24
TORSDOF 3
ENDMDL
MODEL 6
REMARK VINA RESULT:      -6.1      4.652      6.641
REMARK  Name = 
REMARK  3 active torsions:
REMARK  status: ('A' for Active; 'I' for Inactive)
REMARK    1  A    between atoms: N_1  and  C_2
REMARK    2  A    between atoms: N_11  and  C_12
REMARK    3  A    between atoms: C_22  and  O_23
REMARK                            x       y       z     vdW  Elec       q    Type
REMARK                         _______ _______ _______ _____ _____    ______ ____
ROOT
ATOM      1  C   UNL     1       1.113  10.061  19.235  0.00  0.00    +0.000 A 
ATOM      2  N   UNL     1       1.634  10.284  18.014  0.00  0.00    +0.000 NA
ATOM      3  C   UNL     1       2.340   9.296  17.433  0.00  0.00    +0.000 A 
ATOM      4  N   UNL     1       2.599   8.062  17.904  0.00  0.00    +0.000 NA
ATOM      5  C   UNL     1       2.080   7.894  19.137  0.00  0.00    +0.000 A 
ATOM      6  C   UNL     1       1.354   8.834  19.866  0.00  0.00    +0.000 A 
ATOM      7  C   UNL     1       1.046   8.216  21.100  0.00  0.00    +0.000 A 
ATOM      8 BR   UNL     1       0.077   8.997  22.504  0.00  0.00    +0.000 Br
ATOM      9  C   UNL     1       1.560   6.944  21.105  0.00  0.00    +0.000 A 
ATOM     10  N   UNL     1       2.151   6.738  19.880  0.00  0.00    +0.000 N 
ENDROOT
BRANCH  10  11
ATOM     11  C   UNL     1       2.666   5.474  19.378  0.00  0.00    +0.000 C 
ATOM     12  O   UNL     1       3.909   5.177  20.085  0.00  0.00    +0.000 OA
ATOM     13  C   UNL     1       4.879   4.921  19.074  0.00  0.00    +0.000 C 
ATOM     14  C   UNL     1       6.323   5.269  19.381  0.00  0.00    +0.000 C 
ATOM     15  O   UNL     1       7.091   4.874  18.250  0.00  0.00    +0.000 OA
ATOM     16  P   UNL     1       6.743   5.598  16.824  0.00  0.00    +0.000 P 
ATOM     17  O   UNL     1       7.413   4.828  15.719  0.00  0.00    +0.000 OA
ATOM     18  O   UNL     1       6.863   7.086  17.011  0.00  0.00    +0.000 OA
ATOM     19  O   UNL     1       5.138   5.255  16.741  0.00  0.00    +0.000 OA
ATOM     20  C   UNL     1       4.443   5.725  17.869  0.00  0.00    +0.000 C 
ATOM     21  C   UNL     1       2.961   5.452  17.863  0.00  0.00    +0.000 C 
BRANCH  21  22
ATOM     22  O   UNL     1       2.706   4.139  17.299  0.00  0.00    +0.000 OA
ATOM     23  H   UNL     1       1.735   4.156  17.124  0.00  0.00    +0.000 HD
ENDBRANCH  21  22
ENDBRANCH  10  11
BRANCH   1  24
ATOM     24  N   UNL     1       0.351  11.080  19.789  0.00  0.00    +0.000 N 
ATOM     25  H   UNL     1      -0.030  11.705  19.090  0.00  0.00    +0.000 HD
ATOM     26  H   UNL     1       0.710  11.491  20.640  0.00  0.00    +0.000 HD
ENDBRANCH   1  24
TORSDOF 3
ENDMDL
MODEL 7
REMARK VINA RESULT:      -6.0      4.756      7.217
REMARK  Name = 
REMARK  3 active torsions:
REMARK  status: ('A' for Active; 'I' for Inactive)
REMARK    1  A    between atoms: N_1  and  C_2
REMARK    2  A    between atoms: N_11  and  C_12
REMARK    3  A    between atoms: C_22  and  O_23
REMARK                            x       y       z     vdW  Elec       q    Type
REMARK                         _______ _______ _______ _____ _____    ______ ____
ROOT
ATOM      1  C   UNL     1       0.838   9.906  20.728  0.00  0.00    +0.000 A 
ATOM      2  N   UNL     1       0.307   9.254  21.778  0.00  0.00    +0.000 NA
ATOM      3  C   UNL     1       0.460   7.919  21.841  0.00  0.00    +0.000 A 
ATOM      4  N   UNL     1       1.105   7.107  20.982  0.00  0.00    +0.000 NA
ATOM      5  C   UNL     1       1.598   7.800  19.936  0.00  0.00    +0.000 A 
ATOM      6  C   UNL     1       1.491   9.174  19.729  0.00  0.00    +0.000 A 
ATOM      7  C   UNL     1       2.134   9.433  18.496  0.00  0.00    +0.000 A 
ATOM      8 BR   UNL     1       2.313  11.115  17.685  0.00  0.00    +0.000 Br
ATOM      9  C   UNL     1       2.620   8.253  17.988  0.00  0.00    +0.000 A 
ATOM     10  N   UNL     1       2.329   7.266  18.900  0.00  0.00    +0.000 N 
ENDROOT
BRANCH  10  11
ATOM     11  C   UNL     1       2.808   5.893  18.861  0.00  0.00    +0.000 C 
ATOM     12  O   UNL     1       3.931   5.779  19.788  0.00  0.00    +0.000 OA
ATOM     13  C   UNL     1       4.996   5.202  19.039  0.00  0.00    +0.000 C 
ATOM     14  C   UNL     1       6.413   5.576  19.428  0.00  0.00    +0.000 C 
ATOM     15  O   UNL     1       7.283   4.839  18.578  0.00  0.00    +0.000 OA
ATOM     16  P   UNL     1       7.165   5.118  16.969  0.00  0.00    +0.000 P 
ATOM     17  O   UNL     1       7.907   4.034  16.237  0.00  0.00    +0.000 OA
ATOM     18  O   UNL     1       7.369   6.591  16.732  0.00  0.00    +0.000 OA
ATOM     19  O   UNL     1       5.561   4.820  16.768  0.00  0.00    +0.000 OA
ATOM     20  C   UNL     1       4.770   5.627  17.605  0.00  0.00    +0.000 C 
ATOM     21  C   UNL     1       3.283   5.413  17.474  0.00  0.00    +0.000 C 
BRANCH  21  22
ATOM     22  O   UNL     1       3.004   4.002  17.284  0.00  0.00    +0.000 OA
ATOM     23  H   UNL     1       2.024   3.954  17.378  0.00  0.00    +0.000 HD
ENDBRANCH  21  22
ENDBRANCH  10  11
BRANCH   1  24
ATOM     24  N   UNL     1       0.705  11.289  20.713  0.00  0.00    +0.000 N 
ATOM     25  H   UNL     1      -0.089  11.608  21.252  0.00  0.00    +0.000 HD
ATOM     26  H   UNL     1       0.886  11.743  19.828  0.00  0.00    +0.000 HD
ENDBRANCH   1  24
TORSDOF 3
ENDMDL
MODEL 8
REMARK VINA RESULT:      -6.0      4.763      6.586
REMARK  Name = 
REMARK  3 active torsions:
REMARK  status: ('A' for Active; 'I' for Inactive)
REMARK    1  A    between atoms: N_1  and  C_2
REMARK    2  A    between atoms: N_11  and  C_12
REMARK    3  A    between atoms: C_22  and  O_23
REMARK                            x       y       z     vdW  Elec       q    Type
REMARK                         _______ _______ _______ _____ _____    ______ ____
ROOT
ATOM      1  C   UNL     1       1.410   9.425  18.772  0.00  0.00    +0.000 A 
ATOM      2  N   UNL     1       2.118   9.570  17.636  0.00  0.00    +0.000 NA
ATOM      3  C   UNL     1       2.951   8.578  17.275  0.00  0.00    +0.000 A 
ATOM      4  N   UNL     1       3.180   7.406  17.898  0.00  0.00    +0.000 NA
ATOM      5  C   UNL     1       2.469   7.316  19.040  0.00  0.00    +0.000 A 
ATOM      6  C   UNL     1       1.593   8.274  19.547  0.00  0.00    +0.000 A 
ATOM      7  C   UNL     1       1.108   7.749  20.768  0.00  0.00    +0.000 A 
ATOM      8 BR   UNL     1      -0.114   8.592  21.915  0.00  0.00    +0.000 Br
ATOM      9  C   UNL     1       1.667   6.513  20.978  0.00  0.00    +0.000 A 
ATOM     10  N   UNL     1       2.462   6.235  19.891  0.00  0.00    +0.000 N 
ENDROOT
BRANCH  10  11
ATOM     11  C   UNL     1       3.107   4.964  19.602  0.00  0.00    +0.000 C 
ATOM     12  O   UNL     1       4.548   5.142  19.753  0.00  0.00    +0.000 OA
ATOM     13  C   UNL     1       5.127   4.662  18.542  0.00  0.00    +0.000 C 
ATOM     14  C   UNL     1       6.420   5.305  18.078  0.00  0.00    +0.000 C 
ATOM     15  O   UNL     1       6.817   4.625  16.894  0.00  0.00    +0.000 OA
ATOM     16  P   UNL     1       5.793   4.693  15.618  0.00  0.00    +0.000 P 
ATOM     17  O   UNL     1       6.219   3.666  14.605  0.00  0.00    +0.000 OA
ATOM     18  O   UNL     1       5.537   6.141  15.298  0.00  0.00    +0.000 OA
ATOM     19  O   UNL     1       4.434   4.117  16.341  0.00  0.00    +0.000 OA
ATOM     20  C   UNL     1       4.080   4.875  17.471  0.00  0.00    +0.000 C 
ATOM     21  C   UNL     1       2.839   4.409  18.187  0.00  0.00    +0.000 C 
BRANCH  21  22
ATOM     22  O   UNL     1       2.790   2.959  18.193  0.00  0.00    +0.000 OA
ATOM     23  H   UNL     1       1.956   2.766  18.684  0.00  0.00    +0.000 HD
ENDBRANCH  21  22
ENDBRANCH  10  11
BRANCH   1  24
ATOM     24  N   UNL     1       0.523  10.444  19.095  0.00  0.00    +0.000 N 
ATOM     25  H   UNL     1       0.940  11.362  19.012  0.00  0.00    +0.000 HD
ATOM     26  H   UNL     1      -0.081  10.272  19.887  0.00  0.00    +0.000 HD
ENDBRANCH   1  24
TORSDOF 3
ENDMDL
MODEL 9
REMARK VINA RESULT:      -5.9      5.361      6.740
REMARK  Name = 
REMARK  3 active torsions:
REMARK  status: ('A' for Active; 'I' for Inactive)
REMARK    1  A    between atoms: N_1  and  C_2
REMARK    2  A    between atoms: N_11  and  C_12
REMARK    3  A    between atoms: C_22  and  O_23
REMARK                            x       y       z     vdW  Elec       q    Type
REMARK                         _______ _______ _______ _____ _____    ______ ____
ROOT
ATOM      1  C   UNL     1       6.946   6.218  17.179  0.00  0.00    +0.000 A 
ATOM      2  N   UNL     1       6.672   6.496  18.468  0.00  0.00    +0.000 NA
ATOM      3  C   UNL     1       5.729   5.764  19.089  0.00  0.00    +0.000 A 
ATOM      4  N   UNL     1       5.001   4.743  18.598  0.00  0.00    +0.000 NA
ATOM      5  C   UNL     1       5.292   4.518  17.302  0.00  0.00    +0.000 A 
ATOM      6  C   UNL     1       6.221   5.213  16.529  0.00  0.00    +0.000 A 
ATOM      7  C   UNL     1       6.158   4.640  15.237  0.00  0.00    +0.000 A 
ATOM      8 BR   UNL     1       7.184   5.163  13.755  0.00  0.00    +0.000 Br
ATOM      9  C   UNL     1       5.229   3.629  15.240  0.00  0.00    +0.000 A 
ATOM     10  N   UNL     1       4.739   3.530  16.521  0.00  0.00    +0.000 N 
ENDROOT
BRANCH  10  11
ATOM     11  C   UNL     1       3.867   2.481  17.026  0.00  0.00    +0.000 C 
ATOM     12  O   UNL     1       2.498   2.991  17.026  0.00  0.00    +0.000 OA
ATOM     13  C   UNL     1       2.002   2.768  18.343  0.00  0.00    +0.000 C 
ATOM     14  C   UNL     1       0.969   3.741  18.879  0.00  0.00    +0.000 C 
ATOM     15  O   UNL     1       0.598   3.279  20.171  0.00  0.00    +0.000 OA
ATOM     16  P   UNL     1       1.779   3.202  21.302  0.00  0.00    +0.000 P 
ATOM     17  O   UNL     1       1.276   2.397  22.469  0.00  0.00    +0.000 OA
ATOM     18  O   UNL     1       2.403   4.566  21.423  0.00  0.00    +0.000 OA
ATOM     19  O   UNL     1       2.853   2.255  20.495  0.00  0.00    +0.000 OA
ATOM     20  C   UNL     1       3.209   2.809  19.253  0.00  0.00    +0.000 C 
ATOM     21  C   UNL     1       4.197   1.998  18.454  0.00  0.00    +0.000 C 
BRANCH  21  22
ATOM     22  O   UNL     1       3.910   0.584  18.608  0.00  0.00    +0.000 OA
ATOM     23  H   UNL     1       3.124   0.451  18.026  0.00  0.00    +0.000 HD
ENDBRANCH  21  22
ENDBRANCH  10  11
BRANCH   1  24
ATOM     24  N   UNL     1       7.956   6.958  16.578  0.00  0.00    +0.000 N 
ATOM     25  H   UNL     1       8.107   6.696  15.612  0.00  0.00    +0.000 HD
ATOM     26  H   UNL     1       8.771   7.141  17.147  0.00  0.00    +0.000 HD
ENDBRANCH   1  24
TORSDOF 3
ENDMDL
