MODEL 1
REMARK VINA RESULT:      -7.2      0.000      0.000
REMARK  Name = 
REMARK  4 active torsions:
REMARK  status: ('A' for Active; 'I' for Inactive)
REMARK    1  A    between atoms: C_1  and  N_2
REMARK    2  A    between atoms: N_5  and  C_6
REMARK    3  A    between atoms: C_17  and  C_18
REMARK    4  A    between atoms: C_25  and  C_26
REMARK                            x       y       z     vdW  Elec       q    Type
REMARK                         _______ _______ _______ _____ _____    ______ ____
ROOT
ATOM      1  C   UNL     1      -3.887  17.025  24.536  0.00  0.00    +0.000 C 
ATOM      2  N   UNL     1      -4.058  15.720  23.965  0.00  0.00    +0.000 N 
ATOM      3  C   UNL     1      -5.261  15.312  23.353  0.00  0.00    +0.000 A 
ATOM      4  O   UNL     1      -6.275  15.993  23.298  0.00  0.00    +0.000 OA
ATOM      5  N   UNL     1      -5.005  14.040  22.764  0.00  0.00    +0.000 N 
ATOM      6  C   UNL     1      -3.650  13.711  23.014  0.00  0.00    +0.000 A 
ATOM      7  N   UNL     1      -3.010  12.607  22.602  0.00  0.00    +0.000 NA
ATOM      8  C   UNL     1      -1.703  12.540  22.895  0.00  0.00    +0.000 A 
ATOM      9  N   UNL     1      -1.041  13.485  23.588  0.00  0.00    +0.000 NA
ATOM     10  C   UNL     1      -1.737  14.585  24.005  0.00  0.00    +0.000 A 
ATOM     11  C   UNL     1      -3.069  14.742  23.736  0.00  0.00    +0.000 A 
ENDROOT
BRANCH   5  12
ATOM     12  C   UNL     1      -5.800  13.472  21.729  0.00  0.00    +0.000 A 
ATOM     13  C   UNL     1      -5.464  13.720  20.372  0.00  0.00    +0.000 A 
ATOM     14  C   UNL     1      -5.852  12.850  19.346  0.00  0.00    +0.000 A 
ATOM     15  C   UNL     1      -6.571  11.744  19.717  0.00  0.00    +0.000 A 
ATOM     16  C   UNL     1      -7.049  11.594  20.996  0.00  0.00    +0.000 A 
ATOM     17  C   UNL     1      -6.742  12.474  22.006  0.00  0.00    +0.000 A 
ATOM     18  O   UNL     1      -7.650  10.382  21.182  0.00  0.00    +0.000 OA
ATOM     19  C   UNL     1      -7.102   9.701  20.037  0.00  0.00    +0.000 C 
ATOM     20  O   UNL     1      -6.778  10.622  18.971  0.00  0.00    +0.000 OA
ENDBRANCH   5  12
BRANCH   8  21
ATOM     21  C   UNL     1      -0.930  11.387  22.389  0.00  0.00    +0.000 A 
ATOM     22  C   UNL     1      -0.277  11.415  21.141  0.00  0.00    +0.000 A 
ATOM     23  C   UNL     1       0.463  10.322  20.676  0.00  0.00    +0.000 A 
ATOM     24  C   UNL     1       0.567   9.170  21.447  0.00  0.00    +0.000 A 
ATOM     25  C   UNL     1      -0.064   9.111  22.686  0.00  0.00    +0.000 A 
ATOM     26  C   UNL     1      -0.799  10.206  23.148  0.00  0.00    +0.000 A 
ENDBRANCH   8  21
BRANCH  10  27
ATOM     27  C   UNL     1      -0.868  15.561  24.753  0.00  0.00    +0.000 C 
ATOM     28  N   UNL     1      -0.271  16.524  23.977  0.00  0.00    +0.000 N 
ATOM     29  O   UNL     1      -0.676  15.539  25.958  0.00  0.00    +0.000 OA
ATOM     30  H   UNL     1      -0.460  16.566  22.983  0.00  0.00    +0.000 HD
ATOM     31  H   UNL     1       0.298  17.231  24.432  0.00  0.00    +0.000 HD
ENDBRANCH  10  27
TORSDOF 3
ENDMDL
MODEL 2
REMARK VINA RESULT:      -7.1      9.076     11.703
REMARK  Name = 
REMARK  4 active torsions:
REMARK  status: ('A' for Active; 'I' for Inactive)
REMARK    1  A    between atoms: C_1  and  N_2
REMARK    2  A    between atoms: N_5  and  C_6
REMARK    3  A    between atoms: C_17  and  C_18
REMARK    4  A    between atoms: C_25  and  C_26
REMARK                            x       y       z     vdW  Elec       q    Type
REMARK                         _______ _______ _______ _____ _____    ______ ____
ROOT
ATOM      1  C   UNL     1       4.001  16.086  21.344  0.00  0.00    +0.000 C 
ATOM      2  N   UNL     1       5.147  15.347  21.790  0.00  0.00    +0.000 N 
ATOM      3  C   UNL     1       5.219  14.760  23.070  0.00  0.00    +0.000 A 
ATOM      4  O   UNL     1       4.357  14.867  23.930  0.00  0.00    +0.000 OA
ATOM      5  N   UNL     1       6.412  13.981  23.091  0.00  0.00    +0.000 N 
ATOM      6  C   UNL     1       7.028  14.095  21.821  0.00  0.00    +0.000 A 
ATOM      7  N   UNL     1       8.158  13.490  21.427  0.00  0.00    +0.000 NA
ATOM      8  C   UNL     1       8.517  13.688  20.150  0.00  0.00    +0.000 A 
ATOM      9  N   UNL     1       7.833  14.466  19.291  0.00  0.00    +0.000 NA
ATOM     10  C   UNL     1       6.697  15.079  19.741  0.00  0.00    +0.000 A 
ATOM     11  C   UNL     1       6.249  14.919  21.023  0.00  0.00    +0.000 A 
ENDROOT
BRANCH   5  12
ATOM     12  C   UNL     1       6.653  12.927  24.017  0.00  0.00    +0.000 A 
ATOM     13  C   UNL     1       7.574  13.124  25.080  0.00  0.00    +0.000 A 
ATOM     14  C   UNL     1       7.505  12.379  26.263  0.00  0.00    +0.000 A 
ATOM     15  C   UNL     1       6.502  11.449  26.346  0.00  0.00    +0.000 A 
ATOM     16  C   UNL     1       5.726  11.131  25.259  0.00  0.00    +0.000 A 
ATOM     17  C   UNL     1       5.823  11.800  24.062  0.00  0.00    +0.000 A 
ATOM     18  O   UNL     1       4.724  10.259  25.579  0.00  0.00    +0.000 OA
ATOM     19  C   UNL     1       4.741  10.441  27.007  0.00  0.00    +0.000 C 
ATOM     20  O   UNL     1       6.045  10.847  27.481  0.00  0.00    +0.000 OA
ENDBRANCH   5  12
BRANCH   8  21
ATOM     21  C   UNL     1       9.706  12.975  19.638  0.00  0.00    +0.000 A 
ATOM     22  C   UNL     1      10.787  12.629  20.473  0.00  0.00    +0.000 A 
ATOM     23  C   UNL     1      11.903  11.944  19.982  0.00  0.00    +0.000 A 
ATOM     24  C   UNL     1      11.969  11.589  18.639  0.00  0.00    +0.000 A 
ATOM     25  C   UNL     1      10.917  11.913  17.787  0.00  0.00    +0.000 A 
ATOM     26  C   UNL     1       9.803  12.595  18.284  0.00  0.00    +0.000 A 
ENDBRANCH   8  21
BRANCH  10  27
ATOM     27  C   UNL     1       6.030  15.902  18.670  0.00  0.00    +0.000 C 
ATOM     28  N   UNL     1       5.299  15.187  17.755  0.00  0.00    +0.000 N 
ATOM     29  O   UNL     1       6.107  17.117  18.580  0.00  0.00    +0.000 OA
ATOM     30  H   UNL     1       5.204  14.183  17.851  0.00  0.00    +0.000 HD
ATOM     31  H   UNL     1       4.797  15.693  17.031  0.00  0.00    +0.000 HD
ENDBRANCH  10  27
TORSDOF 3
ENDMDL
MODEL 3
REMARK VINA RESULT:      -7.1      8.531     11.918
REMARK  Name = 
REMARK  4 active torsions:
REMARK  status: ('A' for Active; 'I' for Inactive)
REMARK    1  A    between atoms: C_1  and  N_2
REMARK    2  A    between atoms: N_5  and  C_6
REMARK    3  A    between atoms: C_17  and  C_18
REMARK    4  A    between atoms: C_25  and  C_26
REMARK                            x       y       z     vdW  Elec       q    Type
REMARK                         _______ _______ _______ _____ _____    ______ ____
ROOT
ATOM      1  C   UNL     1       2.293   3.097  21.590  0.00  0.00    +0.000 C 
ATOM      2  N   UNL     1       2.431   3.992  20.477  0.00  0.00    +0.000 N 
ATOM      3  C   UNL     1       1.817   5.261  20.445  0.00  0.00    +0.000 A 
ATOM      4  O   UNL     1       1.076   5.693  21.315  0.00  0.00    +0.000 OA
ATOM      5  N   UNL     1       2.310   5.918  19.280  0.00  0.00    +0.000 N 
ATOM      6  C   UNL     1       3.224   5.045  18.642  0.00  0.00    +0.000 A 
ATOM      7  N   UNL     1       3.925   5.301  17.529  0.00  0.00    +0.000 NA
ATOM      8  C   UNL     1       4.789   4.350  17.144  0.00  0.00    +0.000 A 
ATOM      9  N   UNL     1       4.949   3.180  17.788  0.00  0.00    +0.000 NA
ATOM     10  C   UNL     1       4.201   2.952  18.908  0.00  0.00    +0.000 A 
ATOM     11  C   UNL     1       3.307   3.874  19.380  0.00  0.00    +0.000 A 
ENDROOT
BRANCH   5  12
ATOM     12  C   UNL     1       2.267   7.328  19.090  0.00  0.00    +0.000 A 
ATOM     13  C   UNL     1       2.337   7.860  17.775  0.00  0.00    +0.000 A 
ATOM     14  C   UNL     1       1.824   9.125  17.463  0.00  0.00    +0.000 A 
ATOM     15  C   UNL     1       1.248   9.825  18.491  0.00  0.00    +0.000 A 
ATOM     16  C   UNL     1       1.338   9.394  19.792  0.00  0.00    +0.000 A 
ATOM     17  C   UNL     1       1.902   8.188  20.133  0.00  0.00    +0.000 A 
ATOM     18  O   UNL     1       0.615  10.178  20.645  0.00  0.00    +0.000 OA
ATOM     19  C   UNL     1      -0.222  10.827  19.669  0.00  0.00    +0.000 C 
ATOM     20  O   UNL     1       0.419  10.901  18.377  0.00  0.00    +0.000 OA
ENDBRANCH   5  12
BRANCH   8  21
ATOM     21  C   UNL     1       5.650   4.618  15.973  0.00  0.00    +0.000 A 
ATOM     22  C   UNL     1       6.767   5.472  16.047  0.00  0.00    +0.000 A 
ATOM     23  C   UNL     1       7.584   5.710  14.936  0.00  0.00    +0.000 A 
ATOM     24  C   UNL     1       7.302   5.100  13.719  0.00  0.00    +0.000 A 
ATOM     25  C   UNL     1       6.206   4.249  13.612  0.00  0.00    +0.000 A 
ATOM     26  C   UNL     1       5.396   4.011  14.726  0.00  0.00    +0.000 A 
ENDBRANCH   8  21
BRANCH  10  27
ATOM     27  C   UNL     1       4.496   1.612  19.530  0.00  0.00    +0.000 C 
ATOM     28  N   UNL     1       4.039   0.527  18.824  0.00  0.00    +0.000 N 
ATOM     29  O   UNL     1       5.093   1.452  20.583  0.00  0.00    +0.000 OA
ATOM     30  H   UNL     1       3.578   0.658  17.932  0.00  0.00    +0.000 HD
ATOM     31  H   UNL     1       4.240  -0.403  19.177  0.00  0.00    +0.000 HD
ENDBRANCH  10  27
TORSDOF 3
ENDMDL
MODEL 4
REMARK VINA RESULT:      -6.9      3.508      6.315
REMARK  Name = 
REMARK  4 active torsions:
REMARK  status: ('A' for Active; 'I' for Inactive)
REMARK    1  A    between atoms: C_1  and  N_2
REMARK    2  A    between atoms: N_5  and  C_6
REMARK    3  A    between atoms: C_17  and  C_18
REMARK    4  A    between atoms: C_25  and  C_26
REMARK                            x       y       z     vdW  Elec       q    Type
REMARK                         _______ _______ _______ _____ _____    ______ ____
ROOT
ATOM      1  C   UNL     1      -5.442  14.145  23.160  0.00  0.00    +0.000 C 
ATOM      2  N   UNL     1      -4.362  13.607  22.383  0.00  0.00    +0.000 N 
ATOM      3  C   UNL     1      -3.104  13.302  22.941  0.00  0.00    +0.000 A 
ATOM      4  O   UNL     1      -2.794  13.513  24.104  0.00  0.00    +0.000 OA
ATOM      5  N   UNL     1      -2.359  12.642  21.922  0.00  0.00    +0.000 N 
ATOM      6  C   UNL     1      -3.184  12.542  20.775  0.00  0.00    +0.000 A 
ATOM      7  N   UNL     1      -2.861  11.962  19.610  0.00  0.00    +0.000 NA
ATOM      8  C   UNL     1      -3.830  11.922  18.684  0.00  0.00    +0.000 A 
ATOM      9  N   UNL     1      -5.056  12.450  18.859  0.00  0.00    +0.000 NA
ATOM     10  C   UNL     1      -5.335  13.049  20.054  0.00  0.00    +0.000 A 
ATOM     11  C   UNL     1      -4.411  13.120  21.061  0.00  0.00    +0.000 A 
ENDROOT
BRANCH   5  12
ATOM     12  C   UNL     1      -1.222  11.823  22.177  0.00  0.00    +0.000 A 
ATOM     13  C   UNL     1      -1.265  10.872  23.231  0.00  0.00    +0.000 A 
ATOM     14  C   UNL     1      -0.441   9.741  23.237  0.00  0.00    +0.000 A 
ATOM     15  C   UNL     1       0.409   9.594  22.173  0.00  0.00    +0.000 A 
ATOM     16  C   UNL     1       0.582  10.595  21.248  0.00  0.00    +0.000 A 
ATOM     17  C   UNL     1      -0.165  11.749  21.262  0.00  0.00    +0.000 A 
ATOM     18  O   UNL     1       1.393  10.210  20.219  0.00  0.00    +0.000 OA
ATOM     19  C   UNL     1       1.321   8.786  20.420  0.00  0.00    +0.000 C 
ATOM     20  O   UNL     1       1.056   8.453  21.801  0.00  0.00    +0.000 OA
ENDBRANCH   5  12
BRANCH   8  21
ATOM     21  C   UNL     1      -3.558  11.217  17.415  0.00  0.00    +0.000 A 
ATOM     22  C   UNL     1      -4.315  11.454  16.251  0.00  0.00    +0.000 A 
ATOM     23  C   UNL     1      -4.042  10.790  15.049  0.00  0.00    +0.000 A 
ATOM     24  C   UNL     1      -3.003   9.868  14.982  0.00  0.00    +0.000 A 
ATOM     25  C   UNL     1      -2.233   9.613  16.113  0.00  0.00    +0.000 A 
ATOM     26  C   UNL     1      -2.508  10.281  17.310  0.00  0.00    +0.000 A 
ENDBRANCH   8  21
BRANCH  10  27
ATOM     27  C   UNL     1      -6.744  13.579  20.113  0.00  0.00    +0.000 C 
ATOM     28  N   UNL     1      -6.904  14.862  19.649  0.00  0.00    +0.000 N 
ATOM     29  O   UNL     1      -7.704  12.954  20.534  0.00  0.00    +0.000 OA
ATOM     30  H   UNL     1      -6.115  15.366  19.265  0.00  0.00    +0.000 HD
ATOM     31  H   UNL     1      -7.839  15.259  19.631  0.00  0.00    +0.000 HD
ENDBRANCH  10  27
TORSDOF 3
ENDMDL
MODEL 5
REMARK VINA RESULT:      -6.8      1.660      1.947
REMARK  Name = 
REMARK  4 active torsions:
REMARK  status: ('A' for Active; 'I' for Inactive)
REMARK    1  A    between atoms: C_1  and  N_2
REMARK    2  A    between atoms: N_5  and  C_6
REMARK    3  A    between atoms: C_17  and  C_18
REMARK    4  A    between atoms: C_25  and  C_26
REMARK                            x       y       z     vdW  Elec       q    Type
REMARK                         _______ _______ _______ _____ _____    ______ ____
ROOT
ATOM      1  C   UNL     1      -4.823  17.199  21.862  0.00  0.00    +0.000 C 
ATOM      2  N   UNL     1      -4.854  15.765  21.814  0.00  0.00    +0.000 N 
ATOM      3  C   UNL     1      -5.997  15.045  21.409  0.00  0.00    +0.000 A 
ATOM      4  O   UNL     1      -7.069  15.554  21.121  0.00  0.00    +0.000 OA
ATOM      5  N   UNL     1      -5.604  13.678  21.326  0.00  0.00    +0.000 N 
ATOM      6  C   UNL     1      -4.230  13.599  21.662  0.00  0.00    +0.000 A 
ATOM      7  N   UNL     1      -3.477  12.490  21.677  0.00  0.00    +0.000 NA
ATOM      8  C   UNL     1      -2.177  12.665  21.957  0.00  0.00    +0.000 A 
ATOM      9  N   UNL     1      -1.627  13.858  22.247  0.00  0.00    +0.000 NA
ATOM     10  C   UNL     1      -2.436  14.960  22.239  0.00  0.00    +0.000 A 
ATOM     11  C   UNL     1      -3.770  14.875  21.947  0.00  0.00    +0.000 A 
ENDROOT
BRANCH   5  12
ATOM     12  C   UNL     1      -6.314  12.694  20.582  0.00  0.00    +0.000 A 
ATOM     13  C   UNL     1      -5.945  12.430  19.237  0.00  0.00    +0.000 A 
ATOM     14  C   UNL     1      -6.228  11.205  18.621  0.00  0.00    +0.000 A 
ATOM     15  C   UNL     1      -6.879  10.270  19.382  0.00  0.00    +0.000 A 
ATOM     16  C   UNL     1      -7.394  10.582  20.617  0.00  0.00    +0.000 A 
ATOM     17  C   UNL     1      -7.192  11.804  21.214  0.00  0.00    +0.000 A 
ATOM     18  O   UNL     1      -7.913   9.489  21.249  0.00  0.00    +0.000 OA
ATOM     19  C   UNL     1      -7.272   8.470  20.459  0.00  0.00    +0.000 C 
ATOM     20  O   UNL     1      -6.975   8.935  19.123  0.00  0.00    +0.000 OA
ENDBRANCH   5  12
BRANCH   8  21
ATOM     21  C   UNL     1      -1.284  11.489  21.901  0.00  0.00    +0.000 A 
ATOM     22  C   UNL     1      -0.958  10.742  23.051  0.00  0.00    +0.000 A 
ATOM     23  C   UNL     1      -0.121   9.623  22.986  0.00  0.00    +0.000 A 
ATOM     24  C   UNL     1       0.417   9.223  21.768  0.00  0.00    +0.000 A 
ATOM     25  C   UNL     1       0.114   9.938  20.612  0.00  0.00    +0.000 A 
ATOM     26  C   UNL     1      -0.726  11.053  20.682  0.00  0.00    +0.000 A 
ENDBRANCH   8  21
BRANCH  10  27
ATOM     27  C   UNL     1      -1.684  16.223  22.564  0.00  0.00    +0.000 C 
ATOM     28  N   UNL     1      -1.481  16.453  23.903  0.00  0.00    +0.000 N 
ATOM     29  O   UNL     1      -1.267  17.017  21.735  0.00  0.00    +0.000 OA
ATOM     30  H   UNL     1      -1.793  15.777  24.588  0.00  0.00    +0.000 HD
ATOM     31  H   UNL     1      -0.948  17.273  24.180  0.00  0.00    +0.000 HD
ENDBRANCH  10  27
TORSDOF 3
ENDMDL
MODEL 6
REMARK VINA RESULT:      -6.8      9.037     11.654
REMARK  Name = 
REMARK  4 active torsions:
REMARK  status: ('A' for Active; 'I' for Inactive)
REMARK    1  A    between atoms: C_1  and  N_2
REMARK    2  A    between atoms: N_5  and  C_6
REMARK    3  A    between atoms: C_17  and  C_18
REMARK    4  A    between atoms: C_25  and  C_26
REMARK                            x       y       z     vdW  Elec       q    Type
REMARK                         _______ _______ _______ _____ _____    ______ ____
ROOT
ATOM      1  C   UNL     1       3.961  16.059  21.435  0.00  0.00    +0.000 C 
ATOM      2  N   UNL     1       5.109  15.320  21.878  0.00  0.00    +0.000 N 
ATOM      3  C   UNL     1       5.186  14.733  23.158  0.00  0.00    +0.000 A 
ATOM      4  O   UNL     1       4.326  14.839  24.020  0.00  0.00    +0.000 OA
ATOM      5  N   UNL     1       6.379  13.954  23.174  0.00  0.00    +0.000 N 
ATOM      6  C   UNL     1       6.991  14.069  21.902  0.00  0.00    +0.000 A 
ATOM      7  N   UNL     1       8.120  13.465  21.505  0.00  0.00    +0.000 NA
ATOM      8  C   UNL     1       8.475  13.663  20.226  0.00  0.00    +0.000 A 
ATOM      9  N   UNL     1       7.788  14.441  19.370  0.00  0.00    +0.000 NA
ATOM     10  C   UNL     1       6.653  15.053  19.823  0.00  0.00    +0.000 A 
ATOM     11  C   UNL     1       6.209  14.893  21.107  0.00  0.00    +0.000 A 
ENDROOT
BRANCH   5  12
ATOM     12  C   UNL     1       6.623  12.900  24.100  0.00  0.00    +0.000 A 
ATOM     13  C   UNL     1       7.537  13.103  25.168  0.00  0.00    +0.000 A 
ATOM     14  C   UNL     1       7.469  12.356  26.349  0.00  0.00    +0.000 A 
ATOM     15  C   UNL     1       6.473  11.418  26.426  0.00  0.00    +0.000 A 
ATOM     16  C   UNL     1       5.704  11.096  25.333  0.00  0.00    +0.000 A 
ATOM     17  C   UNL     1       5.802  11.767  24.138  0.00  0.00    +0.000 A 
ATOM     18  O   UNL     1       4.708  10.215  25.647  0.00  0.00    +0.000 OA
ATOM     19  C   UNL     1       4.716  10.394  27.076  0.00  0.00    +0.000 C 
ATOM     20  O   UNL     1       6.014  10.810  27.557  0.00  0.00    +0.000 OA
ENDBRANCH   5  12
BRANCH   8  21
ATOM     21  C   UNL     1       9.662  12.951  19.711  0.00  0.00    +0.000 A 
ATOM     22  C   UNL     1       9.588  12.071  18.613  0.00  0.00    +0.000 A 
ATOM     23  C   UNL     1      10.720  11.410  18.124  0.00  0.00    +0.000 A 
ATOM     24  C   UNL     1      11.958  11.610  18.724  0.00  0.00    +0.000 A 
ATOM     25  C   UNL     1      12.067  12.475  19.809  0.00  0.00    +0.000 A 
ATOM     26  C   UNL     1      10.934  13.135  20.291  0.00  0.00    +0.000 A 
ENDBRANCH   8  21
BRANCH  10  27
ATOM     27  C   UNL     1       5.982  15.876  18.755  0.00  0.00    +0.000 C 
ATOM     28  N   UNL     1       6.334  17.203  18.733  0.00  0.00    +0.000 N 
ATOM     29  O   UNL     1       5.177  15.441  17.947  0.00  0.00    +0.000 OA
ATOM     30  H   UNL     1       7.031  17.555  19.378  0.00  0.00    +0.000 HD
ATOM     31  H   UNL     1       5.941  17.799  18.011  0.00  0.00    +0.000 HD
ENDBRANCH  10  27
TORSDOF 3
ENDMDL
MODEL 7
REMARK VINA RESULT:      -6.7      3.621      6.494
REMARK  Name = 
REMARK  4 active torsions:
REMARK  status: ('A' for Active; 'I' for Inactive)
REMARK    1  A    between atoms: C_1  and  N_2
REMARK    2  A    between atoms: N_5  and  C_6
REMARK    3  A    between atoms: C_17  and  C_18
REMARK    4  A    between atoms: C_25  and  C_26
REMARK                            x       y       z     vdW  Elec       q    Type
REMARK                         _______ _______ _______ _____ _____    ______ ____
ROOT
ATOM      1  C   UNL     1      -5.896  13.640  23.017  0.00  0.00    +0.000 C 
ATOM      2  N   UNL     1      -4.751  13.238  22.251  0.00  0.00    +0.000 N 
ATOM      3  C   UNL     1      -3.477  13.058  22.829  0.00  0.00    +0.000 A 
ATOM      4  O   UNL     1      -3.213  13.277  24.002  0.00  0.00    +0.000 OA
ATOM      5  N   UNL     1      -2.647  12.504  21.813  0.00  0.00    +0.000 N 
ATOM      6  C   UNL     1      -3.435  12.340  20.648  0.00  0.00    +0.000 A 
ATOM      7  N   UNL     1      -3.031  11.822  19.479  0.00  0.00    +0.000 NA
ATOM      8  C   UNL     1      -3.973  11.698  18.533  0.00  0.00    +0.000 A 
ATOM      9  N   UNL     1      -5.251  12.088  18.693  0.00  0.00    +0.000 NA
ATOM     10  C   UNL     1      -5.616  12.628  19.894  0.00  0.00    +0.000 A 
ATOM     11  C   UNL     1      -4.723  12.777  20.920  0.00  0.00    +0.000 A 
ENDROOT
BRANCH   5  12
ATOM     12  C   UNL     1      -1.433  11.806  22.075  0.00  0.00    +0.000 A 
ATOM     13  C   UNL     1      -1.335  10.977  23.224  0.00  0.00    +0.000 A 
ATOM     14  C   UNL     1      -0.422   9.919  23.294  0.00  0.00    +0.000 A 
ATOM     15  C   UNL     1       0.374   9.721  22.196  0.00  0.00    +0.000 A 
ATOM     16  C   UNL     1       0.408  10.623  21.161  0.00  0.00    +0.000 A 
ATOM     17  C   UNL     1      -0.430  11.712  21.103  0.00  0.00    +0.000 A 
ATOM     18  O   UNL     1       1.185  10.190  20.125  0.00  0.00    +0.000 OA
ATOM     19  C   UNL     1       1.244   8.796  20.480  0.00  0.00    +0.000 C 
ATOM     20  O   UNL     1       1.090   8.598  21.904  0.00  0.00    +0.000 OA
ENDBRANCH   5  12
BRANCH   8  21
ATOM     21  C   UNL     1      -3.603  11.053  17.256  0.00  0.00    +0.000 A 
ATOM     22  C   UNL     1      -2.534  10.140  17.162  0.00  0.00    +0.000 A 
ATOM     23  C   UNL     1      -2.199   9.526  15.951  0.00  0.00    +0.000 A 
ATOM     24  C   UNL     1      -2.923   9.811  14.799  0.00  0.00    +0.000 A 
ATOM     25  C   UNL     1      -3.987  10.707  14.857  0.00  0.00    +0.000 A 
ATOM     26  C   UNL     1      -4.320  11.316  16.070  0.00  0.00    +0.000 A 
ENDBRANCH   8  21
BRANCH  10  27
ATOM     27  C   UNL     1      -7.074  13.002  19.934  0.00  0.00    +0.000 C 
ATOM     28  N   UNL     1      -7.916  12.021  20.395  0.00  0.00    +0.000 N 
ATOM     29  O   UNL     1      -7.523  14.084  19.590  0.00  0.00    +0.000 OA
ATOM     30  H   UNL     1      -7.540  11.137  20.716  0.00  0.00    +0.000 HD
ATOM     31  H   UNL     1      -8.907  12.229  20.478  0.00  0.00    +0.000 HD
ENDBRANCH  10  27
TORSDOF 3
ENDMDL
MODEL 8
REMARK VINA RESULT:      -6.6      8.415     11.664
REMARK  Name = 
REMARK  4 active torsions:
REMARK  status: ('A' for Active; 'I' for Inactive)
REMARK    1  A    between atoms: C_1  and  N_2
REMARK    2  A    between atoms: N_5  and  C_6
REMARK    3  A    between atoms: C_17  and  C_18
REMARK    4  A    between atoms: C_25  and  C_26
REMARK                            x       y       z     vdW  Elec       q    Type
REMARK                         _______ _______ _______ _____ _____    ______ ____
ROOT
ATOM      1  C   UNL     1       2.956  15.874  21.117  0.00  0.00    +0.000 C 
ATOM      2  N   UNL     1       4.306  15.455  21.363  0.00  0.00    +0.000 N 
ATOM      3  C   UNL     1       4.739  14.994  22.623  0.00  0.00    +0.000 A 
ATOM      4  O   UNL     1       4.039  14.959  23.625  0.00  0.00    +0.000 OA
ATOM      5  N   UNL     1       6.069  14.516  22.444  0.00  0.00    +0.000 N 
ATOM      6  C   UNL     1       6.409  14.678  21.079  0.00  0.00    +0.000 A 
ATOM      7  N   UNL     1       7.565  14.325  20.499  0.00  0.00    +0.000 NA
ATOM      8  C   UNL     1       7.638  14.508  19.172  0.00  0.00    +0.000 A 
ATOM      9  N   UNL     1       6.648  15.043  18.434  0.00  0.00    +0.000 NA
ATOM     10  C   UNL     1       5.494  15.406  19.069  0.00  0.00    +0.000 A 
ATOM     11  C   UNL     1       5.328  15.240  20.417  0.00  0.00    +0.000 A 
ENDROOT
BRANCH   5  12
ATOM     12  C   UNL     1       6.714  13.616  23.339  0.00  0.00    +0.000 A 
ATOM     13  C   UNL     1       7.772  14.084  24.162  0.00  0.00    +0.000 A 
ATOM     14  C   UNL     1       8.110  13.447  25.362  0.00  0.00    +0.000 A 
ATOM     15  C   UNL     1       7.366  12.349  25.705  0.00  0.00    +0.000 A 
ATOM     16  C   UNL     1       6.466  11.790  24.831  0.00  0.00    +0.000 A 
ATOM     17  C   UNL     1       6.169  12.356  23.615  0.00  0.00    +0.000 A 
ATOM     18  O   UNL     1       5.760  10.769  25.402  0.00  0.00    +0.000 OA
ATOM     19  C   UNL     1       6.034  11.075  26.782  0.00  0.00    +0.000 C 
ATOM     20  O   UNL     1       7.292  11.771  26.938  0.00  0.00    +0.000 OA
ENDBRANCH   5  12
BRANCH   8  21
ATOM     21  C   UNL     1       8.856  14.056  18.468  0.00  0.00    +0.000 A 
ATOM     22  C   UNL     1       9.141  12.690  18.270  0.00  0.00    +0.000 A 
ATOM     23  C   UNL     1      10.291  12.271  17.592  0.00  0.00    +0.000 A 
ATOM     24  C   UNL     1      11.190  13.209  17.097  0.00  0.00    +0.000 A 
ATOM     25  C   UNL     1      10.938  14.567  17.274  0.00  0.00    +0.000 A 
ATOM     26  C   UNL     1       9.785  14.980  17.948  0.00  0.00    +0.000 A 
ENDBRANCH   8  21
BRANCH  10  27
ATOM     27  C   UNL     1       4.473  15.974  18.118  0.00  0.00    +0.000 C 
ATOM     28  N   UNL     1       3.936  15.072  17.233  0.00  0.00    +0.000 N 
ATOM     29  O   UNL     1       4.117  17.142  18.097  0.00  0.00    +0.000 OA
ATOM     30  H   UNL     1       4.203  14.097  17.275  0.00  0.00    +0.000 HD
ATOM     31  H   UNL     1       3.216  15.391  16.591  0.00  0.00    +0.000 HD
ENDBRANCH  10  27
TORSDOF 3
ENDMDL
MODEL 9
REMARK VINA RESULT:      -6.6      2.959      6.130
REMARK  Name = 
REMARK  4 active torsions:
REMARK  status: ('A' for Active; 'I' for Inactive)
REMARK    1  A    between atoms: C_1  and  N_2
REMARK    2  A    between atoms: N_5  and  C_6
REMARK    3  A    between atoms: C_17  and  C_18
REMARK    4  A    between atoms: C_25  and  C_26
REMARK                            x       y       z     vdW  Elec       q    Type
REMARK                         _______ _______ _______ _____ _____    ______ ____
ROOT
ATOM      1  C   UNL     1      -6.168  10.835  18.322  0.00  0.00    +0.000 C 
ATOM      2  N   UNL     1      -5.347  11.702  19.118  0.00  0.00    +0.000 N 
ATOM      3  C   UNL     1      -5.802  12.285  20.319  0.00  0.00    +0.000 A 
ATOM      4  O   UNL     1      -6.933  12.159  20.764  0.00  0.00    +0.000 OA
ATOM      5  N   UNL     1      -4.676  12.932  20.906  0.00  0.00    +0.000 N 
ATOM      6  C   UNL     1      -3.560  12.714  20.062  0.00  0.00    +0.000 A 
ATOM      7  N   UNL     1      -2.306  13.137  20.275  0.00  0.00    +0.000 NA
ATOM      8  C   UNL     1      -1.392  12.749  19.373  0.00  0.00    +0.000 A 
ATOM      9  N   UNL     1      -1.680  12.009  18.286  0.00  0.00    +0.000 NA
ATOM     10  C   UNL     1      -2.974  11.615  18.098  0.00  0.00    +0.000 A 
ATOM     11  C   UNL     1      -3.967  11.952  18.977  0.00  0.00    +0.000 A 
ENDROOT
BRANCH   5  12
ATOM     12  C   UNL     1      -4.595  13.285  22.283  0.00  0.00    +0.000 A 
ATOM     13  C   UNL     1      -3.824  12.484  23.167  0.00  0.00    +0.000 A 
ATOM     14  C   UNL     1      -3.300  12.998  24.359  0.00  0.00    +0.000 A 
ATOM     15  C   UNL     1      -3.564  14.315  24.629  0.00  0.00    +0.000 A 
ATOM     16  C   UNL     1      -4.453  15.039  23.872  0.00  0.00    +0.000 A 
ATOM     17  C   UNL     1      -5.039  14.533  22.736  0.00  0.00    +0.000 A 
ATOM     18  O   UNL     1      -4.497  16.352  24.246  0.00  0.00    +0.000 OA
ATOM     19  C   UNL     1      -3.263  16.398  24.986  0.00  0.00    +0.000 C 
ATOM     20  O   UNL     1      -2.917  15.105  25.533  0.00  0.00    +0.000 OA
ENDBRANCH   5  12
BRANCH   8  21
ATOM     21  C   UNL     1       0.020  13.114  19.605  0.00  0.00    +0.000 A 
ATOM     22  C   UNL     1       0.469  13.615  20.843  0.00  0.00    +0.000 A 
ATOM     23  C   UNL     1       1.811  13.947  21.058  0.00  0.00    +0.000 A 
ATOM     24  C   UNL     1       2.741  13.788  20.037  0.00  0.00    +0.000 A 
ATOM     25  C   UNL     1       2.332  13.294  18.802  0.00  0.00    +0.000 A 
ATOM     26  C   UNL     1       0.991  12.961  18.593  0.00  0.00    +0.000 A 
ENDBRANCH   8  21
BRANCH  10  27
ATOM     27  C   UNL     1      -3.144  10.783  16.854  0.00  0.00    +0.000 C 
ATOM     28  N   UNL     1      -3.284  11.496  15.690  0.00  0.00    +0.000 N 
ATOM     29  O   UNL     1      -3.164   9.563  16.833  0.00  0.00    +0.000 OA
ATOM     30  H   UNL     1      -3.229  12.507  15.702  0.00  0.00    +0.000 HD
ATOM     31  H   UNL     1      -3.366  10.987  14.814  0.00  0.00    +0.000 HD
ENDBRANCH  10  27
TORSDOF 3
ENDMDL
