MODEL 1
REMARK VINA RESULT:      -7.5      0.000      0.000
REMARK  Name = 
REMARK  10 active torsions:
REMARK  status: ('A' for Active; 'I' for Inactive)
REMARK    1  A    between atoms: N_1  and  C_2
REMARK    2  A    between atoms: C_4  and  C_5
REMARK    3  A    between atoms: C_10  and  C_12
REMARK    4  A    between atoms: C_12  and  C_13
REMARK    5  A    between atoms: C_13  and  C_14
REMARK    6  A    between atoms: C_14  and  C_15
REMARK    7  A    between atoms: C_15  and  C_16
REMARK    8  A    between atoms: C_16  and  C_17
REMARK    9  A    between atoms: C_17  and  C_18
REMARK   10  A    between atoms: N_20  and  O_21
REMARK                            x       y       z     vdW  Elec       q    Type
REMARK                         _______ _______ _______ _____ _____    ______ ____
ROOT
ATOM      1  C   UNL     1       1.088   9.125  19.938  0.00  0.00    +0.000 A 
ATOM      2  C   UNL     1       1.363   9.607  18.672  0.00  0.00    +0.000 A 
ATOM      3  S   UNL     1       2.376   8.486  17.834  0.00  0.00    +0.000 S 
ATOM      4  C   UNL     1       2.342   7.466  19.203  0.00  0.00    +0.000 A 
ATOM      5  N   UNL     1       3.013   6.281  19.102  0.00  0.00    +0.000 N 
ATOM      6  C   UNL     1       2.713   5.263  19.981  0.00  0.00    +0.000 C 
ATOM      7  O   UNL     1       1.865   5.284  20.860  0.00  0.00    +0.000 OA
ATOM      8  N   UNL     1       1.671   7.909  20.228  0.00  0.00    +0.000 NA
ATOM      9  H   UNL     1       3.670   6.169  18.341  0.00  0.00    +0.000 HD
ENDROOT
BRANCH   1  12
ATOM     10  C   UNL     1      -1.209  11.644  21.513  0.00  0.00    +0.000 A 
ATOM     11  C   UNL     1      -0.437  10.956  20.578  0.00  0.00    +0.000 A 
ATOM     12  C   UNL     1       0.270   9.790  20.934  0.00  0.00    +0.000 A 
ATOM     13  C   UNL     1       0.192   9.314  22.250  0.00  0.00    +0.000 A 
ATOM     14  C   UNL     1      -0.583   9.984  23.188  0.00  0.00    +0.000 A 
ATOM     15  C   UNL     1      -1.295  11.121  22.809  0.00  0.00    +0.000 A 
ATOM     16  F   UNL     1      -2.054  11.743  23.725  0.00  0.00    +0.000 F 
BRANCH  10  17
ATOM     17  N   UNL     1      -2.065  12.683  21.098  0.00  0.00    +0.000 N 
ATOM     18  H   UNL     1      -1.777  13.606  21.408  0.00  0.00    +0.000 HD
ATOM     19  H   UNL     1      -3.043  12.482  21.284  0.00  0.00    +0.000 HD
ENDBRANCH  10  17
ENDBRANCH   1  12
BRANCH   6  20
ATOM     20  C   UNL     1       3.503   3.986  19.741  0.00  0.00    +0.000 C 
BRANCH  20  21
ATOM     21  C   UNL     1       3.638   3.746  18.232  0.00  0.00    +0.000 C 
BRANCH  21  22
ATOM     22  C   UNL     1       5.032   4.039  17.680  0.00  0.00    +0.000 C 
BRANCH  22  23
ATOM     23  C   UNL     1       4.972   4.506  16.225  0.00  0.00    +0.000 C 
BRANCH  23  24
ATOM     24  C   UNL     1       6.123   3.933  15.409  0.00  0.00    +0.000 C 
BRANCH  24  25
ATOM     25  C   UNL     1       5.855   3.994  13.907  0.00  0.00    +0.000 C 
BRANCH  25  26
ATOM     26  C   UNL     1       7.035   4.586  13.169  0.00  0.00    +0.000 C 
ATOM     27  O   UNL     1       7.314   4.350  11.996  0.00  0.00    +0.000 OA
ATOM     28  N   UNL     1       7.799   5.440  13.927  0.00  0.00    +0.000 N 
ATOM     29  H   UNL     1       7.635   5.684  14.895  0.00  0.00    +0.000 HD
BRANCH  28  30
ATOM     30  O   UNL     1       8.913   6.023  13.285  0.00  0.00    +0.000 OA
ATOM     31  H   UNL     1       9.648   5.431  13.565  0.00  0.00    +0.000 HD
ENDBRANCH  28  30
ENDBRANCH  25  26
ENDBRANCH  24  25
ENDBRANCH  23  24
ENDBRANCH  22  23
ENDBRANCH  21  22
ENDBRANCH  20  21
ENDBRANCH   6  20
TORSDOF 10
ENDMDL
MODEL 2
REMARK VINA RESULT:      -7.4      5.424      9.016
REMARK  Name = 
REMARK  10 active torsions:
REMARK  status: ('A' for Active; 'I' for Inactive)
REMARK    1  A    between atoms: N_1  and  C_2
REMARK    2  A    between atoms: C_4  and  C_5
REMARK    3  A    between atoms: C_10  and  C_12
REMARK    4  A    between atoms: C_12  and  C_13
REMARK    5  A    between atoms: C_13  and  C_14
REMARK    6  A    between atoms: C_14  and  C_15
REMARK    7  A    between atoms: C_15  and  C_16
REMARK    8  A    between atoms: C_16  and  C_17
REMARK    9  A    between atoms: C_17  and  C_18
REMARK   10  A    between atoms: N_20  and  O_21
REMARK                            x       y       z     vdW  Elec       q    Type
REMARK                         _______ _______ _______ _____ _____    ______ ____
ROOT
ATOM      1  C   UNL     1       6.710   4.994  16.555  0.00  0.00    +0.000 A 
ATOM      2  C   UNL     1       7.628   4.585  17.504  0.00  0.00    +0.000 A 
ATOM      3  S   UNL     1       7.041   4.974  19.081  0.00  0.00    +0.000 S 
ATOM      4  C   UNL     1       5.630   5.623  18.372  0.00  0.00    +0.000 A 
ATOM      5  N   UNL     1       4.678   6.103  19.226  0.00  0.00    +0.000 N 
ATOM      6  C   UNL     1       3.390   6.269  18.768  0.00  0.00    +0.000 C 
ATOM      7  O   UNL     1       2.971   6.004  17.651  0.00  0.00    +0.000 OA
ATOM      8  N   UNL     1       5.583   5.600  17.070  0.00  0.00    +0.000 NA
ATOM      9  H   UNL     1       4.940   6.263  20.189  0.00  0.00    +0.000 HD
ENDROOT
BRANCH   1  12
ATOM     10  C   UNL     1       6.111   3.762  13.058  0.00  0.00    +0.000 A 
ATOM     11  C   UNL     1       5.985   3.968  14.431  0.00  0.00    +0.000 A 
ATOM     12  C   UNL     1       6.855   4.836  15.120  0.00  0.00    +0.000 A 
ATOM     13  C   UNL     1       7.861   5.506  14.411  0.00  0.00    +0.000 A 
ATOM     14  C   UNL     1       7.990   5.319  13.040  0.00  0.00    +0.000 A 
ATOM     15  C   UNL     1       7.103   4.476  12.373  0.00  0.00    +0.000 A 
ATOM     16  F   UNL     1       7.231   4.322  11.046  0.00  0.00    +0.000 F 
BRANCH  10  17
ATOM     17  N   UNL     1       5.117   3.056  12.354  0.00  0.00    +0.000 N 
ATOM     18  H   UNL     1       5.407   2.135  12.040  0.00  0.00    +0.000 HD
ATOM     19  H   UNL     1       4.684   3.613  11.622  0.00  0.00    +0.000 HD
ENDBRANCH  10  17
ENDBRANCH   1  12
BRANCH   6  20
ATOM     20  C   UNL     1       2.418   6.774  19.824  0.00  0.00    +0.000 C 
BRANCH  20  21
ATOM     21  C   UNL     1       1.503   5.625  20.266  0.00  0.00    +0.000 C 
BRANCH  21  22
ATOM     22  C   UNL     1       2.211   4.548  21.084  0.00  0.00    +0.000 C 
BRANCH  22  23
ATOM     23  C   UNL     1       1.398   3.253  21.129  0.00  0.00    +0.000 C 
BRANCH  23  24
ATOM     24  C   UNL     1       0.746   2.959  19.784  0.00  0.00    +0.000 C 
BRANCH  24  25
ATOM     25  C   UNL     1       1.308   1.699  19.130  0.00  0.00    +0.000 C 
BRANCH  25  26
ATOM     26  C   UNL     1       2.544   2.015  18.318  0.00  0.00    +0.000 C 
ATOM     27  O   UNL     1       3.592   1.375  18.364  0.00  0.00    +0.000 OA
ATOM     28  N   UNL     1       2.409   3.104  17.491  0.00  0.00    +0.000 N 
ATOM     29  H   UNL     1       1.582   3.680  17.398  0.00  0.00    +0.000 HD
BRANCH  28  30
ATOM     30  O   UNL     1       3.534   3.442  16.708  0.00  0.00    +0.000 OA
ATOM     31  H   UNL     1       3.946   4.164  17.235  0.00  0.00    +0.000 HD
ENDBRANCH  28  30
ENDBRANCH  25  26
ENDBRANCH  24  25
ENDBRANCH  23  24
ENDBRANCH  22  23
ENDBRANCH  21  22
ENDBRANCH  20  21
ENDBRANCH   6  20
TORSDOF 10
ENDMDL
MODEL 3
REMARK VINA RESULT:      -7.4      0.944      1.340
REMARK  Name = 
REMARK  10 active torsions:
REMARK  status: ('A' for Active; 'I' for Inactive)
REMARK    1  A    between atoms: N_1  and  C_2
REMARK    2  A    between atoms: C_4  and  C_5
REMARK    3  A    between atoms: C_10  and  C_12
REMARK    4  A    between atoms: C_12  and  C_13
REMARK    5  A    between atoms: C_13  and  C_14
REMARK    6  A    between atoms: C_14  and  C_15
REMARK    7  A    between atoms: C_15  and  C_16
REMARK    8  A    between atoms: C_16  and  C_17
REMARK    9  A    between atoms: C_17  and  C_18
REMARK   10  A    between atoms: N_20  and  O_21
REMARK                            x       y       z     vdW  Elec       q    Type
REMARK                         _______ _______ _______ _____ _____    ______ ____
ROOT
ATOM      1  C   UNL     1       0.969   9.273  19.970  0.00  0.00    +0.000 A 
ATOM      2  C   UNL     1       1.237   9.783  18.713  0.00  0.00    +0.000 A 
ATOM      3  S   UNL     1       2.257   8.688  17.851  0.00  0.00    +0.000 S 
ATOM      4  C   UNL     1       2.234   7.640  19.198  0.00  0.00    +0.000 A 
ATOM      5  N   UNL     1       2.915   6.462  19.072  0.00  0.00    +0.000 N 
ATOM      6  C   UNL     1       2.624   5.425  19.930  0.00  0.00    +0.000 C 
ATOM      7  O   UNL     1       1.778   5.420  20.811  0.00  0.00    +0.000 OA
ATOM      8  N   UNL     1       1.562   8.056  20.234  0.00  0.00    +0.000 NA
ATOM      9  H   UNL     1       3.571   6.371  18.307  0.00  0.00    +0.000 HD
ENDROOT
BRANCH   1  12
ATOM     10  C   UNL     1      -1.325  11.754  21.608  0.00  0.00    +0.000 A 
ATOM     11  C   UNL     1      -0.550  11.092  20.658  0.00  0.00    +0.000 A 
ATOM     12  C   UNL     1       0.147   9.911  20.980  0.00  0.00    +0.000 A 
ATOM     13  C   UNL     1       0.056   9.393  22.280  0.00  0.00    +0.000 A 
ATOM     14  C   UNL     1      -0.722  10.038  23.234  0.00  0.00    +0.000 A 
ATOM     15  C   UNL     1      -1.424  11.190  22.887  0.00  0.00    +0.000 A 
ATOM     16  F   UNL     1      -2.185  11.788  23.816  0.00  0.00    +0.000 F 
BRANCH  10  17
ATOM     17  N   UNL     1      -2.171  12.812  21.221  0.00  0.00    +0.000 N 
ATOM     18  H   UNL     1      -1.687  13.598  20.800  0.00  0.00    +0.000 HD
ATOM     19  H   UNL     1      -2.819  13.084  21.955  0.00  0.00    +0.000 HD
ENDBRANCH  10  17
ENDBRANCH   1  12
BRANCH   6  20
ATOM     20  C   UNL     1       3.424   4.159  19.663  0.00  0.00    +0.000 C 
BRANCH  20  21
ATOM     21  C   UNL     1       2.928   3.507  18.365  0.00  0.00    +0.000 C 
BRANCH  21  22
ATOM     22  C   UNL     1       3.717   3.918  17.124  0.00  0.00    +0.000 C 
BRANCH  22  23
ATOM     23  C   UNL     1       5.194   4.148  17.449  0.00  0.00    +0.000 C 
BRANCH  23  24
ATOM     24  C   UNL     1       5.647   5.539  17.024  0.00  0.00    +0.000 C 
BRANCH  24  25
ATOM     25  C   UNL     1       5.363   5.816  15.550  0.00  0.00    +0.000 C 
BRANCH  25  26
ATOM     26  C   UNL     1       6.301   5.032  14.660  0.00  0.00    +0.000 C 
ATOM     27  O   UNL     1       7.513   5.219  14.587  0.00  0.00    +0.000 OA
ATOM     28  N   UNL     1       5.683   4.058  13.913  0.00  0.00    +0.000 N 
ATOM     29  H   UNL     1       4.694   3.845  13.917  0.00  0.00    +0.000 HD
BRANCH  28  30
ATOM     30  O   UNL     1       6.514   3.295  13.066  0.00  0.00    +0.000 OA
ATOM     31  H   UNL     1       7.381   3.752  13.157  0.00  0.00    +0.000 HD
ENDBRANCH  28  30
ENDBRANCH  25  26
ENDBRANCH  24  25
ENDBRANCH  23  24
ENDBRANCH  22  23
ENDBRANCH  21  22
ENDBRANCH  20  21
ENDBRANCH   6  20
TORSDOF 10
ENDMDL
MODEL 4
REMARK VINA RESULT:      -7.3      2.838      3.466
REMARK  Name = 
REMARK  10 active torsions:
REMARK  status: ('A' for Active; 'I' for Inactive)
REMARK    1  A    between atoms: N_1  and  C_2
REMARK    2  A    between atoms: C_4  and  C_5
REMARK    3  A    between atoms: C_10  and  C_12
REMARK    4  A    between atoms: C_12  and  C_13
REMARK    5  A    between atoms: C_13  and  C_14
REMARK    6  A    between atoms: C_14  and  C_15
REMARK    7  A    between atoms: C_15  and  C_16
REMARK    8  A    between atoms: C_16  and  C_17
REMARK    9  A    between atoms: C_17  and  C_18
REMARK   10  A    between atoms: N_20  and  O_21
REMARK                            x       y       z     vdW  Elec       q    Type
REMARK                         _______ _______ _______ _____ _____    ______ ____
ROOT
ATOM      1  C   UNL     1       1.134   9.484  18.924  0.00  0.00    +0.000 A 
ATOM      2  C   UNL     1       1.972   9.521  17.824  0.00  0.00    +0.000 A 
ATOM      3  S   UNL     1       3.002   8.134  17.834  0.00  0.00    +0.000 S 
ATOM      4  C   UNL     1       2.238   7.605  19.267  0.00  0.00    +0.000 A 
ATOM      5  N   UNL     1       2.657   6.411  19.781  0.00  0.00    +0.000 N 
ATOM      6  C   UNL     1       1.847   5.745  20.675  0.00  0.00    +0.000 C 
ATOM      7  O   UNL     1       0.742   6.094  21.060  0.00  0.00    +0.000 OA
ATOM      8  N   UNL     1       1.313   8.389  19.744  0.00  0.00    +0.000 NA
ATOM      9  H   UNL     1       3.527   6.024  19.439  0.00  0.00    +0.000 HD
ENDROOT
BRANCH   1  12
ATOM     10  C   UNL     1      -1.806  11.791  18.557  0.00  0.00    +0.000 A 
ATOM     11  C   UNL     1      -0.844  10.817  18.293  0.00  0.00    +0.000 A 
ATOM     12  C   UNL     1       0.131  10.477  19.253  0.00  0.00    +0.000 A 
ATOM     13  C   UNL     1       0.130  11.129  20.494  0.00  0.00    +0.000 A 
ATOM     14  C   UNL     1      -0.831  12.093  20.773  0.00  0.00    +0.000 A 
ATOM     15  C   UNL     1      -1.802  12.396  19.820  0.00  0.00    +0.000 A 
ATOM     16  F   UNL     1      -2.733  13.316  20.116  0.00  0.00    +0.000 F 
BRANCH  10  17
ATOM     17  N   UNL     1      -2.888  11.975  17.674  0.00  0.00    +0.000 N 
ATOM     18  H   UNL     1      -2.644  11.882  16.694  0.00  0.00    +0.000 HD
ATOM     19  H   UNL     1      -3.421  12.815  17.879  0.00  0.00    +0.000 HD
ENDBRANCH  10  17
ENDBRANCH   1  12
BRANCH   6  20
ATOM     20  C   UNL     1       2.411   4.412  21.145  0.00  0.00    +0.000 C 
BRANCH  20  21
ATOM     21  C   UNL     1       1.378   3.305  20.893  0.00  0.00    +0.000 C 
BRANCH  21  22
ATOM     22  C   UNL     1       1.278   2.872  19.432  0.00  0.00    +0.000 C 
BRANCH  22  23
ATOM     23  C   UNL     1       2.399   1.900  19.058  0.00  0.00    +0.000 C 
BRANCH  23  24
ATOM     24  C   UNL     1       3.043   2.279  17.731  0.00  0.00    +0.000 C 
BRANCH  24  25
ATOM     25  C   UNL     1       3.582   3.708  17.735  0.00  0.00    +0.000 C 
BRANCH  25  26
ATOM     26  C   UNL     1       4.976   3.760  18.321  0.00  0.00    +0.000 C 
ATOM     27  O   UNL     1       5.248   3.526  19.495  0.00  0.00    +0.000 OA
ATOM     28  N   UNL     1       5.952   4.097  17.415  0.00  0.00    +0.000 N 
ATOM     29  H   UNL     1       5.808   4.305  16.435  0.00  0.00    +0.000 HD
BRANCH  28  30
ATOM     30  O   UNL     1       7.273   4.159  17.909  0.00  0.00    +0.000 OA
ATOM     31  H   UNL     1       7.200   4.841  18.615  0.00  0.00    +0.000 HD
ENDBRANCH  28  30
ENDBRANCH  25  26
ENDBRANCH  24  25
ENDBRANCH  23  24
ENDBRANCH  22  23
ENDBRANCH  21  22
ENDBRANCH  20  21
ENDBRANCH   6  20
TORSDOF 10
ENDMDL
MODEL 5
REMARK VINA RESULT:      -7.3      4.547      9.587
REMARK  Name = 
REMARK  10 active torsions:
REMARK  status: ('A' for Active; 'I' for Inactive)
REMARK    1  A    between atoms: N_1  and  C_2
REMARK    2  A    between atoms: C_4  and  C_5
REMARK    3  A    between atoms: C_10  and  C_12
REMARK    4  A    between atoms: C_12  and  C_13
REMARK    5  A    between atoms: C_13  and  C_14
REMARK    6  A    between atoms: C_14  and  C_15
REMARK    7  A    between atoms: C_15  and  C_16
REMARK    8  A    between atoms: C_16  and  C_17
REMARK    9  A    between atoms: C_17  and  C_18
REMARK   10  A    between atoms: N_20  and  O_21
REMARK                            x       y       z     vdW  Elec       q    Type
REMARK                         _______ _______ _______ _____ _____    ______ ____
ROOT
ATOM      1  C   UNL     1       3.669   4.634  18.673  0.00  0.00    +0.000 A 
ATOM      2  C   UNL     1       3.075   3.474  19.136  0.00  0.00    +0.000 A 
ATOM      3  S   UNL     1       1.962   3.859  20.400  0.00  0.00    +0.000 S 
ATOM      4  C   UNL     1       2.347   5.512  20.205  0.00  0.00    +0.000 A 
ATOM      5  N   UNL     1       1.674   6.396  20.999  0.00  0.00    +0.000 N 
ATOM      6  C   UNL     1       1.636   7.725  20.639  0.00  0.00    +0.000 C 
ATOM      7  O   UNL     1       2.129   8.226  19.639  0.00  0.00    +0.000 OA
ATOM      8  N   UNL     1       3.251   5.785  19.308  0.00  0.00    +0.000 NA
ATOM      9  H   UNL     1       1.172   6.033  21.798  0.00  0.00    +0.000 HD
ENDROOT
BRANCH   1  12
ATOM     10  C   UNL     1       6.495   5.927  16.566  0.00  0.00    +0.000 A 
ATOM     11  C   UNL     1       5.552   5.798  17.584  0.00  0.00    +0.000 A 
ATOM     12  C   UNL     1       4.657   4.710  17.615  0.00  0.00    +0.000 A 
ATOM     13  C   UNL     1       4.721   3.740  16.605  0.00  0.00    +0.000 A 
ATOM     14  C   UNL     1       5.665   3.850  15.591  0.00  0.00    +0.000 A 
ATOM     15  C   UNL     1       6.557   4.921  15.593  0.00  0.00    +0.000 A 
ATOM     16  F   UNL     1       7.473   5.000  14.617  0.00  0.00    +0.000 F 
BRANCH  10  17
ATOM     17  N   UNL     1       7.508   6.902  16.657  0.00  0.00    +0.000 N 
ATOM     18  H   UNL     1       7.693   7.220  17.603  0.00  0.00    +0.000 HD
ATOM     19  H   UNL     1       7.380   7.662  15.995  0.00  0.00    +0.000 HD
ENDBRANCH  10  17
ENDBRANCH   1  12
BRANCH   6  20
ATOM     20  C   UNL     1       0.827   8.600  21.585  0.00  0.00    +0.000 C 
BRANCH  20  21
ATOM     21  C   UNL     1      -0.398   9.153  20.844  0.00  0.00    +0.000 C 
BRANCH  21  22
ATOM     22  C   UNL     1      -0.512  10.675  20.884  0.00  0.00    +0.000 C 
BRANCH  22  23
ATOM     23  C   UNL     1      -0.465  11.277  19.478  0.00  0.00    +0.000 C 
BRANCH  23  24
ATOM     24  C   UNL     1      -1.511  10.646  18.568  0.00  0.00    +0.000 C 
BRANCH  24  25
ATOM     25  C   UNL     1      -1.893  11.557  17.405  0.00  0.00    +0.000 C 
BRANCH  25  26
ATOM     26  C   UNL     1      -3.235  11.168  16.829  0.00  0.00    +0.000 C 
ATOM     27  O   UNL     1      -3.419  10.223  16.066  0.00  0.00    +0.000 OA
ATOM     28  N   UNL     1      -4.274  11.971  17.233  0.00  0.00    +0.000 N 
ATOM     29  H   UNL     1      -4.203  12.766  17.856  0.00  0.00    +0.000 HD
BRANCH  28  30
ATOM     30  O   UNL     1      -5.551  11.650  16.725  0.00  0.00    +0.000 OA
ATOM     31  H   UNL     1      -6.019  12.514  16.776  0.00  0.00    +0.000 HD
ENDBRANCH  28  30
ENDBRANCH  25  26
ENDBRANCH  24  25
ENDBRANCH  23  24
ENDBRANCH  22  23
ENDBRANCH  21  22
ENDBRANCH  20  21
ENDBRANCH   6  20
TORSDOF 10
ENDMDL
MODEL 6
REMARK VINA RESULT:      -7.3      4.525     10.915
REMARK  Name = 
REMARK  10 active torsions:
REMARK  status: ('A' for Active; 'I' for Inactive)
REMARK    1  A    between atoms: N_1  and  C_2
REMARK    2  A    between atoms: C_4  and  C_5
REMARK    3  A    between atoms: C_10  and  C_12
REMARK    4  A    between atoms: C_12  and  C_13
REMARK    5  A    between atoms: C_13  and  C_14
REMARK    6  A    between atoms: C_14  and  C_15
REMARK    7  A    between atoms: C_15  and  C_16
REMARK    8  A    between atoms: C_16  and  C_17
REMARK    9  A    between atoms: C_17  and  C_18
REMARK   10  A    between atoms: N_20  and  O_21
REMARK                            x       y       z     vdW  Elec       q    Type
REMARK                         _______ _______ _______ _____ _____    ______ ____
ROOT
ATOM      1  C   UNL     1       3.653   5.254  19.016  0.00  0.00    +0.000 A 
ATOM      2  C   UNL     1       3.112   4.207  19.741  0.00  0.00    +0.000 A 
ATOM      3  S   UNL     1       1.939   4.819  20.851  0.00  0.00    +0.000 S 
ATOM      4  C   UNL     1       2.235   6.394  20.263  0.00  0.00    +0.000 A 
ATOM      5  N   UNL     1       1.488   7.402  20.803  0.00  0.00    +0.000 N 
ATOM      6  C   UNL     1       1.385   8.597  20.127  0.00  0.00    +0.000 C 
ATOM      7  O   UNL     1       1.881   8.869  19.043  0.00  0.00    +0.000 OA
ATOM      8  N   UNL     1       3.150   6.496  19.341  0.00  0.00    +0.000 NA
ATOM      9  H   UNL     1       0.982   7.213  21.659  0.00  0.00    +0.000 HD
ENDROOT
BRANCH   1  12
ATOM     10  C   UNL     1       6.999   4.695  17.407  0.00  0.00    +0.000 A 
ATOM     11  C   UNL     1       5.986   4.791  18.358  0.00  0.00    +0.000 A 
ATOM     12  C   UNL     1       4.669   5.131  17.989  0.00  0.00    +0.000 A 
ATOM     13  C   UNL     1       4.375   5.374  16.640  0.00  0.00    +0.000 A 
ATOM     14  C   UNL     1       5.374   5.271  15.680  0.00  0.00    +0.000 A 
ATOM     15  C   UNL     1       6.664   4.909  16.063  0.00  0.00    +0.000 A 
ATOM     16  F   UNL     1       7.611   4.795  15.119  0.00  0.00    +0.000 F 
BRANCH  10  17
ATOM     17  N   UNL     1       8.254   4.162  17.759  0.00  0.00    +0.000 N 
ATOM     18  H   UNL     1       8.474   4.237  18.747  0.00  0.00    +0.000 HD
ATOM     19  H   UNL     1       9.002   4.487  17.154  0.00  0.00    +0.000 HD
ENDBRANCH  10  17
ENDBRANCH   1  12
BRANCH   6  20
ATOM     20  C   UNL     1       0.498   9.623  20.815  0.00  0.00    +0.000 C 
BRANCH  20  21
ATOM     21  C   UNL     1      -0.151   8.988  22.051  0.00  0.00    +0.000 C 
BRANCH  21  22
ATOM     22  C   UNL     1      -0.534   9.992  23.136  0.00  0.00    +0.000 C 
BRANCH  22  23
ATOM     23  C   UNL     1      -0.619  11.414  22.578  0.00  0.00    +0.000 C 
BRANCH  23  24
ATOM     24  C   UNL     1      -1.961  11.667  21.904  0.00  0.00    +0.000 C 
BRANCH  24  25
ATOM     25  C   UNL     1      -2.647  12.925  22.432  0.00  0.00    +0.000 C 
BRANCH  25  26
ATOM     26  C   UNL     1      -4.014  12.603  22.992  0.00  0.00    +0.000 C 
ATOM     27  O   UNL     1      -5.072  12.773  22.390  0.00  0.00    +0.000 OA
ATOM     28  N   UNL     1      -3.992  12.084  24.264  0.00  0.00    +0.000 N 
ATOM     29  H   UNL     1      -3.166  11.916  24.823  0.00  0.00    +0.000 HD
BRANCH  28  30
ATOM     30  O   UNL     1      -5.244  11.764  24.833  0.00  0.00    +0.000 OA
ATOM     31  H   UNL     1      -5.696  11.297  24.094  0.00  0.00    +0.000 HD
ENDBRANCH  28  30
ENDBRANCH  25  26
ENDBRANCH  24  25
ENDBRANCH  23  24
ENDBRANCH  22  23
ENDBRANCH  21  22
ENDBRANCH  20  21
ENDBRANCH   6  20
TORSDOF 10
ENDMDL
MODEL 7
REMARK VINA RESULT:      -7.3      4.454     10.785
REMARK  Name = 
REMARK  10 active torsions:
REMARK  status: ('A' for Active; 'I' for Inactive)
REMARK    1  A    between atoms: N_1  and  C_2
REMARK    2  A    between atoms: C_4  and  C_5
REMARK    3  A    between atoms: C_10  and  C_12
REMARK    4  A    between atoms: C_12  and  C_13
REMARK    5  A    between atoms: C_13  and  C_14
REMARK    6  A    between atoms: C_14  and  C_15
REMARK    7  A    between atoms: C_15  and  C_16
REMARK    8  A    between atoms: C_16  and  C_17
REMARK    9  A    between atoms: C_17  and  C_18
REMARK   10  A    between atoms: N_20  and  O_21
REMARK                            x       y       z     vdW  Elec       q    Type
REMARK                         _______ _______ _______ _____ _____    ______ ____
ROOT
ATOM      1  C   UNL     1       3.576   4.840  18.738  0.00  0.00    +0.000 A 
ATOM      2  C   UNL     1       3.004   3.682  19.232  0.00  0.00    +0.000 A 
ATOM      3  S   UNL     1       1.890   4.080  20.491  0.00  0.00    +0.000 S 
ATOM      4  C   UNL     1       2.248   5.733  20.255  0.00  0.00    +0.000 A 
ATOM      5  N   UNL     1       1.565   6.626  21.031  0.00  0.00    +0.000 N 
ATOM      6  C   UNL     1       1.504   7.945  20.639  0.00  0.00    +0.000 C 
ATOM      7  O   UNL     1       1.985   8.430  19.626  0.00  0.00    +0.000 OA
ATOM      8  N   UNL     1       3.144   5.999  19.347  0.00  0.00    +0.000 NA
ATOM      9  H   UNL     1       1.072   6.274  21.841  0.00  0.00    +0.000 HD
ENDROOT
BRANCH   1  12
ATOM     10  C   UNL     1       6.472   6.046  16.674  0.00  0.00    +0.000 A 
ATOM     11  C   UNL     1       5.531   5.926  17.694  0.00  0.00    +0.000 A 
ATOM     12  C   UNL     1       4.559   4.906  17.673  0.00  0.00    +0.000 A 
ATOM     13  C   UNL     1       4.543   3.995  16.608  0.00  0.00    +0.000 A 
ATOM     14  C   UNL     1       5.483   4.096  15.591  0.00  0.00    +0.000 A 
ATOM     15  C   UNL     1       6.452   5.097  15.643  0.00  0.00    +0.000 A 
ATOM     16  F   UNL     1       7.363   5.167  14.661  0.00  0.00    +0.000 F 
BRANCH  10  17
ATOM     17  N   UNL     1       7.554   6.938  16.808  0.00  0.00    +0.000 N 
ATOM     18  H   UNL     1       7.413   7.658  17.510  0.00  0.00    +0.000 HD
ATOM     19  H   UNL     1       7.874   7.303  15.916  0.00  0.00    +0.000 HD
ENDBRANCH  10  17
ENDBRANCH   1  12
BRANCH   6  20
ATOM     20  C   UNL     1       0.686   8.829  21.568  0.00  0.00    +0.000 C 
BRANCH  20  21
ATOM     21  C   UNL     1       0.399  10.168  20.875  0.00  0.00    +0.000 C 
BRANCH  21  22
ATOM     22  C   UNL     1      -0.718  10.978  21.529  0.00  0.00    +0.000 C 
BRANCH  22  23
ATOM     23  C   UNL     1      -1.475  11.820  20.501  0.00  0.00    +0.000 C 
BRANCH  23  24
ATOM     24  C   UNL     1      -2.109  13.047  21.145  0.00  0.00    +0.000 C 
BRANCH  24  25
ATOM     25  C   UNL     1      -2.309  12.874  22.649  0.00  0.00    +0.000 C 
BRANCH  25  26
ATOM     26  C   UNL     1      -3.733  12.474  22.965  0.00  0.00    +0.000 C 
ATOM     27  O   UNL     1      -4.645  12.434  22.142  0.00  0.00    +0.000 OA
ATOM     28  N   UNL     1      -3.944  12.145  24.281  0.00  0.00    +0.000 N 
ATOM     29  H   UNL     1      -3.248  12.155  25.016  0.00  0.00    +0.000 HD
BRANCH  28  30
ATOM     30  O   UNL     1      -5.257  11.763  24.630  0.00  0.00    +0.000 OA
ATOM     31  H   UNL     1      -5.457  11.068  23.962  0.00  0.00    +0.000 HD
ENDBRANCH  28  30
ENDBRANCH  25  26
ENDBRANCH  24  25
ENDBRANCH  23  24
ENDBRANCH  22  23
ENDBRANCH  21  22
ENDBRANCH  20  21
ENDBRANCH   6  20
TORSDOF 10
ENDMDL
MODEL 8
REMARK VINA RESULT:      -7.2      4.757     11.134
REMARK  Name = 
REMARK  10 active torsions:
REMARK  status: ('A' for Active; 'I' for Inactive)
REMARK    1  A    between atoms: N_1  and  C_2
REMARK    2  A    between atoms: C_4  and  C_5
REMARK    3  A    between atoms: C_10  and  C_12
REMARK    4  A    between atoms: C_12  and  C_13
REMARK    5  A    between atoms: C_13  and  C_14
REMARK    6  A    between atoms: C_14  and  C_15
REMARK    7  A    between atoms: C_15  and  C_16
REMARK    8  A    between atoms: C_16  and  C_17
REMARK    9  A    between atoms: C_17  and  C_18
REMARK   10  A    between atoms: N_20  and  O_21
REMARK                            x       y       z     vdW  Elec       q    Type
REMARK                         _______ _______ _______ _____ _____    ______ ____
ROOT
ATOM      1  C   UNL     1       3.661   5.154  18.889  0.00  0.00    +0.000 A 
ATOM      2  C   UNL     1       3.148   4.111  19.639  0.00  0.00    +0.000 A 
ATOM      3  S   UNL     1       2.029   4.731  20.800  0.00  0.00    +0.000 S 
ATOM      4  C   UNL     1       2.307   6.304  20.196  0.00  0.00    +0.000 A 
ATOM      5  N   UNL     1       1.591   7.316  20.768  0.00  0.00    +0.000 N 
ATOM      6  C   UNL     1       1.465   8.512  20.095  0.00  0.00    +0.000 C 
ATOM      7  O   UNL     1       1.913   8.779  18.990  0.00  0.00    +0.000 OA
ATOM      8  N   UNL     1       3.181   6.400  19.234  0.00  0.00    +0.000 NA
ATOM      9  H   UNL     1       1.123   7.132  21.646  0.00  0.00    +0.000 HD
ENDROOT
BRANCH   1  12
ATOM     10  C   UNL     1       6.523   5.963  16.597  0.00  0.00    +0.000 A 
ATOM     11  C   UNL     1       5.596   6.033  17.635  0.00  0.00    +0.000 A 
ATOM     12  C   UNL     1       4.629   5.024  17.817  0.00  0.00    +0.000 A 
ATOM     13  C   UNL     1       4.603   3.931  16.940  0.00  0.00    +0.000 A 
ATOM     14  C   UNL     1       5.530   3.844  15.908  0.00  0.00    +0.000 A 
ATOM     15  C   UNL     1       6.494   4.840  15.761  0.00  0.00    +0.000 A 
ATOM     16  F   UNL     1       7.392   4.729  14.770  0.00  0.00    +0.000 F 
BRANCH  10  17
ATOM     17  N   UNL     1       7.602   6.867  16.549  0.00  0.00    +0.000 N 
ATOM     18  H   UNL     1       7.452   7.721  17.078  0.00  0.00    +0.000 HD
ATOM     19  H   UNL     1       7.933   7.033  15.603  0.00  0.00    +0.000 HD
ENDBRANCH  10  17
ENDBRANCH   1  12
BRANCH   6  20
ATOM     20  C   UNL     1       0.615   9.544  20.821  0.00  0.00    +0.000 C 
BRANCH  20  21
ATOM     21  C   UNL     1      -0.002   8.906  22.072  0.00  0.00    +0.000 C 
BRANCH  21  22
ATOM     22  C   UNL     1      -0.501   9.917  23.102  0.00  0.00    +0.000 C 
BRANCH  22  23
ATOM     23  C   UNL     1      -1.227  11.086  22.433  0.00  0.00    +0.000 C 
BRANCH  23  24
ATOM     24  C   UNL     1      -2.104  11.837  23.426  0.00  0.00    +0.000 C 
BRANCH  24  25
ATOM     25  C   UNL     1      -2.827  13.018  22.784  0.00  0.00    +0.000 C 
BRANCH  25  26
ATOM     26  C   UNL     1      -3.995  13.466  23.632  0.00  0.00    +0.000 C 
ATOM     27  O   UNL     1      -4.064  14.549  24.209  0.00  0.00    +0.000 OA
ATOM     28  N   UNL     1      -5.014  12.548  23.715  0.00  0.00    +0.000 N 
ATOM     29  H   UNL     1      -5.031  11.638  23.272  0.00  0.00    +0.000 HD
BRANCH  28  30
ATOM     30  O   UNL     1      -6.131  12.918  24.494  0.00  0.00    +0.000 OA
ATOM     31  H   UNL     1      -6.457  12.047  24.819  0.00  0.00    +0.000 HD
ENDBRANCH  28  30
ENDBRANCH  25  26
ENDBRANCH  24  25
ENDBRANCH  23  24
ENDBRANCH  22  23
ENDBRANCH  21  22
ENDBRANCH  20  21
ENDBRANCH   6  20
TORSDOF 10
ENDMDL
MODEL 9
REMARK VINA RESULT:      -7.2      5.118      9.035
REMARK  Name = 
REMARK  10 active torsions:
REMARK  status: ('A' for Active; 'I' for Inactive)
REMARK    1  A    between atoms: N_1  and  C_2
REMARK    2  A    between atoms: C_4  and  C_5
REMARK    3  A    between atoms: C_10  and  C_12
REMARK    4  A    between atoms: C_12  and  C_13
REMARK    5  A    between atoms: C_13  and  C_14
REMARK    6  A    between atoms: C_14  and  C_15
REMARK    7  A    between atoms: C_15  and  C_16
REMARK    8  A    between atoms: C_16  and  C_17
REMARK    9  A    between atoms: C_17  and  C_18
REMARK   10  A    between atoms: N_20  and  O_21
REMARK                            x       y       z     vdW  Elec       q    Type
REMARK                         _______ _______ _______ _____ _____    ______ ____
ROOT
ATOM      1  C   UNL     1       6.534   4.750  16.911  0.00  0.00    +0.000 A 
ATOM      2  C   UNL     1       7.428   5.386  17.754  0.00  0.00    +0.000 A 
ATOM      3  S   UNL     1       6.840   5.317  19.377  0.00  0.00    +0.000 S 
ATOM      4  C   UNL     1       5.482   4.443  18.824  0.00  0.00    +0.000 A 
ATOM      5  N   UNL     1       4.585   4.038  19.772  0.00  0.00    +0.000 N 
ATOM      6  C   UNL     1       3.704   3.023  19.472  0.00  0.00    +0.000 C 
ATOM      7  O   UNL     1       3.641   2.396  18.425  0.00  0.00    +0.000 OA
ATOM      8  N   UNL     1       5.421   4.233  17.540  0.00  0.00    +0.000 NA
ATOM      9  H   UNL     1       4.640   4.460  20.690  0.00  0.00    +0.000 HD
ENDROOT
BRANCH   1  12
ATOM     10  C   UNL     1       7.788   5.316  13.416  0.00  0.00    +0.000 A 
ATOM     11  C   UNL     1       7.633   5.400  14.799  0.00  0.00    +0.000 A 
ATOM     12  C   UNL     1       6.687   4.605  15.476  0.00  0.00    +0.000 A 
ATOM     13  C   UNL     1       5.891   3.713  14.745  0.00  0.00    +0.000 A 
ATOM     14  C   UNL     1       6.043   3.610  13.368  0.00  0.00    +0.000 A 
ATOM     15  C   UNL     1       7.003   4.387  12.721  0.00  0.00    +0.000 A 
ATOM     16  F   UNL     1       7.149   4.261  11.393  0.00  0.00    +0.000 F 
BRANCH  10  17
ATOM     17  N   UNL     1       8.867   5.962  12.784  0.00  0.00    +0.000 N 
ATOM     18  H   UNL     1       8.976   5.724  11.803  0.00  0.00    +0.000 HD
ATOM     19  H   UNL     1       9.731   5.891  13.313  0.00  0.00    +0.000 HD
ENDBRANCH  10  17
ENDBRANCH   1  12
BRANCH   6  20
ATOM     20  C   UNL     1       2.783   2.643  20.622  0.00  0.00    +0.000 C 
BRANCH  20  21
ATOM     21  C   UNL     1       1.346   3.059  20.283  0.00  0.00    +0.000 C 
BRANCH  21  22
ATOM     22  C   UNL     1       1.230   4.462  19.692  0.00  0.00    +0.000 C 
BRANCH  22  23
ATOM     23  C   UNL     1       1.468   5.538  20.752  0.00  0.00    +0.000 C 
BRANCH  23  24
ATOM     24  C   UNL     1       2.190   6.745  20.167  0.00  0.00    +0.000 C 
BRANCH  24  25
ATOM     25  C   UNL     1       2.440   6.601  18.668  0.00  0.00    +0.000 C 
BRANCH  25  26
ATOM     26  C   UNL     1       2.386   7.944  17.977  0.00  0.00    +0.000 C 
ATOM     27  O   UNL     1       3.012   8.231  16.959  0.00  0.00    +0.000 OA
ATOM     28  N   UNL     1       1.557   8.855  18.586  0.00  0.00    +0.000 N 
ATOM     29  H   UNL     1       1.012   8.696  19.423  0.00  0.00    +0.000 HD
BRANCH  28  30
ATOM     30  O   UNL     1       1.469  10.127  17.979  0.00  0.00    +0.000 OA
ATOM     31  H   UNL     1       1.588  10.733  18.746  0.00  0.00    +0.000 HD
ENDBRANCH  28  30
ENDBRANCH  25  26
ENDBRANCH  24  25
ENDBRANCH  23  24
ENDBRANCH  22  23
ENDBRANCH  21  22
ENDBRANCH  20  21
ENDBRANCH   6  20
TORSDOF 10
ENDMDL
