MODEL 1
REMARK VINA RESULT:      -8.2      0.000      0.000
REMARK  Name = 
REMARK  7 active torsions:
REMARK  status: ('A' for Active; 'I' for Inactive)
REMARK    1  A    between atoms: C_1  and  C_2
REMARK    2  A    between atoms: C_5  and  O_6
REMARK    3  A    between atoms: O_6  and  C_7
REMARK    4  A    between atoms: C_7  and  C_8
REMARK    5  A    between atoms: C_11  and  C_12
REMARK    6  A    between atoms: C_12  and  N_13
REMARK    7  A    between atoms: C_22  and  C_23
REMARK                            x       y       z     vdW  Elec       q    Type
REMARK                         _______ _______ _______ _____ _____    ______ ____
ROOT
ATOM      1  C   UNL     1       7.376   7.600  17.830  0.00  0.00    +0.000 A 
ATOM      2  C   UNL     1       6.151   7.479  17.160  0.00  0.00    +0.000 A 
ATOM      3  C   UNL     1       5.381   6.312  17.278  0.00  0.00    +0.000 A 
ATOM      4  C   UNL     1       5.821   5.246  18.076  0.00  0.00    +0.000 A 
ATOM      5  C   UNL     1       7.036   5.383  18.757  0.00  0.00    +0.000 A 
ATOM      6  C   UNL     1       7.804   6.541  18.635  0.00  0.00    +0.000 A 
ENDROOT
BRANCH   1   7
ATOM      7  C   UNL     1       8.203   8.857  17.749  0.00  0.00    +0.000 C 
BRANCH   7   8
ATOM      8  O   UNL     1       8.924   9.005  18.976  0.00  0.00    +0.000 OA
BRANCH   8  13
ATOM      9  C   UNL     1      10.792  14.286  19.837  0.00  0.00    +0.000 C 
ATOM     10  C   UNL     1      10.311  12.887  19.601  0.00  0.00    +0.000 A 
ATOM     11  C   UNL     1       9.856  12.141  20.700  0.00  0.00    +0.000 A 
ATOM     12  C   UNL     1       9.390  10.846  20.539  0.00  0.00    +0.000 A 
ATOM     13  C   UNL     1       9.361  10.265  19.273  0.00  0.00    +0.000 A 
ATOM     14  C   UNL     1       9.816  10.999  18.172  0.00  0.00    +0.000 A 
ATOM     15  C   UNL     1      10.298  12.310  18.321  0.00  0.00    +0.000 A 
ATOM     16  C   UNL     1      10.789  13.057  17.115  0.00  0.00    +0.000 C 
ENDBRANCH   8  13
ENDBRANCH   7   8
ENDBRANCH   1   7
BRANCH   4  17
ATOM     17  C   UNL     1       4.970   3.999  18.241  0.00  0.00    +0.000 C 
BRANCH  17  18
ATOM     18  N   UNL     1       3.524   4.252  18.499  0.00  0.00    +0.000 NA
ATOM     19  C   UNL     1       2.688   3.115  18.081  0.00  0.00    +0.000 C 
ATOM     20  C   UNL     1       1.220   3.241  18.491  0.00  0.00    +0.000 C 
ATOM     21  C   UNL     1       1.077   3.556  19.972  0.00  0.00    +0.000 C 
ATOM     22  C   UNL     1       1.850   4.825  20.296  0.00  0.00    +0.000 C 
ATOM     23  C   UNL     1       3.318   4.703  19.887  0.00  0.00    +0.000 C 
ENDBRANCH  17  18
ENDBRANCH   4  17
TORSDOF 5
ENDMDL
MODEL 2
REMARK VINA RESULT:      -8.1      0.146      1.013
REMARK  Name = 
REMARK  7 active torsions:
REMARK  status: ('A' for Active; 'I' for Inactive)
REMARK    1  A    between atoms: C_1  and  C_2
REMARK    2  A    between atoms: C_5  and  O_6
REMARK    3  A    between atoms: O_6  and  C_7
REMARK    4  A    between atoms: C_7  and  C_8
REMARK    5  A    between atoms: C_11  and  C_12
REMARK    6  A    between atoms: C_12  and  N_13
REMARK    7  A    between atoms: C_22  and  C_23
REMARK                            x       y       z     vdW  Elec       q    Type
REMARK                         _______ _______ _______ _____ _____    ______ ____
ROOT
ATOM      1  C   UNL     1       7.318   7.554  17.832  0.00  0.00    +0.000 A 
ATOM      2  C   UNL     1       7.710   6.441  18.588  0.00  0.00    +0.000 A 
ATOM      3  C   UNL     1       6.910   5.290  18.637  0.00  0.00    +0.000 A 
ATOM      4  C   UNL     1       5.704   5.228  17.924  0.00  0.00    +0.000 A 
ATOM      5  C   UNL     1       5.331   6.337  17.155  0.00  0.00    +0.000 A 
ATOM      6  C   UNL     1       6.122   7.484  17.111  0.00  0.00    +0.000 A 
ENDROOT
BRANCH   1   7
ATOM      7  C   UNL     1       8.177   8.788  17.732  0.00  0.00    +0.000 C 
BRANCH   7   8
ATOM      8  O   UNL     1       8.905   8.935  18.955  0.00  0.00    +0.000 OA
BRANCH   8  13
ATOM      9  C   UNL     1      10.740  14.225  19.833  0.00  0.00    +0.000 C 
ATOM     10  C   UNL     1      10.267  12.824  19.592  0.00  0.00    +0.000 A 
ATOM     11  C   UNL     1       9.820  12.070  20.689  0.00  0.00    +0.000 A 
ATOM     12  C   UNL     1       9.362  10.772  20.524  0.00  0.00    +0.000 A 
ATOM     13  C   UNL     1       9.334  10.196  19.256  0.00  0.00    +0.000 A 
ATOM     14  C   UNL     1       9.781  10.938  18.156  0.00  0.00    +0.000 A 
ATOM     15  C   UNL     1      10.255  12.252  18.310  0.00  0.00    +0.000 A 
ATOM     16  C   UNL     1      10.737  13.007  17.106  0.00  0.00    +0.000 C 
ENDBRANCH   8  13
ENDBRANCH   7   8
ENDBRANCH   1   7
BRANCH   4  17
ATOM     17  C   UNL     1       4.857   3.968  17.940  0.00  0.00    +0.000 C 
BRANCH  17  18
ATOM     18  N   UNL     1       3.437   4.169  18.348  0.00  0.00    +0.000 NA
ATOM     19  C   UNL     1       2.604   3.003  18.011  0.00  0.00    +0.000 C 
ATOM     20  C   UNL     1       1.182   3.075  18.572  0.00  0.00    +0.000 C 
ATOM     21  C   UNL     1       1.182   3.383  20.061  0.00  0.00    +0.000 C 
ATOM     22  C   UNL     1       1.938   4.679  20.311  0.00  0.00    +0.000 C 
ATOM     23  C   UNL     1       3.360   4.610  19.751  0.00  0.00    +0.000 C 
ENDBRANCH  17  18
ENDBRANCH   4  17
TORSDOF 5
ENDMDL
MODEL 3
REMARK VINA RESULT:      -8.1      0.358      1.466
REMARK  Name = 
REMARK  7 active torsions:
REMARK  status: ('A' for Active; 'I' for Inactive)
REMARK    1  A    between atoms: C_1  and  C_2
REMARK    2  A    between atoms: C_5  and  O_6
REMARK    3  A    between atoms: O_6  and  C_7
REMARK    4  A    between atoms: C_7  and  C_8
REMARK    5  A    between atoms: C_11  and  C_12
REMARK    6  A    between atoms: C_12  and  N_13
REMARK    7  A    between atoms: C_22  and  C_23
REMARK                            x       y       z     vdW  Elec       q    Type
REMARK                         _______ _______ _______ _____ _____    ______ ____
ROOT
ATOM      1  C   UNL     1       7.372   7.446  17.824  0.00  0.00    +0.000 A 
ATOM      2  C   UNL     1       6.149   7.261  17.167  0.00  0.00    +0.000 A 
ATOM      3  C   UNL     1       5.381   6.108  17.392  0.00  0.00    +0.000 A 
ATOM      4  C   UNL     1       5.820   5.122  18.286  0.00  0.00    +0.000 A 
ATOM      5  C   UNL     1       7.033   5.324  18.954  0.00  0.00    +0.000 A 
ATOM      6  C   UNL     1       7.801   6.466  18.726  0.00  0.00    +0.000 A 
ENDROOT
BRANCH   1   7
ATOM      7  C   UNL     1       8.198   8.690  17.629  0.00  0.00    +0.000 C 
BRANCH   7   8
ATOM      8  O   UNL     1       8.847   9.004  18.864  0.00  0.00    +0.000 OA
BRANCH   8  13
ATOM      9  C   UNL     1      10.753  14.265  19.764  0.00  0.00    +0.000 C 
ATOM     10  C   UNL     1      10.236  12.878  19.533  0.00  0.00    +0.000 A 
ATOM     11  C   UNL     1      10.320  12.339  18.240  0.00  0.00    +0.000 A 
ATOM     12  C   UNL     1       9.866  11.056  17.971  0.00  0.00    +0.000 A 
ATOM     13  C   UNL     1       9.324  10.278  18.991  0.00  0.00    +0.000 A 
ATOM     14  C   UNL     1       9.233  10.808  20.284  0.00  0.00    +0.000 A 
ATOM     15  C   UNL     1       9.681  12.109  20.568  0.00  0.00    +0.000 A 
ATOM     16  C   UNL     1       9.553  12.643  21.966  0.00  0.00    +0.000 C 
ENDBRANCH   8  13
ENDBRANCH   7   8
ENDBRANCH   1   7
BRANCH   4  17
ATOM     17  C   UNL     1       4.971   3.895  18.566  0.00  0.00    +0.000 C 
BRANCH  17  18
ATOM     18  N   UNL     1       3.509   4.157  18.704  0.00  0.00    +0.000 NA
ATOM     19  C   UNL     1       2.707   2.982  18.329  0.00  0.00    +0.000 C 
ATOM     20  C   UNL     1       1.214   3.130  18.627  0.00  0.00    +0.000 C 
ATOM     21  C   UNL     1       0.971   3.569  20.063  0.00  0.00    +0.000 C 
ATOM     22  C   UNL     1       1.717   4.868  20.329  0.00  0.00    +0.000 C 
ATOM     23  C   UNL     1       3.209   4.723  20.031  0.00  0.00    +0.000 C 
ENDBRANCH  17  18
ENDBRANCH   4  17
TORSDOF 5
ENDMDL
MODEL 4
REMARK VINA RESULT:      -7.9      0.888      1.004
REMARK  Name = 
REMARK  7 active torsions:
REMARK  status: ('A' for Active; 'I' for Inactive)
REMARK    1  A    between atoms: C_1  and  C_2
REMARK    2  A    between atoms: C_5  and  O_6
REMARK    3  A    between atoms: O_6  and  C_7
REMARK    4  A    between atoms: C_7  and  C_8
REMARK    5  A    between atoms: C_11  and  C_12
REMARK    6  A    between atoms: C_12  and  N_13
REMARK    7  A    between atoms: C_22  and  C_23
REMARK                            x       y       z     vdW  Elec       q    Type
REMARK                         _______ _______ _______ _____ _____    ______ ____
ROOT
ATOM      1  C   UNL     1       7.535   7.382  17.793  0.00  0.00    +0.000 A 
ATOM      2  C   UNL     1       6.273   7.095  17.256  0.00  0.00    +0.000 A 
ATOM      3  C   UNL     1       5.524   6.006  17.728  0.00  0.00    +0.000 A 
ATOM      4  C   UNL     1       6.022   5.188  18.752  0.00  0.00    +0.000 A 
ATOM      5  C   UNL     1       7.275   5.494  19.296  0.00  0.00    +0.000 A 
ATOM      6  C   UNL     1       8.023   6.572  18.823  0.00  0.00    +0.000 A 
ENDROOT
BRANCH   1   7
ATOM      7  C   UNL     1       8.344   8.566  17.330  0.00  0.00    +0.000 C 
BRANCH   7   8
ATOM      8  O   UNL     1       7.965   9.706  18.107  0.00  0.00    +0.000 OA
BRANCH   8  13
ATOM      9  C   UNL     1      12.215  13.082  19.738  0.00  0.00    +0.000 C 
ATOM     10  C   UNL     1      11.100  12.185  19.295  0.00  0.00    +0.000 A 
ATOM     11  C   UNL     1      10.519  11.323  20.238  0.00  0.00    +0.000 A 
ATOM     12  C   UNL     1       9.477  10.478  19.886  0.00  0.00    +0.000 A 
ATOM     13  C   UNL     1       8.985  10.480  18.583  0.00  0.00    +0.000 A 
ATOM     14  C   UNL     1       9.560  11.334  17.634  0.00  0.00    +0.000 A 
ATOM     15  C   UNL     1      10.621  12.189  17.975  0.00  0.00    +0.000 A 
ATOM     16  C   UNL     1      11.217  13.080  16.923  0.00  0.00    +0.000 C 
ENDBRANCH   8  13
ENDBRANCH   7   8
ENDBRANCH   1   7
BRANCH   4  17
ATOM     17  C   UNL     1       5.195   4.036  19.295  0.00  0.00    +0.000 C 
BRANCH  17  18
ATOM     18  N   UNL     1       3.848   3.879  18.675  0.00  0.00    +0.000 NA
ATOM     19  C   UNL     1       3.677   2.548  18.072  0.00  0.00    +0.000 C 
ATOM     20  C   UNL     1       2.253   2.266  17.588  0.00  0.00    +0.000 C 
ATOM     21  C   UNL     1       1.225   2.553  18.671  0.00  0.00    +0.000 C 
ATOM     22  C   UNL     1       1.372   3.992  19.140  0.00  0.00    +0.000 C 
ATOM     23  C   UNL     1       2.794   4.277  19.625  0.00  0.00    +0.000 C 
ENDBRANCH  17  18
ENDBRANCH   4  17
TORSDOF 5
ENDMDL
MODEL 5
REMARK VINA RESULT:      -7.8      0.715      1.892
REMARK  Name = 
REMARK  7 active torsions:
REMARK  status: ('A' for Active; 'I' for Inactive)
REMARK    1  A    between atoms: C_1  and  C_2
REMARK    2  A    between atoms: C_5  and  O_6
REMARK    3  A    between atoms: O_6  and  C_7
REMARK    4  A    between atoms: C_7  and  C_8
REMARK    5  A    between atoms: C_11  and  C_12
REMARK    6  A    between atoms: C_12  and  N_13
REMARK    7  A    between atoms: C_22  and  C_23
REMARK                            x       y       z     vdW  Elec       q    Type
REMARK                         _______ _______ _______ _____ _____    ______ ____
ROOT
ATOM      1  C   UNL     1       7.474   7.592  17.858  0.00  0.00    +0.000 A 
ATOM      2  C   UNL     1       7.904   6.537  18.674  0.00  0.00    +0.000 A 
ATOM      3  C   UNL     1       7.161   5.351  18.764  0.00  0.00    +0.000 A 
ATOM      4  C   UNL     1       5.975   5.195  18.032  0.00  0.00    +0.000 A 
ATOM      5  C   UNL     1       5.564   6.246  17.204  0.00  0.00    +0.000 A 
ATOM      6  C   UNL     1       6.299   7.428  17.119  0.00  0.00    +0.000 A 
ENDROOT
BRANCH   1   7
ATOM      7  C   UNL     1       8.273   8.861  17.716  0.00  0.00    +0.000 C 
BRANCH   7   8
ATOM      8  O   UNL     1       8.952   9.111  18.949  0.00  0.00    +0.000 OA
BRANCH   8  13
ATOM      9  C   UNL     1      10.916  14.318  20.023  0.00  0.00    +0.000 C 
ATOM     10  C   UNL     1      10.384  12.946  19.746  0.00  0.00    +0.000 A 
ATOM     11  C   UNL     1      10.574  12.400  18.466  0.00  0.00    +0.000 A 
ATOM     12  C   UNL     1      10.110  11.131  18.156  0.00  0.00    +0.000 A 
ATOM     13  C   UNL     1       9.452  10.371  19.121  0.00  0.00    +0.000 A 
ATOM     14  C   UNL     1       9.255  10.908  20.399  0.00  0.00    +0.000 A 
ATOM     15  C   UNL     1       9.711  12.196  20.724  0.00  0.00    +0.000 A 
ATOM     16  C   UNL     1       9.467  12.738  22.103  0.00  0.00    +0.000 C 
ENDBRANCH   8  13
ENDBRANCH   7   8
ENDBRANCH   1   7
BRANCH   4  17
ATOM     17  C   UNL     1       5.191   3.896  18.092  0.00  0.00    +0.000 C 
BRANCH  17  18
ATOM     18  N   UNL     1       3.804   4.021  18.627  0.00  0.00    +0.000 NA
ATOM     19  C   UNL     1       2.797   3.911  17.560  0.00  0.00    +0.000 C 
ATOM     20  C   UNL     1       1.357   3.845  18.072  0.00  0.00    +0.000 C 
ATOM     21  C   UNL     1       1.191   2.779  19.145  0.00  0.00    +0.000 C 
ATOM     22  C   UNL     1       2.167   3.047  20.280  0.00  0.00    +0.000 C 
ATOM     23  C   UNL     1       3.608   3.114  19.771  0.00  0.00    +0.000 C 
ENDBRANCH  17  18
ENDBRANCH   4  17
TORSDOF 5
ENDMDL
MODEL 6
REMARK VINA RESULT:      -7.8      0.736      1.579
REMARK  Name = 
REMARK  7 active torsions:
REMARK  status: ('A' for Active; 'I' for Inactive)
REMARK    1  A    between atoms: C_1  and  C_2
REMARK    2  A    between atoms: C_5  and  O_6
REMARK    3  A    between atoms: O_6  and  C_7
REMARK    4  A    between atoms: C_7  and  C_8
REMARK    5  A    between atoms: C_11  and  C_12
REMARK    6  A    between atoms: C_12  and  N_13
REMARK    7  A    between atoms: C_22  and  C_23
REMARK                            x       y       z     vdW  Elec       q    Type
REMARK                         _______ _______ _______ _____ _____    ______ ____
ROOT
ATOM      1  C   UNL     1       7.483   7.086  18.128  0.00  0.00    +0.000 A 
ATOM      2  C   UNL     1       7.416   5.905  18.878  0.00  0.00    +0.000 A 
ATOM      3  C   UNL     1       6.338   5.019  18.727  0.00  0.00    +0.000 A 
ATOM      4  C   UNL     1       5.310   5.297  17.815  0.00  0.00    +0.000 A 
ATOM      5  C   UNL     1       5.396   6.469  17.054  0.00  0.00    +0.000 A 
ATOM      6  C   UNL     1       6.463   7.353  17.209  0.00  0.00    +0.000 A 
ENDROOT
BRANCH   1   7
ATOM      7  C   UNL     1       8.648   8.034  18.244  0.00  0.00    +0.000 C 
BRANCH   7   8
ATOM      8  O   UNL     1       8.140   9.369  18.322  0.00  0.00    +0.000 OA
BRANCH   8  13
ATOM      9  C   UNL     1      11.769  13.419  19.921  0.00  0.00    +0.000 C 
ATOM     10  C   UNL     1      10.820  12.343  19.488  0.00  0.00    +0.000 A 
ATOM     11  C   UNL     1      10.193  11.567  20.475  0.00  0.00    +0.000 A 
ATOM     12  C   UNL     1       9.298  10.565  20.133  0.00  0.00    +0.000 A 
ATOM     13  C   UNL     1       9.002  10.318  18.794  0.00  0.00    +0.000 A 
ATOM     14  C   UNL     1       9.625  11.085  17.802  0.00  0.00    +0.000 A 
ATOM     15  C   UNL     1      10.540  12.098  18.134  0.00  0.00    +0.000 A 
ATOM     16  C   UNL     1      11.195  12.888  17.038  0.00  0.00    +0.000 C 
ENDBRANCH   8  13
ENDBRANCH   7   8
ENDBRANCH   1   7
BRANCH   4  17
ATOM     17  C   UNL     1       4.164   4.321  17.617  0.00  0.00    +0.000 C 
BRANCH  17  18
ATOM     18  N   UNL     1       3.451   3.924  18.866  0.00  0.00    +0.000 NA
ATOM     19  C   UNL     1       2.927   5.094  19.589  0.00  0.00    +0.000 C 
ATOM     20  C   UNL     1       2.029   4.738  20.775  0.00  0.00    +0.000 C 
ATOM     21  C   UNL     1       0.935   3.760  20.376  0.00  0.00    +0.000 C 
ATOM     22  C   UNL     1       1.564   2.516  19.769  0.00  0.00    +0.000 C 
ATOM     23  C   UNL     1       2.463   2.868  18.583  0.00  0.00    +0.000 C 
ENDBRANCH  17  18
ENDBRANCH   4  17
TORSDOF 5
ENDMDL
MODEL 7
REMARK VINA RESULT:      -7.7      0.938      1.575
REMARK  Name = 
REMARK  7 active torsions:
REMARK  status: ('A' for Active; 'I' for Inactive)
REMARK    1  A    between atoms: C_1  and  C_2
REMARK    2  A    between atoms: C_5  and  O_6
REMARK    3  A    between atoms: O_6  and  C_7
REMARK    4  A    between atoms: C_7  and  C_8
REMARK    5  A    between atoms: C_11  and  C_12
REMARK    6  A    between atoms: C_12  and  N_13
REMARK    7  A    between atoms: C_22  and  C_23
REMARK                            x       y       z     vdW  Elec       q    Type
REMARK                         _______ _______ _______ _____ _____    ______ ____
ROOT
ATOM      1  C   UNL     1       7.771   7.931  18.014  0.00  0.00    +0.000 A 
ATOM      2  C   UNL     1       8.137   6.842  18.815  0.00  0.00    +0.000 A 
ATOM      3  C   UNL     1       7.338   5.690  18.868  0.00  0.00    +0.000 A 
ATOM      4  C   UNL     1       6.160   5.604  18.113  0.00  0.00    +0.000 A 
ATOM      5  C   UNL     1       5.812   6.689  17.299  0.00  0.00    +0.000 A 
ATOM      6  C   UNL     1       6.602   7.837  17.252  0.00  0.00    +0.000 A 
ENDROOT
BRANCH   1   7
ATOM      7  C   UNL     1       8.630   9.165  17.911  0.00  0.00    +0.000 C 
BRANCH   7   8
ATOM      8  O   UNL     1       8.994   9.576  19.231  0.00  0.00    +0.000 OA
BRANCH   8  13
ATOM      9  C   UNL     1      11.885  14.452  19.261  0.00  0.00    +0.000 C 
ATOM     10  C   UNL     1      11.131  13.157  19.243  0.00  0.00    +0.000 A 
ATOM     11  C   UNL     1      10.764  12.579  20.469  0.00  0.00    +0.000 A 
ATOM     12  C   UNL     1      10.057  11.387  20.512  0.00  0.00    +0.000 A 
ATOM     13  C   UNL     1       9.692  10.746  19.330  0.00  0.00    +0.000 A 
ATOM     14  C   UNL     1      10.056  11.314  18.103  0.00  0.00    +0.000 A 
ATOM     15  C   UNL     1      10.779  12.516  18.044  0.00  0.00    +0.000 A 
ATOM     16  C   UNL     1      11.160  13.083  16.707  0.00  0.00    +0.000 C 
ENDBRANCH   8  13
ENDBRANCH   7   8
ENDBRANCH   1   7
BRANCH   4  17
ATOM     17  C   UNL     1       5.315   4.342  18.134  0.00  0.00    +0.000 C 
BRANCH  17  18
ATOM     18  N   UNL     1       4.425   4.199  19.321  0.00  0.00    +0.000 NA
ATOM     19  C   UNL     1       3.243   5.071  19.225  0.00  0.00    +0.000 C 
ATOM     20  C   UNL     1       2.204   4.831  20.321  0.00  0.00    +0.000 C 
ATOM     21  C   UNL     1       1.837   3.359  20.432  0.00  0.00    +0.000 C 
ATOM     22  C   UNL     1       3.094   2.540  20.676  0.00  0.00    +0.000 C 
ATOM     23  C   UNL     1       4.135   2.778  19.582  0.00  0.00    +0.000 C 
ENDBRANCH  17  18
ENDBRANCH   4  17
TORSDOF 5
ENDMDL
MODEL 8
REMARK VINA RESULT:      -7.7      4.413      6.570
REMARK  Name = 
REMARK  7 active torsions:
REMARK  status: ('A' for Active; 'I' for Inactive)
REMARK    1  A    between atoms: C_1  and  C_2
REMARK    2  A    between atoms: C_5  and  O_6
REMARK    3  A    between atoms: O_6  and  C_7
REMARK    4  A    between atoms: C_7  and  C_8
REMARK    5  A    between atoms: C_11  and  C_12
REMARK    6  A    between atoms: C_12  and  N_13
REMARK    7  A    between atoms: C_22  and  C_23
REMARK                            x       y       z     vdW  Elec       q    Type
REMARK                         _______ _______ _______ _____ _____    ______ ____
ROOT
ATOM      1  C   UNL     1       5.970   6.221  17.772  0.00  0.00    +0.000 A 
ATOM      2  C   UNL     1       4.893   6.954  17.258  0.00  0.00    +0.000 A 
ATOM      3  C   UNL     1       3.634   6.907  17.876  0.00  0.00    +0.000 A 
ATOM      4  C   UNL     1       3.432   6.131  19.027  0.00  0.00    +0.000 A 
ATOM      5  C   UNL     1       4.520   5.418  19.545  0.00  0.00    +0.000 A 
ATOM      6  C   UNL     1       5.769   5.459  18.927  0.00  0.00    +0.000 A 
ENDROOT
BRANCH   1   7
ATOM      7  C   UNL     1       7.341   6.282  17.150  0.00  0.00    +0.000 C 
BRANCH   7   8
ATOM      8  O   UNL     1       7.679   4.979  16.667  0.00  0.00    +0.000 OA
BRANCH   8  13
ATOM      9  C   UNL     1       5.080   3.323  11.911  0.00  0.00    +0.000 C 
ATOM     10  C   UNL     1       5.767   3.775  13.163  0.00  0.00    +0.000 A 
ATOM     11  C   UNL     1       5.236   3.377  14.400  0.00  0.00    +0.000 A 
ATOM     12  C   UNL     1       5.837   3.758  15.590  0.00  0.00    +0.000 A 
ATOM     13  C   UNL     1       6.989   4.541  15.573  0.00  0.00    +0.000 A 
ATOM     14  C   UNL     1       7.524   4.945  14.344  0.00  0.00    +0.000 A 
ATOM     15  C   UNL     1       6.922   4.574  13.132  0.00  0.00    +0.000 A 
ATOM     16  C   UNL     1       7.522   5.040  11.837  0.00  0.00    +0.000 C 
ENDBRANCH   8  13
ENDBRANCH   7   8
ENDBRANCH   1   7
BRANCH   4  17
ATOM     17  C   UNL     1       2.083   6.113  19.723  0.00  0.00    +0.000 C 
BRANCH  17  18
ATOM     18  N   UNL     1       1.454   4.766  19.843  0.00  0.00    +0.000 NA
ATOM     19  C   UNL     1       1.518   4.020  18.576  0.00  0.00    +0.000 C 
ATOM     20  C   UNL     1       1.057   2.566  18.690  0.00  0.00    +0.000 C 
ATOM     21  C   UNL     1       1.758   1.843  19.829  0.00  0.00    +0.000 C 
ATOM     22  C   UNL     1       1.523   2.597  21.128  0.00  0.00    +0.000 C 
ATOM     23  C   UNL     1       1.983   4.051  21.018  0.00  0.00    +0.000 C 
ENDBRANCH  17  18
ENDBRANCH   4  17
TORSDOF 5
ENDMDL
MODEL 9
REMARK VINA RESULT:      -7.7      2.421      9.498
REMARK  Name = 
REMARK  7 active torsions:
REMARK  status: ('A' for Active; 'I' for Inactive)
REMARK    1  A    between atoms: C_1  and  C_2
REMARK    2  A    between atoms: C_5  and  O_6
REMARK    3  A    between atoms: O_6  and  C_7
REMARK    4  A    between atoms: C_7  and  C_8
REMARK    5  A    between atoms: C_11  and  C_12
REMARK    6  A    between atoms: C_12  and  N_13
REMARK    7  A    between atoms: C_22  and  C_23
REMARK                            x       y       z     vdW  Elec       q    Type
REMARK                         _______ _______ _______ _____ _____    ______ ____
ROOT
ATOM      1  C   UNL     1       7.157   5.963  17.942  0.00  0.00    +0.000 A 
ATOM      2  C   UNL     1       8.120   6.430  18.846  0.00  0.00    +0.000 A 
ATOM      3  C   UNL     1       8.502   7.780  18.855  0.00  0.00    +0.000 A 
ATOM      4  C   UNL     1       7.919   8.691  17.963  0.00  0.00    +0.000 A 
ATOM      5  C   UNL     1       6.942   8.221  17.077  0.00  0.00    +0.000 A 
ATOM      6  C   UNL     1       6.568   6.877  17.063  0.00  0.00    +0.000 A 
ENDROOT
BRANCH   1   7
ATOM      7  C   UNL     1       6.703   4.527  17.937  0.00  0.00    +0.000 C 
BRANCH   7   8
ATOM      8  O   UNL     1       5.928   4.291  19.116  0.00  0.00    +0.000 OA
BRANCH   8  13
ATOM      9  C   UNL     1       0.626   2.335  18.683  0.00  0.00    +0.000 C 
ATOM     10  C   UNL     1       2.030   2.843  18.810  0.00  0.00    +0.000 A 
ATOM     11  C   UNL     1       2.823   2.913  17.653  0.00  0.00    +0.000 A 
ATOM     12  C   UNL     1       4.126   3.384  17.710  0.00  0.00    +0.000 A 
ATOM     13  C   UNL     1       4.666   3.804  18.923  0.00  0.00    +0.000 A 
ATOM     14  C   UNL     1       3.884   3.735  20.082  0.00  0.00    +0.000 A 
ATOM     15  C   UNL     1       2.566   3.252  20.041  0.00  0.00    +0.000 A 
ATOM     16  C   UNL     1       1.767   3.182  21.310  0.00  0.00    +0.000 C 
ENDBRANCH   8  13
ENDBRANCH   7   8
ENDBRANCH   1   7
BRANCH   4  17
ATOM     17  C   UNL     1       8.296  10.161  17.999  0.00  0.00    +0.000 C 
BRANCH  17  18
ATOM     18  N   UNL     1       9.548  10.473  18.747  0.00  0.00    +0.000 NA
ATOM     19  C   UNL     1      10.549  11.126  17.888  0.00  0.00    +0.000 C 
ATOM     20  C   UNL     1      11.777  11.635  18.645  0.00  0.00    +0.000 C 
ATOM     21  C   UNL     1      11.384  12.491  19.840  0.00  0.00    +0.000 C 
ATOM     22  C   UNL     1      10.466  11.694  20.753  0.00  0.00    +0.000 C 
ATOM     23  C   UNL     1       9.237  11.184  20.000  0.00  0.00    +0.000 C 
ENDBRANCH  17  18
ENDBRANCH   4  17
TORSDOF 5
ENDMDL
