MODEL 1
REMARK VINA RESULT:      -8.0      0.000      0.000
REMARK  Name = 
REMARK  7 active torsions:
REMARK  status: ('A' for Active; 'I' for Inactive)
REMARK    1  A    between atoms: C_1  and  C_2
REMARK    2  A    between atoms: C_2  and  C_3
REMARK    3  A    between atoms: C_3  and  O_4
REMARK    4  A    between atoms: N_7  and  C_8
REMARK    5  A    between atoms: C_12  and  C_13
REMARK    6  A    between atoms: C_14  and  C_15
REMARK    7  A    between atoms: C_16  and  C_17
REMARK                            x       y       z     vdW  Elec       q    Type
REMARK                         _______ _______ _______ _____ _____    ______ ____
ROOT
ATOM      1  C   UNL     1       4.964   4.171  16.850  0.00  0.00    +0.000 A 
ATOM      2  N   UNL     1       5.965   3.588  16.154  0.00  0.00    +0.000 NA
ATOM      3  C   UNL     1       6.989   4.362  15.765  0.00  0.00    +0.000 A 
ATOM      4  N   UNL     1       7.128   5.670  16.005  0.00  0.00    +0.000 NA
ATOM      5  C   UNL     1       6.141   6.245  16.726  0.00  0.00    +0.000 A 
ATOM      6  C   UNL     1       6.305   7.710  17.017  0.00  0.00    +0.000 C 
ATOM      7  C   UNL     1       5.034   5.532  17.184  0.00  0.00    +0.000 A 
ENDROOT
BRANCH   1  11
ATOM      8  C   UNL     1       1.662   2.966  19.018  0.00  0.00    +0.000 C 
ATOM      9  C   UNL     1       1.611   3.986  17.865  0.00  0.00    +0.000 C 
ATOM     10  C   UNL     1       2.562   3.625  16.723  0.00  0.00    +0.000 C 
ATOM     11  N   UNL     1       3.907   3.356  17.220  0.00  0.00    +0.000 N 
ATOM     12  C   UNL     1       4.018   2.380  18.299  0.00  0.00    +0.000 C 
ATOM     13  C   UNL     1       3.110   2.749  19.460  0.00  0.00    +0.000 C 
BRANCH   8  15
ATOM     14  C   UNL     1       1.410   3.182  21.573  0.00  0.00    +0.000 C 
ATOM     15  C   UNL     1       0.794   3.446  20.201  0.00  0.00    +0.000 C 
ENDBRANCH   8  15
BRANCH   8  16
ATOM     16  O   UNL     1       1.144   1.714  18.555  0.00  0.00    +0.000 OA
ATOM     17  H   UNL     1       0.921   1.172  19.331  0.00  0.00    +0.000 HD
ENDBRANCH   8  16
ENDBRANCH   1  11
BRANCH   7  18
ATOM     18  C   UNL     1       4.047   6.177  18.008  0.00  0.00    +0.000 C 
ATOM     19  C   UNL     1       3.249   6.793  18.656  0.00  0.00    +0.000 C 
BRANCH  19  20
ATOM     20  C   UNL     1       2.321   7.592  19.393  0.00  0.00    +0.000 A 
ATOM     21  C   UNL     1       1.881   7.190  20.646  0.00  0.00    +0.000 A 
ATOM     22  C   UNL     1       0.940   7.968  21.317  0.00  0.00    +0.000 A 
ATOM     23  C   UNL     1       0.465   9.124  20.710  0.00  0.00    +0.000 A 
ATOM     24  N   UNL     1      -0.499   9.904  21.344  0.00  0.00    +0.000 N 
ATOM     25  N   UNL     1       0.911   9.559  19.521  0.00  0.00    +0.000 NA
ATOM     26  C   UNL     1       1.833   8.790  18.888  0.00  0.00    +0.000 A 
ATOM     27  H   UNL     1      -1.307   9.351  21.607  0.00  0.00    +0.000 HD
ATOM     28  H   UNL     1      -0.746  10.649  20.699  0.00  0.00    +0.000 HD
ENDBRANCH  19  20
ENDBRANCH   7  18
TORSDOF 5
ENDMDL
MODEL 2
REMARK VINA RESULT:      -7.9      2.218      4.749
REMARK  Name = 
REMARK  7 active torsions:
REMARK  status: ('A' for Active; 'I' for Inactive)
REMARK    1  A    between atoms: C_1  and  C_2
REMARK    2  A    between atoms: C_2  and  C_3
REMARK    3  A    between atoms: C_3  and  O_4
REMARK    4  A    between atoms: N_7  and  C_8
REMARK    5  A    between atoms: C_12  and  C_13
REMARK    6  A    between atoms: C_14  and  C_15
REMARK    7  A    between atoms: C_16  and  C_17
REMARK                            x       y       z     vdW  Elec       q    Type
REMARK                         _______ _______ _______ _____ _____    ______ ____
ROOT
ATOM      1  C   UNL     1       3.912   3.870  18.408  0.00  0.00    +0.000 A 
ATOM      2  N   UNL     1       4.088   2.577  18.057  0.00  0.00    +0.000 NA
ATOM      3  C   UNL     1       3.201   1.680  18.513  0.00  0.00    +0.000 A 
ATOM      4  N   UNL     1       2.141   1.937  19.286  0.00  0.00    +0.000 NA
ATOM      5  C   UNL     1       1.950   3.234  19.612  0.00  0.00    +0.000 A 
ATOM      6  C   UNL     1       0.746   3.530  20.461  0.00  0.00    +0.000 C 
ATOM      7  C   UNL     1       2.808   4.248  19.188  0.00  0.00    +0.000 A 
ENDROOT
BRANCH   1  11
ATOM      8  C   UNL     1       6.722   5.454  15.830  0.00  0.00    +0.000 C 
ATOM      9  C   UNL     1       5.201   5.613  15.650  0.00  0.00    +0.000 C 
ATOM     10  C   UNL     1       4.472   5.802  16.982  0.00  0.00    +0.000 C 
ATOM     11  N   UNL     1       4.853   4.774  17.944  0.00  0.00    +0.000 N 
ATOM     12  C   UNL     1       6.283   4.594  18.171  0.00  0.00    +0.000 C 
ATOM     13  C   UNL     1       7.016   4.363  16.860  0.00  0.00    +0.000 C 
BRANCH   8  15
ATOM     14  C   UNL     1       6.610   4.140  13.617  0.00  0.00    +0.000 C 
ATOM     15  C   UNL     1       7.393   5.128  14.479  0.00  0.00    +0.000 C 
ENDBRANCH   8  15
BRANCH   8  16
ATOM     16  O   UNL     1       7.265   6.686  16.319  0.00  0.00    +0.000 OA
ATOM     17  H   UNL     1       8.204   6.543  16.525  0.00  0.00    +0.000 HD
ENDBRANCH   8  16
ENDBRANCH   1  11
BRANCH   7  18
ATOM     18  C   UNL     1       2.519   5.621  19.504  0.00  0.00    +0.000 C 
ATOM     19  C   UNL     1       2.189   6.743  19.767  0.00  0.00    +0.000 C 
BRANCH  19  20
ATOM     20  C   UNL     1       1.723   8.057  20.081  0.00  0.00    +0.000 A 
ATOM     21  C   UNL     1       1.396   8.398  21.385  0.00  0.00    +0.000 A 
ATOM     22  C   UNL     1       0.900   9.673  21.648  0.00  0.00    +0.000 A 
ATOM     23  C   UNL     1       0.740  10.566  20.596  0.00  0.00    +0.000 A 
ATOM     24  N   UNL     1       0.216  11.835  20.826  0.00  0.00    +0.000 N 
ATOM     25  N   UNL     1       1.094  10.274  19.334  0.00  0.00    +0.000 NA
ATOM     26  C   UNL     1       1.583   9.031  19.101  0.00  0.00    +0.000 A 
ATOM     27  H   UNL     1      -0.672  11.786  21.312  0.00  0.00    +0.000 HD
ATOM     28  H   UNL     1       0.124  12.285  19.919  0.00  0.00    +0.000 HD
ENDBRANCH  19  20
ENDBRANCH   7  18
TORSDOF 5
ENDMDL
MODEL 3
REMARK VINA RESULT:      -7.8      2.540      4.871
REMARK  Name = 
REMARK  7 active torsions:
REMARK  status: ('A' for Active; 'I' for Inactive)
REMARK    1  A    between atoms: C_1  and  C_2
REMARK    2  A    between atoms: C_2  and  C_3
REMARK    3  A    between atoms: C_3  and  O_4
REMARK    4  A    between atoms: N_7  and  C_8
REMARK    5  A    between atoms: C_12  and  C_13
REMARK    6  A    between atoms: C_14  and  C_15
REMARK    7  A    between atoms: C_16  and  C_17
REMARK                            x       y       z     vdW  Elec       q    Type
REMARK                         _______ _______ _______ _____ _____    ______ ____
ROOT
ATOM      1  C   UNL     1       4.604   4.111  19.219  0.00  0.00    +0.000 A 
ATOM      2  N   UNL     1       5.071   2.855  19.394  0.00  0.00    +0.000 NA
ATOM      3  C   UNL     1       4.348   2.020  20.154  0.00  0.00    +0.000 A 
ATOM      4  N   UNL     1       3.191   2.303  20.762  0.00  0.00    +0.000 NA
ATOM      5  C   UNL     1       2.711   3.551  20.564  0.00  0.00    +0.000 A 
ATOM      6  C   UNL     1       1.400   3.865  21.227  0.00  0.00    +0.000 C 
ATOM      7  C   UNL     1       3.380   4.496  19.787  0.00  0.00    +0.000 A 
ENDROOT
BRANCH   1  11
ATOM      8  C   UNL     1       6.850   5.321  15.973  0.00  0.00    +0.000 C 
ATOM      9  C   UNL     1       5.311   5.345  16.012  0.00  0.00    +0.000 C 
ATOM     10  C   UNL     1       4.769   5.750  17.383  0.00  0.00    +0.000 C 
ATOM     11  N   UNL     1       5.379   4.961  18.448  0.00  0.00    +0.000 N 
ATOM     12  C   UNL     1       6.837   4.922  18.473  0.00  0.00    +0.000 C 
ATOM     13  C   UNL     1       7.391   4.479  17.129  0.00  0.00    +0.000 C 
BRANCH   8  15
ATOM     14  C   UNL     1       6.279   4.031  13.817  0.00  0.00    +0.000 C 
ATOM     15  C   UNL     1       7.347   4.774  14.617  0.00  0.00    +0.000 C 
ENDBRANCH   8  15
BRANCH   8  16
ATOM     16  O   UNL     1       7.341   6.658  16.127  0.00  0.00    +0.000 OA
ATOM     17  H   UNL     1       7.760   6.926  15.292  0.00  0.00    +0.000 HD
ENDBRANCH   8  16
ENDBRANCH   1  11
BRANCH   7  18
ATOM     18  C   UNL     1       2.789   5.786  19.549  0.00  0.00    +0.000 C 
ATOM     19  C   UNL     1       2.382   6.897  19.354  0.00  0.00    +0.000 C 
BRANCH  19  20
ATOM     20  C   UNL     1       1.969   8.246  19.127  0.00  0.00    +0.000 A 
ATOM     21  C   UNL     1       1.234   8.930  20.083  0.00  0.00    +0.000 A 
ATOM     22  C   UNL     1       0.806  10.228  19.810  0.00  0.00    +0.000 A 
ATOM     23  C   UNL     1       1.124  10.799  18.584  0.00  0.00    +0.000 A 
ATOM     24  N   UNL     1       0.684  12.082  18.272  0.00  0.00    +0.000 N 
ATOM     25  N   UNL     1       1.876  10.174  17.663  0.00  0.00    +0.000 NA
ATOM     26  C   UNL     1       2.288   8.914  17.953  0.00  0.00    +0.000 A 
ATOM     27  H   UNL     1      -0.319  12.167  18.388  0.00  0.00    +0.000 HD
ATOM     28  H   UNL     1       0.969  12.267  17.314  0.00  0.00    +0.000 HD
ENDBRANCH  19  20
ENDBRANCH   7  18
TORSDOF 5
ENDMDL
MODEL 4
REMARK VINA RESULT:      -7.8      2.277      4.869
REMARK  Name = 
REMARK  7 active torsions:
REMARK  status: ('A' for Active; 'I' for Inactive)
REMARK    1  A    between atoms: C_1  and  C_2
REMARK    2  A    between atoms: C_2  and  C_3
REMARK    3  A    between atoms: C_3  and  O_4
REMARK    4  A    between atoms: N_7  and  C_8
REMARK    5  A    between atoms: C_12  and  C_13
REMARK    6  A    between atoms: C_14  and  C_15
REMARK    7  A    between atoms: C_16  and  C_17
REMARK                            x       y       z     vdW  Elec       q    Type
REMARK                         _______ _______ _______ _____ _____    ______ ____
ROOT
ATOM      1  C   UNL     1       3.977   4.029  18.519  0.00  0.00    +0.000 A 
ATOM      2  N   UNL     1       4.166   2.703  18.338  0.00  0.00    +0.000 NA
ATOM      3  C   UNL     1       3.253   1.867  18.853  0.00  0.00    +0.000 A 
ATOM      4  N   UNL     1       2.155   2.214  19.532  0.00  0.00    +0.000 NA
ATOM      5  C   UNL     1       1.953   3.541  19.687  0.00  0.00    +0.000 A 
ATOM      6  C   UNL     1       0.708   3.936  20.430  0.00  0.00    +0.000 C 
ATOM      7  C   UNL     1       2.836   4.497  19.188  0.00  0.00    +0.000 A 
ENDROOT
BRANCH   1  11
ATOM      8  C   UNL     1       6.806   5.374  15.827  0.00  0.00    +0.000 C 
ATOM      9  C   UNL     1       5.289   5.584  15.660  0.00  0.00    +0.000 C 
ATOM     10  C   UNL     1       4.590   5.866  16.991  0.00  0.00    +0.000 C 
ATOM     11  N   UNL     1       4.946   4.871  17.997  0.00  0.00    +0.000 N 
ATOM     12  C   UNL     1       6.371   4.647  18.213  0.00  0.00    +0.000 C 
ATOM     13  C   UNL     1       7.073   4.323  16.905  0.00  0.00    +0.000 C 
BRANCH   8  15
ATOM     14  C   UNL     1       6.526   4.120  13.593  0.00  0.00    +0.000 C 
ATOM     15  C   UNL     1       7.442   4.955  14.484  0.00  0.00    +0.000 C 
ENDBRANCH   8  15
BRANCH   8  16
ATOM     16  O   UNL     1       7.403   6.606  16.247  0.00  0.00    +0.000 OA
ATOM     17  H   UNL     1       7.335   6.661  17.215  0.00  0.00    +0.000 HD
ENDBRANCH   8  16
ENDBRANCH   1  11
BRANCH   7  18
ATOM     18  C   UNL     1       2.537   5.898  19.318  0.00  0.00    +0.000 C 
ATOM     19  C   UNL     1       2.203   7.046  19.399  0.00  0.00    +0.000 C 
BRANCH  19  20
ATOM     20  C   UNL     1       1.735   8.394  19.470  0.00  0.00    +0.000 A 
ATOM     21  C   UNL     1       1.843   9.239  18.374  0.00  0.00    +0.000 A 
ATOM     22  C   UNL     1       1.420  10.561  18.493  0.00  0.00    +0.000 A 
ATOM     23  C   UNL     1       0.906  10.999  19.706  0.00  0.00    +0.000 A 
ATOM     24  N   UNL     1       0.504  12.323  19.862  0.00  0.00    +0.000 N 
ATOM     25  N   UNL     1       0.746  10.188  20.764  0.00  0.00    +0.000 NA
ATOM     26  C   UNL     1       1.157   8.902  20.626  0.00  0.00    +0.000 A 
ATOM     27  H   UNL     1       1.244  12.966  19.603  0.00  0.00    +0.000 HD
ATOM     28  H   UNL     1       0.231  12.436  20.834  0.00  0.00    +0.000 HD
ENDBRANCH  19  20
ENDBRANCH   7  18
TORSDOF 5
ENDMDL
MODEL 5
REMARK VINA RESULT:      -7.7      2.315      4.791
REMARK  Name = 
REMARK  7 active torsions:
REMARK  status: ('A' for Active; 'I' for Inactive)
REMARK    1  A    between atoms: C_1  and  C_2
REMARK    2  A    between atoms: C_2  and  C_3
REMARK    3  A    between atoms: C_3  and  O_4
REMARK    4  A    between atoms: N_7  and  C_8
REMARK    5  A    between atoms: C_12  and  C_13
REMARK    6  A    between atoms: C_14  and  C_15
REMARK    7  A    between atoms: C_16  and  C_17
REMARK                            x       y       z     vdW  Elec       q    Type
REMARK                         _______ _______ _______ _____ _____    ______ ____
ROOT
ATOM      1  C   UNL     1       4.047   3.380  18.053  0.00  0.00    +0.000 A 
ATOM      2  N   UNL     1       4.112   2.032  17.980  0.00  0.00    +0.000 NA
ATOM      3  C   UNL     1       3.141   1.327  18.578  0.00  0.00    +0.000 A 
ATOM      4  N   UNL     1       2.095   1.826  19.244  0.00  0.00    +0.000 NA
ATOM      5  C   UNL     1       2.015   3.174  19.292  0.00  0.00    +0.000 A 
ATOM      6  C   UNL     1       0.829   3.738  20.020  0.00  0.00    +0.000 C 
ATOM      7  C   UNL     1       2.968   4.002  18.700  0.00  0.00    +0.000 A 
ENDROOT
BRANCH   1  11
ATOM      8  C   UNL     1       6.377   6.658  17.114  0.00  0.00    +0.000 C 
ATOM      9  C   UNL     1       6.534   5.829  18.403  0.00  0.00    +0.000 C 
ATOM     10  C   UNL     1       6.319   4.334  18.165  0.00  0.00    +0.000 C 
ATOM     11  N   UNL     1       5.073   4.086  17.448  0.00  0.00    +0.000 N 
ATOM     12  C   UNL     1       4.880   4.829  16.207  0.00  0.00    +0.000 C 
ATOM     13  C   UNL     1       5.049   6.321  16.435  0.00  0.00    +0.000 C 
BRANCH   8  15
ATOM     14  C   UNL     1       7.879   8.661  17.723  0.00  0.00    +0.000 C 
ATOM     15  C   UNL     1       6.464   8.167  17.430  0.00  0.00    +0.000 C 
ENDBRANCH   8  15
BRANCH   8  16
ATOM     16  O   UNL     1       7.437   6.322  16.212  0.00  0.00    +0.000 OA
ATOM     17  H   UNL     1       7.081   5.722  15.536  0.00  0.00    +0.000 HD
ENDBRANCH   8  16
ENDBRANCH   1  11
BRANCH   7  18
ATOM     18  C   UNL     1       2.798   5.430  18.719  0.00  0.00    +0.000 C 
ATOM     19  C   UNL     1       2.567   6.607  18.715  0.00  0.00    +0.000 C 
BRANCH  19  20
ATOM     20  C   UNL     1       2.218   7.992  18.694  0.00  0.00    +0.000 A 
ATOM     21  C   UNL     1       1.521   8.561  19.750  0.00  0.00    +0.000 A 
ATOM     22  C   UNL     1       1.155   9.904  19.676  0.00  0.00    +0.000 A 
ATOM     23  C   UNL     1       1.495  10.634  18.545  0.00  0.00    +0.000 A 
ATOM     24  N   UNL     1       1.115  11.969  18.431  0.00  0.00    +0.000 N 
ATOM     25  N   UNL     1       2.212  10.119  17.533  0.00  0.00    +0.000 NA
ATOM     26  C   UNL     1       2.564   8.812  17.628  0.00  0.00    +0.000 A 
ATOM     27  H   UNL     1       0.118  12.082  18.570  0.00  0.00    +0.000 HD
ATOM     28  H   UNL     1       1.405  12.280  17.507  0.00  0.00    +0.000 HD
ENDBRANCH  19  20
ENDBRANCH   7  18
TORSDOF 5
ENDMDL
MODEL 6
REMARK VINA RESULT:      -7.2      2.236      4.870
REMARK  Name = 
REMARK  7 active torsions:
REMARK  status: ('A' for Active; 'I' for Inactive)
REMARK    1  A    between atoms: C_1  and  C_2
REMARK    2  A    between atoms: C_2  and  C_3
REMARK    3  A    between atoms: C_3  and  O_4
REMARK    4  A    between atoms: N_7  and  C_8
REMARK    5  A    between atoms: C_12  and  C_13
REMARK    6  A    between atoms: C_14  and  C_15
REMARK    7  A    between atoms: C_16  and  C_17
REMARK                            x       y       z     vdW  Elec       q    Type
REMARK                         _______ _______ _______ _____ _____    ______ ____
ROOT
ATOM      1  C   UNL     1       3.935   3.660  17.882  0.00  0.00    +0.000 A 
ATOM      2  N   UNL     1       4.074   2.317  17.823  0.00  0.00    +0.000 NA
ATOM      3  C   UNL     1       3.197   1.568  18.507  0.00  0.00    +0.000 A 
ATOM      4  N   UNL     1       2.180   2.018  19.249  0.00  0.00    +0.000 NA
ATOM      5  C   UNL     1       2.024   3.360  19.283  0.00  0.00    +0.000 A 
ATOM      6  C   UNL     1       0.868   3.869  20.096  0.00  0.00    +0.000 C 
ATOM      7  C   UNL     1       2.876   4.231  18.605  0.00  0.00    +0.000 A 
ENDROOT
BRANCH   1  11
ATOM      8  C   UNL     1       7.042   6.327  17.344  0.00  0.00    +0.000 C 
ATOM      9  C   UNL     1       7.232   4.848  17.730  0.00  0.00    +0.000 C 
ATOM     10  C   UNL     1       6.233   3.928  17.027  0.00  0.00    +0.000 C 
ATOM     11  N   UNL     1       4.866   4.412  17.186  0.00  0.00    +0.000 N 
ATOM     12  C   UNL     1       4.622   5.801  16.813  0.00  0.00    +0.000 C 
ATOM     13  C   UNL     1       5.580   6.733  17.537  0.00  0.00    +0.000 C 
BRANCH   8  15
ATOM     14  C   UNL     1       7.979   8.692  17.750  0.00  0.00    +0.000 C 
ATOM     15  C   UNL     1       7.976   7.227  18.181  0.00  0.00    +0.000 C 
ENDBRANCH   8  15
BRANCH   8  16
ATOM     16  O   UNL     1       7.372   6.493  15.960  0.00  0.00    +0.000 OA
ATOM     17  H   UNL     1       8.329   6.655  15.895  0.00  0.00    +0.000 HD
ENDBRANCH   8  16
ENDBRANCH   1  11
BRANCH   7  18
ATOM     18  C   UNL     1       2.624   5.647  18.617  0.00  0.00    +0.000 C 
ATOM     19  C   UNL     1       2.342   6.810  18.682  0.00  0.00    +0.000 C 
BRANCH  19  20
ATOM     20  C   UNL     1       1.949   8.178  18.807  0.00  0.00    +0.000 A 
ATOM     21  C   UNL     1       2.213   9.085  17.790  0.00  0.00    +0.000 A 
ATOM     22  C   UNL     1       1.858  10.421  17.964  0.00  0.00    +0.000 A 
ATOM     23  C   UNL     1       1.254  10.809  19.152  0.00  0.00    +0.000 A 
ATOM     24  N   UNL     1       0.917  12.144  19.366  0.00  0.00    +0.000 N 
ATOM     25  N   UNL     1       0.944   9.942  20.130  0.00  0.00    +0.000 NA
ATOM     26  C   UNL     1       1.291   8.645  19.937  0.00  0.00    +0.000 A 
ATOM     27  H   UNL     1       1.715  12.753  19.224  0.00  0.00    +0.000 HD
ATOM     28  H   UNL     1       0.557  12.209  20.314  0.00  0.00    +0.000 HD
ENDBRANCH  19  20
ENDBRANCH   7  18
TORSDOF 5
ENDMDL
MODEL 7
REMARK VINA RESULT:      -7.1      0.738      1.149
REMARK  Name = 
REMARK  7 active torsions:
REMARK  status: ('A' for Active; 'I' for Inactive)
REMARK    1  A    between atoms: C_1  and  C_2
REMARK    2  A    between atoms: C_2  and  C_3
REMARK    3  A    between atoms: C_3  and  O_4
REMARK    4  A    between atoms: N_7  and  C_8
REMARK    5  A    between atoms: C_12  and  C_13
REMARK    6  A    between atoms: C_14  and  C_15
REMARK    7  A    between atoms: C_16  and  C_17
REMARK                            x       y       z     vdW  Elec       q    Type
REMARK                         _______ _______ _______ _____ _____    ______ ____
ROOT
ATOM      1  C   UNL     1       4.812   4.353  16.910  0.00  0.00    +0.000 A 
ATOM      2  N   UNL     1       5.793   3.607  16.354  0.00  0.00    +0.000 NA
ATOM      3  C   UNL     1       6.948   4.218  16.054  0.00  0.00    +0.000 A 
ATOM      4  N   UNL     1       7.237   5.507  16.256  0.00  0.00    +0.000 NA
ATOM      5  C   UNL     1       6.267   6.245  16.839  0.00  0.00    +0.000 A 
ATOM      6  C   UNL     1       6.597   7.689  17.089  0.00  0.00    +0.000 C 
ATOM      7  C   UNL     1       5.030   5.709  17.196  0.00  0.00    +0.000 A 
ENDROOT
BRANCH   1  11
ATOM      8  C   UNL     1       1.575   3.143  19.171  0.00  0.00    +0.000 C 
ATOM      9  C   UNL     1       1.677   4.513  18.476  0.00  0.00    +0.000 C 
ATOM     10  C   UNL     1       2.354   4.425  17.107  0.00  0.00    +0.000 C 
ATOM     11  N   UNL     1       3.620   3.704  17.190  0.00  0.00    +0.000 N 
ATOM     12  C   UNL     1       3.580   2.389  17.820  0.00  0.00    +0.000 C 
ATOM     13  C   UNL     1       2.947   2.468  19.199  0.00  0.00    +0.000 C 
BRANCH   8  15
ATOM     14  C   UNL     1       2.047   3.085  21.703  0.00  0.00    +0.000 C 
ATOM     15  C   UNL     1       1.014   3.304  20.600  0.00  0.00    +0.000 C 
ENDBRANCH   8  15
BRANCH   8  16
ATOM     16  O   UNL     1       0.682   2.307  18.426  0.00  0.00    +0.000 OA
ATOM     17  H   UNL     1       0.196   1.746  19.054  0.00  0.00    +0.000 HD
ENDBRANCH   8  16
ENDBRANCH   1  11
BRANCH   7  18
ATOM     18  C   UNL     1       4.058   6.521  17.878  0.00  0.00    +0.000 C 
ATOM     19  C   UNL     1       3.218   7.224  18.364  0.00  0.00    +0.000 C 
BRANCH  19  20
ATOM     20  C   UNL     1       2.193   8.081  18.873  0.00  0.00    +0.000 A 
ATOM     21  C   UNL     1       1.624   9.056  18.067  0.00  0.00    +0.000 A 
ATOM     22  C   UNL     1       0.662   9.906  18.608  0.00  0.00    +0.000 A 
ATOM     23  C   UNL     1       0.302   9.756  19.941  0.00  0.00    +0.000 A 
ATOM     24  N   UNL     1      -0.634  10.612  20.516  0.00  0.00    +0.000 N 
ATOM     25  N   UNL     1       0.803   8.789  20.726  0.00  0.00    +0.000 NA
ATOM     26  C   UNL     1       1.733   7.968  20.178  0.00  0.00    +0.000 A 
ATOM     27  H   UNL     1      -0.376  11.583  20.385  0.00  0.00    +0.000 HD
ATOM     28  H   UNL     1      -0.691  10.367  21.501  0.00  0.00    +0.000 HD
ENDBRANCH  19  20
ENDBRANCH   7  18
TORSDOF 5
ENDMDL
MODEL 8
REMARK VINA RESULT:      -6.8      3.235      5.229
REMARK  Name = 
REMARK  7 active torsions:
REMARK  status: ('A' for Active; 'I' for Inactive)
REMARK    1  A    between atoms: C_1  and  C_2
REMARK    2  A    between atoms: C_2  and  C_3
REMARK    3  A    between atoms: C_3  and  O_4
REMARK    4  A    between atoms: N_7  and  C_8
REMARK    5  A    between atoms: C_12  and  C_13
REMARK    6  A    between atoms: C_14  and  C_15
REMARK    7  A    between atoms: C_16  and  C_17
REMARK                            x       y       z     vdW  Elec       q    Type
REMARK                         _______ _______ _______ _____ _____    ______ ____
ROOT
ATOM      1  C   UNL     1       7.141   5.073  14.840  0.00  0.00    +0.000 A 
ATOM      2  N   UNL     1       8.079   5.505  13.968  0.00  0.00    +0.000 NA
ATOM      3  C   UNL     1       7.951   5.142  12.683  0.00  0.00    +0.000 A 
ATOM      4  N   UNL     1       6.974   4.391  12.166  0.00  0.00    +0.000 NA
ATOM      5  C   UNL     1       6.021   3.984  13.034  0.00  0.00    +0.000 A 
ATOM      6  C   UNL     1       4.909   3.159  12.452  0.00  0.00    +0.000 C 
ATOM      7  C   UNL     1       6.055   4.308  14.389  0.00  0.00    +0.000 A 
ENDROOT
BRANCH   1  11
ATOM      8  C   UNL     1       6.141   5.525  18.821  0.00  0.00    +0.000 C 
ATOM      9  C   UNL     1       6.675   4.216  18.210  0.00  0.00    +0.000 C 
ATOM     10  C   UNL     1       7.750   4.462  17.151  0.00  0.00    +0.000 C 
ATOM     11  N   UNL     1       7.307   5.442  16.165  0.00  0.00    +0.000 N 
ATOM     12  C   UNL     1       6.812   6.711  16.687  0.00  0.00    +0.000 C 
ATOM     13  C   UNL     1       5.712   6.484  17.710  0.00  0.00    +0.000 C 
BRANCH   8  15
ATOM     14  C   UNL     1       3.703   6.038  19.477  0.00  0.00    +0.000 C 
ATOM     15  C   UNL     1       4.965   5.233  19.778  0.00  0.00    +0.000 C 
ENDBRANCH   8  15
BRANCH   8  16
ATOM     16  O   UNL     1       7.189   6.150  19.570  0.00  0.00    +0.000 OA
ATOM     17  H   UNL     1       7.665   5.459  20.062  0.00  0.00    +0.000 HD
ENDBRANCH   8  16
ENDBRANCH   1  11
BRANCH   7  18
ATOM     18  C   UNL     1       4.978   3.909  15.256  0.00  0.00    +0.000 C 
ATOM     19  C   UNL     1       4.125   3.620  16.047  0.00  0.00    +0.000 C 
BRANCH  19  20
ATOM     20  C   UNL     1       3.149   3.311  17.044  0.00  0.00    +0.000 A 
ATOM     21  C   UNL     1       2.014   4.097  17.189  0.00  0.00    +0.000 A 
ATOM     22  C   UNL     1       1.107   3.796  18.202  0.00  0.00    +0.000 A 
ATOM     23  C   UNL     1       1.365   2.721  19.043  0.00  0.00    +0.000 A 
ATOM     24  N   UNL     1       0.491   2.418  20.083  0.00  0.00    +0.000 N 
ATOM     25  N   UNL     1       2.430   1.919  18.892  0.00  0.00    +0.000 NA
ATOM     26  C   UNL     1       3.298   2.224  17.894  0.00  0.00    +0.000 A 
ATOM     27  H   UNL     1       0.325   3.224  20.674  0.00  0.00    +0.000 HD
ATOM     28  H   UNL     1       0.906   1.649  20.603  0.00  0.00    +0.000 HD
ENDBRANCH  19  20
ENDBRANCH   7  18
TORSDOF 5
ENDMDL
MODEL 9
REMARK VINA RESULT:      -6.6      2.074      4.704
REMARK  Name = 
REMARK  7 active torsions:
REMARK  status: ('A' for Active; 'I' for Inactive)
REMARK    1  A    between atoms: C_1  and  C_2
REMARK    2  A    between atoms: C_2  and  C_3
REMARK    3  A    between atoms: C_3  and  O_4
REMARK    4  A    between atoms: N_7  and  C_8
REMARK    5  A    between atoms: C_12  and  C_13
REMARK    6  A    between atoms: C_14  and  C_15
REMARK    7  A    between atoms: C_16  and  C_17
REMARK                            x       y       z     vdW  Elec       q    Type
REMARK                         _______ _______ _______ _____ _____    ______ ____
ROOT
ATOM      1  C   UNL     1       3.492   3.688  18.123  0.00  0.00    +0.000 A 
ATOM      2  N   UNL     1       3.621   2.387  17.780  0.00  0.00    +0.000 NA
ATOM      3  C   UNL     1       2.977   1.479  18.527  0.00  0.00    +0.000 A 
ATOM      4  N   UNL     1       2.204   1.730  19.589  0.00  0.00    +0.000 NA
ATOM      5  C   UNL     1       2.053   3.034  19.912  0.00  0.00    +0.000 A 
ATOM      6  C   UNL     1       1.167   3.321  21.091  0.00  0.00    +0.000 C 
ATOM      7  C   UNL     1       2.674   4.059  19.200  0.00  0.00    +0.000 A 
ENDROOT
BRANCH   1  11
ATOM      8  C   UNL     1       6.476   6.376  17.162  0.00  0.00    +0.000 C 
ATOM      9  C   UNL     1       6.619   4.848  17.033  0.00  0.00    +0.000 C 
ATOM     10  C   UNL     1       5.330   4.180  16.552  0.00  0.00    +0.000 C 
ATOM     11  N   UNL     1       4.184   4.606  17.349  0.00  0.00    +0.000 N 
ATOM     12  C   UNL     1       3.987   6.045  17.487  0.00  0.00    +0.000 C 
ATOM     13  C   UNL     1       5.247   6.718  18.005  0.00  0.00    +0.000 C 
BRANCH   8  15
ATOM     14  C   UNL     1       7.821   8.510  17.693  0.00  0.00    +0.000 C 
ATOM     15  C   UNL     1       7.752   6.987  17.781  0.00  0.00    +0.000 C 
ENDBRANCH   8  15
BRANCH   8  16
ATOM     16  O   UNL     1       6.293   6.939  15.857  0.00  0.00    +0.000 OA
ATOM     17  H   UNL     1       5.921   6.250  15.280  0.00  0.00    +0.000 HD
ENDBRANCH   8  16
ENDBRANCH   1  11
BRANCH   7  18
ATOM     18  C   UNL     1       2.422   5.434  19.543  0.00  0.00    +0.000 C 
ATOM     19  C   UNL     1       2.124   6.563  19.812  0.00  0.00    +0.000 C 
BRANCH  19  20
ATOM     20  C   UNL     1       1.695   7.891  20.118  0.00  0.00    +0.000 A 
ATOM     21  C   UNL     1       1.352   8.241  21.416  0.00  0.00    +0.000 A 
ATOM     22  C   UNL     1       0.893   9.532  21.671  0.00  0.00    +0.000 A 
ATOM     23  C   UNL     1       0.785  10.430  20.618  0.00  0.00    +0.000 A 
ATOM     24  N   UNL     1       0.299  11.716  20.839  0.00  0.00    +0.000 N 
ATOM     25  N   UNL     1       1.156  10.129  19.363  0.00  0.00    +0.000 NA
ATOM     26  C   UNL     1       1.608   8.870  19.137  0.00  0.00    +0.000 A 
ATOM     27  H   UNL     1      -0.601  11.696  21.306  0.00  0.00    +0.000 HD
ATOM     28  H   UNL     1       0.242  12.170  19.931  0.00  0.00    +0.000 HD
ENDBRANCH  19  20
ENDBRANCH   7  18
TORSDOF 5
ENDMDL
