MODEL 1
REMARK VINA RESULT:      -6.7      0.000      0.000
REMARK  Name = 
REMARK  7 active torsions:
REMARK  status: ('A' for Active; 'I' for Inactive)
REMARK    1  A    between atoms: C_1  and  O_2
REMARK    2  A    between atoms: O_2  and  C_3
REMARK    3  A    between atoms: C_7  and  C_9
REMARK    4  A    between atoms: C_9  and  C_10
REMARK    5  A    between atoms: C_13  and  N_14
REMARK    6  A    between atoms: N_14  and  C_15
REMARK    7  A    between atoms: N_14  and  C_16
REMARK                            x       y       z     vdW  Elec       q    Type
REMARK                         _______ _______ _______ _____ _____    ______ ____
ROOT
ATOM      1  C   UNL     1       5.547   5.247  18.621  0.00  0.00    +0.000 C 
ENDROOT
BRANCH   1   6
ATOM      2  C   UNL     1       1.383   3.969  20.750  0.00  0.00    +0.000 C 
ATOM      3  C   UNL     1       1.627   5.476  20.674  0.00  0.00    +0.000 C 
ATOM      4  C   UNL     1       2.748   5.609  19.650  0.00  0.00    +0.000 C 
ATOM      5  N   UNL     1       3.536   4.401  19.823  0.00  0.00    +0.000 N 
ATOM      6  C   UNL     1       4.816   4.154  19.383  0.00  0.00    +0.000 C 
ATOM      7  O   UNL     1       5.369   3.071  19.613  0.00  0.00    +0.000 OA
ATOM      8  C   UNL     1       2.787   3.385  20.546  0.00  0.00    +0.000 C 
BRANCH   2  10
ATOM      9  C   UNL     1       0.866   2.442  18.999  0.00  0.00    +0.000 C 
ATOM     10  O   UNL     1       0.468   3.611  19.707  0.00  0.00    +0.000 OA
ENDBRANCH   2  10
ENDBRANCH   1   6
BRANCH   1  11
ATOM     11  C   UNL     1       5.801   4.950  17.160  0.00  0.00    +0.000 A 
ATOM     12  C   UNL     1       4.806   4.491  16.298  0.00  0.00    +0.000 A 
ATOM     13  C   UNL     1       5.089   4.221  14.948  0.00  0.00    +0.000 A 
ATOM     14  C   UNL     1       6.359   4.424  14.384  0.00  0.00    +0.000 A 
ATOM     15  C   UNL     1       7.327   4.945  15.257  0.00  0.00    +0.000 A 
ATOM     16  C   UNL     1       7.061   5.204  16.613  0.00  0.00    +0.000 A 
BRANCH  14  17
ATOM     17  N   UNL     1       6.644   4.063  13.071  0.00  0.00    +0.000 N 
ATOM     18  C   UNL     1       5.726   3.222  12.303  0.00  0.00    +0.000 C 
ATOM     19  C   UNL     1       7.572   4.839  12.252  0.00  0.00    +0.000 C 
ENDBRANCH  14  17
ENDBRANCH   1  11
TORSDOF 4
ENDMDL
MODEL 2
REMARK VINA RESULT:      -6.7      0.219      1.113
REMARK  Name = 
REMARK  7 active torsions:
REMARK  status: ('A' for Active; 'I' for Inactive)
REMARK    1  A    between atoms: C_1  and  O_2
REMARK    2  A    between atoms: O_2  and  C_3
REMARK    3  A    between atoms: C_7  and  C_9
REMARK    4  A    between atoms: C_9  and  C_10
REMARK    5  A    between atoms: C_13  and  N_14
REMARK    6  A    between atoms: N_14  and  C_15
REMARK    7  A    between atoms: N_14  and  C_16
REMARK                            x       y       z     vdW  Elec       q    Type
REMARK                         _______ _______ _______ _____ _____    ______ ____
ROOT
ATOM      1  C   UNL     1       5.321   5.459  18.558  0.00  0.00    +0.000 C 
ENDROOT
BRANCH   1   6
ATOM      2  C   UNL     1       1.327   3.780  20.733  0.00  0.00    +0.000 C 
ATOM      3  C   UNL     1       1.404   5.303  20.622  0.00  0.00    +0.000 C 
ATOM      4  C   UNL     1       2.501   5.535  19.591  0.00  0.00    +0.000 C 
ATOM      5  N   UNL     1       3.418   4.425  19.788  0.00  0.00    +0.000 N 
ATOM      6  C   UNL     1       4.716   4.310  19.348  0.00  0.00    +0.000 C 
ATOM      7  O   UNL     1       5.385   3.300  19.599  0.00  0.00    +0.000 OA
ATOM      8  C   UNL     1       2.786   3.349  20.537  0.00  0.00    +0.000 C 
BRANCH   2  10
ATOM      9  C   UNL     1       1.016   2.222  18.961  0.00  0.00    +0.000 C 
ATOM     10  O   UNL     1       0.455   3.300  19.703  0.00  0.00    +0.000 OA
ENDBRANCH   2  10
ENDBRANCH   1   6
BRANCH   1  11
ATOM     11  C   UNL     1       5.743   5.116  17.146  0.00  0.00    +0.000 A 
ATOM     12  C   UNL     1       7.055   5.256  16.695  0.00  0.00    +0.000 A 
ATOM     13  C   UNL     1       7.402   4.931  15.373  0.00  0.00    +0.000 A 
ATOM     14  C   UNL     1       6.474   4.425  14.448  0.00  0.00    +0.000 A 
ATOM     15  C   UNL     1       5.174   4.236  14.944  0.00  0.00    +0.000 A 
ATOM     16  C   UNL     1       4.811   4.572  16.260  0.00  0.00    +0.000 A 
BRANCH  14  17
ATOM     17  N   UNL     1       6.814   4.199  13.119  0.00  0.00    +0.000 N 
ATOM     18  C   UNL     1       6.013   3.312  12.275  0.00  0.00    +0.000 C 
ATOM     19  C   UNL     1       7.649   5.138  12.374  0.00  0.00    +0.000 C 
ENDBRANCH  14  17
ENDBRANCH   1  11
TORSDOF 4
ENDMDL
MODEL 3
REMARK VINA RESULT:      -6.6      2.682      7.082
REMARK  Name = 
REMARK  7 active torsions:
REMARK  status: ('A' for Active; 'I' for Inactive)
REMARK    1  A    between atoms: C_1  and  O_2
REMARK    2  A    between atoms: O_2  and  C_3
REMARK    3  A    between atoms: C_7  and  C_9
REMARK    4  A    between atoms: C_9  and  C_10
REMARK    5  A    between atoms: C_13  and  N_14
REMARK    6  A    between atoms: N_14  and  C_15
REMARK    7  A    between atoms: N_14  and  C_16
REMARK                            x       y       z     vdW  Elec       q    Type
REMARK                         _______ _______ _______ _____ _____    ______ ____
ROOT
ATOM      1  C   UNL     1       3.163   4.219  18.487  0.00  0.00    +0.000 C 
ENDROOT
BRANCH   1   6
ATOM      2  C   UNL     1       7.255   5.030  16.017  0.00  0.00    +0.000 C 
ATOM      3  C   UNL     1       6.008   4.853  15.150  0.00  0.00    +0.000 C 
ATOM      4  C   UNL     1       4.858   5.011  16.137  0.00  0.00    +0.000 C 
ATOM      5  N   UNL     1       5.381   4.485  17.385  0.00  0.00    +0.000 N 
ATOM      6  C   UNL     1       4.679   4.103  18.504  0.00  0.00    +0.000 C 
ATOM      7  O   UNL     1       5.263   3.661  19.502  0.00  0.00    +0.000 OA
ATOM      8  C   UNL     1       6.834   4.406  17.354  0.00  0.00    +0.000 C 
BRANCH   2  10
ATOM      9  C   UNL     1       7.620   6.887  17.461  0.00  0.00    +0.000 C 
ATOM     10  O   UNL     1       7.536   6.431  16.115  0.00  0.00    +0.000 OA
ENDBRANCH   2  10
ENDBRANCH   1   6
BRANCH   1  11
ATOM     11  C   UNL     1       2.611   5.495  19.083  0.00  0.00    +0.000 A 
ATOM     12  C   UNL     1       2.067   5.556  20.366  0.00  0.00    +0.000 A 
ATOM     13  C   UNL     1       1.558   6.761  20.878  0.00  0.00    +0.000 A 
ATOM     14  C   UNL     1       1.593   7.965  20.156  0.00  0.00    +0.000 A 
ATOM     15  C   UNL     1       2.199   7.891  18.893  0.00  0.00    +0.000 A 
ATOM     16  C   UNL     1       2.698   6.688  18.363  0.00  0.00    +0.000 A 
BRANCH  14  17
ATOM     17  N   UNL     1       1.000   9.127  20.641  0.00  0.00    +0.000 N 
ATOM     18  C   UNL     1       0.195   9.984  19.770  0.00  0.00    +0.000 C 
ATOM     19  C   UNL     1       0.744   9.315  22.066  0.00  0.00    +0.000 C 
ENDBRANCH  14  17
ENDBRANCH   1  11
TORSDOF 4
ENDMDL
MODEL 4
REMARK VINA RESULT:      -6.4      1.507      1.981
REMARK  Name = 
REMARK  7 active torsions:
REMARK  status: ('A' for Active; 'I' for Inactive)
REMARK    1  A    between atoms: C_1  and  O_2
REMARK    2  A    between atoms: O_2  and  C_3
REMARK    3  A    between atoms: C_7  and  C_9
REMARK    4  A    between atoms: C_9  and  C_10
REMARK    5  A    between atoms: C_13  and  N_14
REMARK    6  A    between atoms: N_14  and  C_15
REMARK    7  A    between atoms: N_14  and  C_16
REMARK                            x       y       z     vdW  Elec       q    Type
REMARK                         _______ _______ _______ _____ _____    ______ ____
ROOT
ATOM      1  C   UNL     1       5.215   5.610  18.933  0.00  0.00    +0.000 C 
ENDROOT
BRANCH   1   6
ATOM      2  C   UNL     1       1.348   2.689  19.022  0.00  0.00    +0.000 C 
ATOM      3  C   UNL     1       2.502   2.197  18.149  0.00  0.00    +0.000 C 
ATOM      4  C   UNL     1       3.683   3.049  18.598  0.00  0.00    +0.000 C 
ATOM      5  N   UNL     1       3.086   4.319  18.973  0.00  0.00    +0.000 N 
ATOM      6  C   UNL     1       3.713   5.530  19.149  0.00  0.00    +0.000 C 
ATOM      7  O   UNL     1       3.070   6.540  19.464  0.00  0.00    +0.000 OA
ATOM      8  C   UNL     1       1.652   4.185  19.179  0.00  0.00    +0.000 C 
BRANCH   2  10
ATOM      9  C   UNL     1       1.298   2.828  21.397  0.00  0.00    +0.000 C 
ATOM     10  O   UNL     1       1.388   1.973  20.262  0.00  0.00    +0.000 OA
ENDBRANCH   2  10
ENDBRANCH   1   6
BRANCH   1  11
ATOM     11  C   UNL     1       5.674   5.356  17.514  0.00  0.00    +0.000 A 
ATOM     12  C   UNL     1       4.988   5.840  16.400  0.00  0.00    +0.000 A 
ATOM     13  C   UNL     1       5.446   5.575  15.098  0.00  0.00    +0.000 A 
ATOM     14  C   UNL     1       6.619   4.846  14.842  0.00  0.00    +0.000 A 
ATOM     15  C   UNL     1       7.324   4.423  15.979  0.00  0.00    +0.000 A 
ATOM     16  C   UNL     1       6.868   4.669  17.286  0.00  0.00    +0.000 A 
BRANCH  14  17
ATOM     17  N   UNL     1       7.006   4.513  13.548  0.00  0.00    +0.000 N 
ATOM     18  C   UNL     1       6.192   3.620  12.723  0.00  0.00    +0.000 C 
ATOM     19  C   UNL     1       7.930   5.351  12.789  0.00  0.00    +0.000 C 
ENDBRANCH  14  17
ENDBRANCH   1  11
TORSDOF 4
ENDMDL
MODEL 5
REMARK VINA RESULT:      -6.4      3.335      7.150
REMARK  Name = 
REMARK  7 active torsions:
REMARK  status: ('A' for Active; 'I' for Inactive)
REMARK    1  A    between atoms: C_1  and  O_2
REMARK    2  A    between atoms: O_2  and  C_3
REMARK    3  A    between atoms: C_7  and  C_9
REMARK    4  A    between atoms: C_9  and  C_10
REMARK    5  A    between atoms: C_13  and  N_14
REMARK    6  A    between atoms: N_14  and  C_15
REMARK    7  A    between atoms: N_14  and  C_16
REMARK                            x       y       z     vdW  Elec       q    Type
REMARK                         _______ _______ _______ _____ _____    ______ ____
ROOT
ATOM      1  C   UNL     1       3.139   5.220  18.699  0.00  0.00    +0.000 C 
ENDROOT
BRANCH   1   6
ATOM      2  C   UNL     1       7.137   4.351  16.099  0.00  0.00    +0.000 C 
ATOM      3  C   UNL     1       5.884   3.623  15.610  0.00  0.00    +0.000 C 
ATOM      4  C   UNL     1       4.746   4.351  16.315  0.00  0.00    +0.000 C 
ATOM      5  N   UNL     1       5.319   4.769  17.583  0.00  0.00    +0.000 N 
ATOM      6  C   UNL     1       4.658   5.182  18.716  0.00  0.00    +0.000 C 
ATOM      7  O   UNL     1       5.282   5.503  19.735  0.00  0.00    +0.000 OA
ATOM      8  C   UNL     1       6.773   4.726  17.542  0.00  0.00    +0.000 C 
BRANCH   2  10
ATOM      9  C   UNL     1       7.353   5.163  13.872  0.00  0.00    +0.000 C 
ATOM     10  O   UNL     1       7.349   5.491  15.258  0.00  0.00    +0.000 OA
ENDBRANCH   2  10
ENDBRANCH   1   6
BRANCH   1  11
ATOM     11  C   UNL     1       2.528   6.585  18.922  0.00  0.00    +0.000 A 
ATOM     12  C   UNL     1       2.049   7.006  20.162  0.00  0.00    +0.000 A 
ATOM     13  C   UNL     1       1.483   8.282  20.323  0.00  0.00    +0.000 A 
ATOM     14  C   UNL     1       1.394   9.209  19.272  0.00  0.00    +0.000 A 
ATOM     15  C   UNL     1       1.938   8.786  18.050  0.00  0.00    +0.000 A 
ATOM     16  C   UNL     1       2.493   7.506  17.872  0.00  0.00    +0.000 A 
BRANCH  14  17
ATOM     17  N   UNL     1       0.746  10.430  19.426  0.00  0.00    +0.000 N 
ATOM     18  C   UNL     1      -0.329  10.597  20.404  0.00  0.00    +0.000 C 
ATOM     19  C   UNL     1       1.368  11.682  19.002  0.00  0.00    +0.000 C 
ENDBRANCH  14  17
ENDBRANCH   1  11
TORSDOF 4
ENDMDL
MODEL 6
REMARK VINA RESULT:      -6.4      2.744      7.191
REMARK  Name = 
REMARK  7 active torsions:
REMARK  status: ('A' for Active; 'I' for Inactive)
REMARK    1  A    between atoms: C_1  and  O_2
REMARK    2  A    between atoms: O_2  and  C_3
REMARK    3  A    between atoms: C_7  and  C_9
REMARK    4  A    between atoms: C_9  and  C_10
REMARK    5  A    between atoms: C_13  and  N_14
REMARK    6  A    between atoms: N_14  and  C_15
REMARK    7  A    between atoms: N_14  and  C_16
REMARK                            x       y       z     vdW  Elec       q    Type
REMARK                         _______ _______ _______ _____ _____    ______ ____
ROOT
ATOM      1  C   UNL     1       3.123   4.382  18.551  0.00  0.00    +0.000 C 
ENDROOT
BRANCH   1   6
ATOM      2  C   UNL     1       7.300   5.231  16.242  0.00  0.00    +0.000 C 
ATOM      3  C   UNL     1       6.078   5.114  15.332  0.00  0.00    +0.000 C 
ATOM      4  C   UNL     1       4.900   5.248  16.290  0.00  0.00    +0.000 C 
ATOM      5  N   UNL     1       5.377   4.658  17.529  0.00  0.00    +0.000 N 
ATOM      6  C   UNL     1       4.635   4.239  18.608  0.00  0.00    +0.000 C 
ATOM      7  O   UNL     1       5.182   3.743  19.602  0.00  0.00    +0.000 OA
ATOM      8  C   UNL     1       6.829   4.556  17.537  0.00  0.00    +0.000 C 
BRANCH   2  10
ATOM      9  C   UNL     1       7.668   7.012  17.779  0.00  0.00    +0.000 C 
ATOM     10  O   UNL     1       7.600   6.622  16.411  0.00  0.00    +0.000 OA
ENDBRANCH   2  10
ENDBRANCH   1   6
BRANCH   1  11
ATOM     11  C   UNL     1       2.577   5.666  19.133  0.00  0.00    +0.000 A 
ATOM     12  C   UNL     1       2.555   6.868  18.424  0.00  0.00    +0.000 A 
ATOM     13  C   UNL     1       2.044   8.040  19.006  0.00  0.00    +0.000 A 
ATOM     14  C   UNL     1       1.504   8.069  20.303  0.00  0.00    +0.000 A 
ATOM     15  C   UNL     1       1.482   6.836  20.972  0.00  0.00    +0.000 A 
ATOM     16  C   UNL     1       2.004   5.660  20.406  0.00  0.00    +0.000 A 
BRANCH  14  17
ATOM     17  N   UNL     1       1.090   9.257  20.897  0.00  0.00    +0.000 N 
ATOM     18  C   UNL     1       0.844  10.456  20.096  0.00  0.00    +0.000 C 
ATOM     19  C   UNL     1       0.443   9.269  22.206  0.00  0.00    +0.000 C 
ENDBRANCH  14  17
ENDBRANCH   1  11
TORSDOF 4
ENDMDL
MODEL 7
REMARK VINA RESULT:      -6.3      3.938      6.788
REMARK  Name = 
REMARK  7 active torsions:
REMARK  status: ('A' for Active; 'I' for Inactive)
REMARK    1  A    between atoms: C_1  and  O_2
REMARK    2  A    between atoms: O_2  and  C_3
REMARK    3  A    between atoms: C_7  and  C_9
REMARK    4  A    between atoms: C_9  and  C_10
REMARK    5  A    between atoms: C_13  and  N_14
REMARK    6  A    between atoms: N_14  and  C_15
REMARK    7  A    between atoms: N_14  and  C_16
REMARK                            x       y       z     vdW  Elec       q    Type
REMARK                         _______ _______ _______ _____ _____    ______ ____
ROOT
ATOM      1  C   UNL     1       3.287   6.739  17.978  0.00  0.00    +0.000 C 
ENDROOT
BRANCH   1   6
ATOM      2  C   UNL     1       2.097   2.389  19.757  0.00  0.00    +0.000 C 
ATOM      3  C   UNL     1       0.913   3.233  19.283  0.00  0.00    +0.000 C 
ATOM      4  C   UNL     1       1.563   4.323  18.439  0.00  0.00    +0.000 C 
ATOM      5  N   UNL     1       2.854   4.542  19.068  0.00  0.00    +0.000 N 
ATOM      6  C   UNL     1       3.702   5.612  18.910  0.00  0.00    +0.000 C 
ATOM      7  O   UNL     1       4.776   5.668  19.522  0.00  0.00    +0.000 OA
ATOM      8  C   UNL     1       3.208   3.432  19.939  0.00  0.00    +0.000 C 
BRANCH   2  10
ATOM      9  C   UNL     1       3.788   1.292  18.493  0.00  0.00    +0.000 C 
ATOM     10  O   UNL     1       2.392   1.423  18.742  0.00  0.00    +0.000 OA
ENDBRANCH   2  10
ENDBRANCH   1   6
BRANCH   1  11
ATOM     11  C   UNL     1       2.378   7.779  18.593  0.00  0.00    +0.000 A 
ATOM     12  C   UNL     1       2.003   7.755  19.936  0.00  0.00    +0.000 A 
ATOM     13  C   UNL     1       1.150   8.739  20.466  0.00  0.00    +0.000 A 
ATOM     14  C   UNL     1       0.657   9.807  19.698  0.00  0.00    +0.000 A 
ATOM     15  C   UNL     1       1.098   9.843  18.366  0.00  0.00    +0.000 A 
ATOM     16  C   UNL     1       1.938   8.857  17.821  0.00  0.00    +0.000 A 
BRANCH  14  17
ATOM     17  N   UNL     1      -0.259  10.718  20.213  0.00  0.00    +0.000 N 
ATOM     18  C   UNL     1      -1.352  11.237  19.391  0.00  0.00    +0.000 C 
ATOM     19  C   UNL     1      -0.482  10.845  21.652  0.00  0.00    +0.000 C 
ENDBRANCH  14  17
ENDBRANCH   1  11
TORSDOF 4
ENDMDL
MODEL 8
REMARK VINA RESULT:      -6.2      3.005      7.030
REMARK  Name = 
REMARK  7 active torsions:
REMARK  status: ('A' for Active; 'I' for Inactive)
REMARK    1  A    between atoms: C_1  and  O_2
REMARK    2  A    between atoms: O_2  and  C_3
REMARK    3  A    between atoms: C_7  and  C_9
REMARK    4  A    between atoms: C_9  and  C_10
REMARK    5  A    between atoms: C_13  and  N_14
REMARK    6  A    between atoms: N_14  and  C_15
REMARK    7  A    between atoms: N_14  and  C_16
REMARK                            x       y       z     vdW  Elec       q    Type
REMARK                         _______ _______ _______ _____ _____    ______ ____
ROOT
ATOM      1  C   UNL     1       3.795   4.719  19.055  0.00  0.00    +0.000 C 
ENDROOT
BRANCH   1   6
ATOM      2  C   UNL     1       7.264   4.371  15.687  0.00  0.00    +0.000 C 
ATOM      3  C   UNL     1       5.997   3.569  15.387  0.00  0.00    +0.000 C 
ATOM      4  C   UNL     1       4.967   4.148  16.349  0.00  0.00    +0.000 C 
ATOM      5  N   UNL     1       5.744   4.533  17.516  0.00  0.00    +0.000 N 
ATOM      6  C   UNL     1       5.287   4.813  18.782  0.00  0.00    +0.000 C 
ATOM      7  O   UNL     1       6.073   5.122  19.687  0.00  0.00    +0.000 OA
ATOM      8  C   UNL     1       7.161   4.620  17.197  0.00  0.00    +0.000 C 
BRANCH   2  10
ATOM      9  C   UNL     1       7.595   5.374  13.554  0.00  0.00    +0.000 C 
ATOM     10  O   UNL     1       7.224   5.576  14.914  0.00  0.00    +0.000 OA
ENDBRANCH   2  10
ENDBRANCH   1   6
BRANCH   1  11
ATOM     11  C   UNL     1       3.076   6.046  19.155  0.00  0.00    +0.000 A 
ATOM     12  C   UNL     1       3.102   6.998  18.136  0.00  0.00    +0.000 A 
ATOM     13  C   UNL     1       2.425   8.222  18.273  0.00  0.00    +0.000 A 
ATOM     14  C   UNL     1       1.666   8.544  19.410  0.00  0.00    +0.000 A 
ATOM     15  C   UNL     1       1.605   7.545  20.395  0.00  0.00    +0.000 A 
ATOM     16  C   UNL     1       2.290   6.324  20.276  0.00  0.00    +0.000 A 
BRANCH  14  17
ATOM     17  N   UNL     1       1.081   9.796  19.569  0.00  0.00    +0.000 N 
ATOM     18  C   UNL     1       1.158  10.805  18.513  0.00  0.00    +0.000 C 
ATOM     19  C   UNL     1       0.002  10.017  20.529  0.00  0.00    +0.000 C 
ENDBRANCH  14  17
ENDBRANCH   1  11
TORSDOF 4
ENDMDL
MODEL 9
REMARK VINA RESULT:      -6.2      1.556      2.306
REMARK  Name = 
REMARK  7 active torsions:
REMARK  status: ('A' for Active; 'I' for Inactive)
REMARK    1  A    between atoms: C_1  and  O_2
REMARK    2  A    between atoms: O_2  and  C_3
REMARK    3  A    between atoms: C_7  and  C_9
REMARK    4  A    between atoms: C_9  and  C_10
REMARK    5  A    between atoms: C_13  and  N_14
REMARK    6  A    between atoms: N_14  and  C_15
REMARK    7  A    between atoms: N_14  and  C_16
REMARK                            x       y       z     vdW  Elec       q    Type
REMARK                         _______ _______ _______ _____ _____    ______ ____
ROOT
ATOM      1  C   UNL     1       5.223   5.615  18.928  0.00  0.00    +0.000 C 
ENDROOT
BRANCH   1   6
ATOM      2  C   UNL     1       1.482   2.547  19.226  0.00  0.00    +0.000 C 
ATOM      3  C   UNL     1       2.646   2.056  18.365  0.00  0.00    +0.000 C 
ATOM      4  C   UNL     1       3.795   2.979  18.752  0.00  0.00    +0.000 C 
ATOM      5  N   UNL     1       3.150   4.242  19.066  0.00  0.00    +0.000 N 
ATOM      6  C   UNL     1       3.728   5.485  19.168  0.00  0.00    +0.000 C 
ATOM      7  O   UNL     1       3.047   6.483  19.438  0.00  0.00    +0.000 OA
ATOM      8  C   UNL     1       1.726   4.060  19.299  0.00  0.00    +0.000 C 
BRANCH   2  10
ATOM      9  C   UNL     1       1.324   2.789  21.588  0.00  0.00    +0.000 C 
ATOM     10  O   UNL     1       1.566   1.901  20.502  0.00  0.00    +0.000 OA
ENDBRANCH   2  10
ENDBRANCH   1   6
BRANCH   1  11
ATOM     11  C   UNL     1       5.668   5.367  17.503  0.00  0.00    +0.000 A 
ATOM     12  C   UNL     1       6.678   4.463  17.174  0.00  0.00    +0.000 A 
ATOM     13  C   UNL     1       7.064   4.268  15.837  0.00  0.00    +0.000 A 
ATOM     14  C   UNL     1       6.448   4.935  14.765  0.00  0.00    +0.000 A 
ATOM     15  C   UNL     1       5.394   5.792  15.117  0.00  0.00    +0.000 A 
ATOM     16  C   UNL     1       5.009   6.007  16.452  0.00  0.00    +0.000 A 
BRANCH  14  17
ATOM     17  N   UNL     1       6.906   4.800  13.459  0.00  0.00    +0.000 N 
ATOM     18  C   UNL     1       8.172   5.400  13.037  0.00  0.00    +0.000 C 
ATOM     19  C   UNL     1       6.440   3.719  12.595  0.00  0.00    +0.000 C 
ENDBRANCH  14  17
ENDBRANCH   1  11
TORSDOF 4
ENDMDL
