MODEL 1
REMARK VINA RESULT:      -7.8      0.000      0.000
REMARK  Name = 
REMARK  6 active torsions:
REMARK  status: ('A' for Active; 'I' for Inactive)
REMARK    1  A    between atoms: C_1  and  O_2
REMARK    2  A    between atoms: O_2  and  C_3
REMARK    3  A    between atoms: C_9  and  N_10
REMARK    4  A    between atoms: C_11  and  C_13
REMARK    5  A    between atoms: N_17  and  C_18
REMARK    6  A    between atoms: C_25  and  C_26
REMARK                            x       y       z     vdW  Elec       q    Type
REMARK                         _______ _______ _______ _____ _____    ______ ____
ROOT
ATOM      1  C   UNL     1       3.740   3.765  19.524  0.00  0.00    +0.000 C 
ATOM      2  C   UNL     1       2.606   2.744  19.795  0.00  0.00    +0.000 C 
ATOM      3  C   UNL     1       1.198   3.321  19.604  0.00  0.00    +0.000 C 
ATOM      4  C   UNL     1       1.027   4.605  20.407  0.00  0.00    +0.000 C 
ATOM      5  N   UNL     1       2.040   5.545  19.924  0.00  0.00    +0.000 N 
ATOM      6  C   UNL     1       3.428   5.123  20.190  0.00  0.00    +0.000 C 
ENDROOT
BRANCH   5   7
ATOM      7  C   UNL     1       1.738   6.882  20.211  0.00  0.00    +0.000 A 
ATOM      8  N   UNL     1       1.087   7.229  21.353  0.00  0.00    +0.000 NA
ATOM      9  C   UNL     1       0.699   8.510  21.529  0.00  0.00    +0.000 A 
ATOM     10  N   UNL     1       0.873   9.549  20.701  0.00  0.00    +0.000 NA
ATOM     11  C   UNL     1       1.499   9.164  19.582  0.00  0.00    +0.000 A 
ATOM     12  O   UNL     1       1.781  10.000  18.542  0.00  0.00    +0.000 OA
ATOM     13  N   UNL     1       2.403   9.293  17.525  0.00  0.00    +0.000 NA
ATOM     14  C   UNL     1       2.474   8.027  17.962  0.00  0.00    +0.000 A 
ATOM     15  C   UNL     1       3.059   6.975  17.114  0.00  0.00    +0.000 C 
ATOM     16  C   UNL     1       1.950   7.896  19.269  0.00  0.00    +0.000 A 
ENDBRANCH   5   7
BRANCH   1  18
ATOM     17  N   UNL     1       5.298   4.399  17.687  0.00  0.00    +0.000 N 
ATOM     18  C   UNL     1       4.056   3.852  18.016  0.00  0.00    +0.000 C 
ATOM     19  O   UNL     1       3.242   3.453  17.186  0.00  0.00    +0.000 OA
ATOM     20  H   UNL     1       5.870   4.813  18.416  0.00  0.00    +0.000 HD
BRANCH  17  27
ATOM     21  C   UNL     1       7.081   5.204  16.199  0.00  0.00    +0.000 A 
ATOM     22  C   UNL     1       7.667   5.295  14.923  0.00  0.00    +0.000 A 
ATOM     23  C   UNL     1       7.021   4.756  13.811  0.00  0.00    +0.000 A 
ATOM     24  C   UNL     1       5.808   4.113  13.968  0.00  0.00    +0.000 A 
ATOM     25 CL   UNL     1       5.019   3.445  12.593  0.00  0.00    +0.000 Cl
ATOM     26  C   UNL     1       5.230   3.980  15.236  0.00  0.00    +0.000 A 
ATOM     27  C   UNL     1       5.855   4.519  16.372  0.00  0.00    +0.000 A 
BRANCH  21  29
ATOM     28  C   UNL     1       7.461   7.178  17.452  0.00  0.00    +0.000 C 
ATOM     29  O   UNL     1       7.657   5.766  17.319  0.00  0.00    +0.000 OA
ENDBRANCH  21  29
ENDBRANCH  17  27
ENDBRANCH   1  18
TORSDOF 4
ENDMDL
MODEL 2
REMARK VINA RESULT:      -7.4      1.379      1.608
REMARK  Name = 
REMARK  6 active torsions:
REMARK  status: ('A' for Active; 'I' for Inactive)
REMARK    1  A    between atoms: C_1  and  O_2
REMARK    2  A    between atoms: O_2  and  C_3
REMARK    3  A    between atoms: C_9  and  N_10
REMARK    4  A    between atoms: C_11  and  C_13
REMARK    5  A    between atoms: N_17  and  C_18
REMARK    6  A    between atoms: C_25  and  C_26
REMARK                            x       y       z     vdW  Elec       q    Type
REMARK                         _______ _______ _______ _____ _____    ______ ____
ROOT
ATOM      1  C   UNL     1       3.019   3.154  20.920  0.00  0.00    +0.000 C 
ATOM      2  C   UNL     1       1.773   2.406  20.381  0.00  0.00    +0.000 C 
ATOM      3  C   UNL     1       0.920   3.240  19.419  0.00  0.00    +0.000 C 
ATOM      4  C   UNL     1       0.564   4.585  20.041  0.00  0.00    +0.000 C 
ATOM      5  N   UNL     1       1.828   5.265  20.333  0.00  0.00    +0.000 N 
ATOM      6  C   UNL     1       2.652   4.591  21.353  0.00  0.00    +0.000 C 
ENDROOT
BRANCH   5   7
ATOM      7  C   UNL     1       1.693   6.652  20.469  0.00  0.00    +0.000 A 
ATOM      8  N   UNL     1       1.172   7.203  21.598  0.00  0.00    +0.000 NA
ATOM      9  C   UNL     1       0.938   8.532  21.636  0.00  0.00    +0.000 A 
ATOM     10  N   UNL     1       1.157   9.440  20.676  0.00  0.00    +0.000 NA
ATOM     11  C   UNL     1       1.651   8.857  19.577  0.00  0.00    +0.000 A 
ATOM     12  O   UNL     1       1.939   9.527  18.425  0.00  0.00    +0.000 OA
ATOM     13  N   UNL     1       2.402   8.639  17.466  0.00  0.00    +0.000 NA
ATOM     14  C   UNL     1       2.372   7.433  18.052  0.00  0.00    +0.000 A 
ATOM     15  C   UNL     1       2.774   6.229  17.307  0.00  0.00    +0.000 C 
ATOM     16  C   UNL     1       1.938   7.517  19.396  0.00  0.00    +0.000 A 
ENDBRANCH   5   7
BRANCH   1  18
ATOM     17  N   UNL     1       4.233   4.074  18.949  0.00  0.00    +0.000 N 
ATOM     18  C   UNL     1       4.190   3.069  19.918  0.00  0.00    +0.000 C 
ATOM     19  O   UNL     1       5.013   2.161  20.000  0.00  0.00    +0.000 OA
ATOM     20  H   UNL     1       3.459   4.724  18.870  0.00  0.00    +0.000 HD
BRANCH  17  27
ATOM     21  C   UNL     1       6.498   4.814  18.344  0.00  0.00    +0.000 A 
ATOM     22  C   UNL     1       7.527   4.964  17.397  0.00  0.00    +0.000 A 
ATOM     23  C   UNL     1       7.315   4.616  16.063  0.00  0.00    +0.000 A 
ATOM     24  C   UNL     1       6.092   4.104  15.676  0.00  0.00    +0.000 A 
ATOM     25 CL   UNL     1       5.838   3.672  14.029  0.00  0.00    +0.000 Cl
ATOM     26  C   UNL     1       5.070   3.912  16.612  0.00  0.00    +0.000 A 
ATOM     27  C   UNL     1       5.253   4.260  17.960  0.00  0.00    +0.000 A 
BRANCH  21  29
ATOM     28  C   UNL     1       7.960   5.632  20.019  0.00  0.00    +0.000 C 
ATOM     29  O   UNL     1       6.645   5.191  19.662  0.00  0.00    +0.000 OA
ENDBRANCH  21  29
ENDBRANCH  17  27
ENDBRANCH   1  18
TORSDOF 4
ENDMDL
MODEL 3
REMARK VINA RESULT:      -7.2      3.419      7.516
REMARK  Name = 
REMARK  6 active torsions:
REMARK  status: ('A' for Active; 'I' for Inactive)
REMARK    1  A    between atoms: C_1  and  O_2
REMARK    2  A    between atoms: O_2  and  C_3
REMARK    3  A    between atoms: C_9  and  N_10
REMARK    4  A    between atoms: C_11  and  C_13
REMARK    5  A    between atoms: N_17  and  C_18
REMARK    6  A    between atoms: C_25  and  C_26
REMARK                            x       y       z     vdW  Elec       q    Type
REMARK                         _______ _______ _______ _____ _____    ______ ____
ROOT
ATOM      1  C   UNL     1       2.266   6.911  17.824  0.00  0.00    +0.000 C 
ATOM      2  C   UNL     1       1.360   5.654  17.876  0.00  0.00    +0.000 C 
ATOM      3  C   UNL     1       1.911   4.532  18.763  0.00  0.00    +0.000 C 
ATOM      4  C   UNL     1       3.347   4.197  18.380  0.00  0.00    +0.000 C 
ATOM      5  N   UNL     1       4.130   5.422  18.552  0.00  0.00    +0.000 N 
ATOM      6  C   UNL     1       3.747   6.513  17.636  0.00  0.00    +0.000 C 
ENDROOT
BRANCH   5   7
ATOM      7  C   UNL     1       5.503   5.189  18.689  0.00  0.00    +0.000 A 
ATOM      8  N   UNL     1       6.163   5.510  19.834  0.00  0.00    +0.000 NA
ATOM      9  C   UNL     1       7.507   5.391  19.877  0.00  0.00    +0.000 A 
ATOM     10  N   UNL     1       8.333   4.977  18.907  0.00  0.00    +0.000 NA
ATOM     11  C   UNL     1       7.650   4.688  17.793  0.00  0.00    +0.000 A 
ATOM     12  O   UNL     1       8.230   4.276  16.630  0.00  0.00    +0.000 OA
ATOM     13  N   UNL     1       7.258   4.092  15.658  0.00  0.00    +0.000 NA
ATOM     14  C   UNL     1       6.098   4.414  16.248  0.00  0.00    +0.000 A 
ATOM     15  C   UNL     1       4.835   4.363  15.493  0.00  0.00    +0.000 C 
ATOM     16  C   UNL     1       6.282   4.765  17.606  0.00  0.00    +0.000 A 
ENDBRANCH   5   7
BRANCH   1  18
ATOM     17  N   UNL     1       1.386   9.052  18.743  0.00  0.00    +0.000 N 
ATOM     18  C   UNL     1       2.001   7.832  19.033  0.00  0.00    +0.000 C 
ATOM     19  O   UNL     1       2.324   7.481  20.165  0.00  0.00    +0.000 OA
ATOM     20  H   UNL     1       1.252   9.325  17.775  0.00  0.00    +0.000 HD
BRANCH  17  27
ATOM     21  C   UNL     1       1.280  11.403  19.453  0.00  0.00    +0.000 A 
ATOM     22  C   UNL     1       0.842  12.395  20.349  0.00  0.00    +0.000 A 
ATOM     23  C   UNL     1       0.139  12.044  21.502  0.00  0.00    +0.000 A 
ATOM     24  C   UNL     1      -0.141  10.715  21.755  0.00  0.00    +0.000 A 
ATOM     25 CL   UNL     1      -1.012  10.289  23.176  0.00  0.00    +0.000 Cl
ATOM     26  C   UNL     1       0.254   9.719  20.855  0.00  0.00    +0.000 A 
ATOM     27  C   UNL     1       0.968  10.043  19.690  0.00  0.00    +0.000 A 
BRANCH  21  29
ATOM     28  C   UNL     1       2.537  13.032  18.280  0.00  0.00    +0.000 C 
ATOM     29  O   UNL     1       2.020  11.697  18.328  0.00  0.00    +0.000 OA
ENDBRANCH  21  29
ENDBRANCH  17  27
ENDBRANCH   1  18
TORSDOF 4
ENDMDL
MODEL 4
REMARK VINA RESULT:      -7.2      5.152      8.639
REMARK  Name = 
REMARK  6 active torsions:
REMARK  status: ('A' for Active; 'I' for Inactive)
REMARK    1  A    between atoms: C_1  and  O_2
REMARK    2  A    between atoms: O_2  and  C_3
REMARK    3  A    between atoms: C_9  and  N_10
REMARK    4  A    between atoms: C_11  and  C_13
REMARK    5  A    between atoms: N_17  and  C_18
REMARK    6  A    between atoms: C_25  and  C_26
REMARK                            x       y       z     vdW  Elec       q    Type
REMARK                         _______ _______ _______ _____ _____    ______ ____
ROOT
ATOM      1  C   UNL     1      -1.418  12.126  18.022  0.00  0.00    +0.000 C 
ATOM      2  C   UNL     1      -0.395  13.197  18.478  0.00  0.00    +0.000 C 
ATOM      3  C   UNL     1      -0.523  13.585  19.955  0.00  0.00    +0.000 C 
ATOM      4  C   UNL     1      -1.958  13.976  20.288  0.00  0.00    +0.000 C 
ATOM      5  N   UNL     1      -2.796  12.813  19.984  0.00  0.00    +0.000 N 
ATOM      6  C   UNL     1      -2.831  12.455  18.555  0.00  0.00    +0.000 C 
ENDROOT
BRANCH   5   7
ATOM      7  C   UNL     1      -4.030  12.832  20.645  0.00  0.00    +0.000 A 
ATOM      8  N   UNL     1      -5.165  13.231  20.010  0.00  0.00    +0.000 NA
ATOM      9  C   UNL     1      -6.307  13.359  20.718  0.00  0.00    +0.000 A 
ATOM     10  N   UNL     1      -6.501  13.137  22.024  0.00  0.00    +0.000 NA
ATOM     11  C   UNL     1      -5.360  12.765  22.617  0.00  0.00    +0.000 A 
ATOM     12  O   UNL     1      -5.244  12.505  23.950  0.00  0.00    +0.000 OA
ATOM     13  N   UNL     1      -3.932  12.178  24.255  0.00  0.00    +0.000 NA
ATOM     14  C   UNL     1      -3.265  12.261  23.095  0.00  0.00    +0.000 A 
ATOM     15  C   UNL     1      -1.816  12.005  23.045  0.00  0.00    +0.000 C 
ATOM     16  C   UNL     1      -4.124  12.595  22.021  0.00  0.00    +0.000 A 
ENDBRANCH   5   7
BRANCH   1  18
ATOM     17  N   UNL     1       0.460  10.564  18.503  0.00  0.00    +0.000 N 
ATOM     18  C   UNL     1      -0.922  10.706  18.366  0.00  0.00    +0.000 C 
ATOM     19  O   UNL     1      -1.722   9.784  18.503  0.00  0.00    +0.000 OA
ATOM     20  H   UNL     1       1.068  11.340  18.263  0.00  0.00    +0.000 HD
BRANCH  17  27
ATOM     21  C   UNL     1       1.074   8.924  20.229  0.00  0.00    +0.000 A 
ATOM     22  C   UNL     1       1.718   7.736  20.619  0.00  0.00    +0.000 A 
ATOM     23  C   UNL     1       2.486   7.017  19.703  0.00  0.00    +0.000 A 
ATOM     24  C   UNL     1       2.599   7.468  18.402  0.00  0.00    +0.000 A 
ATOM     25 CL   UNL     1       3.545   6.574  17.275  0.00  0.00    +0.000 Cl
ATOM     26  C   UNL     1       1.935   8.627  17.988  0.00  0.00    +0.000 A 
ATOM     27  C   UNL     1       1.160   9.374  18.890  0.00  0.00    +0.000 A 
BRANCH  21  29
ATOM     28  C   UNL     1       0.455   9.302  22.484  0.00  0.00    +0.000 C 
ATOM     29  O   UNL     1       0.346   9.694  21.111  0.00  0.00    +0.000 OA
ENDBRANCH  21  29
ENDBRANCH  17  27
ENDBRANCH   1  18
TORSDOF 4
ENDMDL
MODEL 5
REMARK VINA RESULT:      -7.0      6.815     11.535
REMARK  Name = 
REMARK  6 active torsions:
REMARK  status: ('A' for Active; 'I' for Inactive)
REMARK    1  A    between atoms: C_1  and  O_2
REMARK    2  A    between atoms: O_2  and  C_3
REMARK    3  A    between atoms: C_9  and  N_10
REMARK    4  A    between atoms: C_11  and  C_13
REMARK    5  A    between atoms: N_17  and  C_18
REMARK    6  A    between atoms: C_25  and  C_26
REMARK                            x       y       z     vdW  Elec       q    Type
REMARK                         _______ _______ _______ _____ _____    ______ ____
ROOT
ATOM      1  C   UNL     1      -2.515  13.962  23.239  0.00  0.00    +0.000 C 
ATOM      2  C   UNL     1      -1.537  15.145  23.028  0.00  0.00    +0.000 C 
ATOM      3  C   UNL     1      -0.509  14.906  21.917  0.00  0.00    +0.000 C 
ATOM      4  C   UNL     1       0.218  13.584  22.129  0.00  0.00    +0.000 C 
ATOM      5  N   UNL     1      -0.802  12.533  22.124  0.00  0.00    +0.000 N 
ATOM      6  C   UNL     1      -1.756  12.616  23.245  0.00  0.00    +0.000 C 
ENDROOT
BRANCH   5   7
ATOM      7  C   UNL     1      -0.286  11.261  21.848  0.00  0.00    +0.000 A 
ATOM      8  N   UNL     1       0.171  10.454  22.842  0.00  0.00    +0.000 NA
ATOM      9  C   UNL     1       0.780   9.292  22.522  0.00  0.00    +0.000 A 
ATOM     10  N   UNL     1       1.010   8.787  21.303  0.00  0.00    +0.000 NA
ATOM     11  C   UNL     1       0.563   9.617  20.353  0.00  0.00    +0.000 A 
ATOM     12  O   UNL     1       0.692   9.383  19.015  0.00  0.00    +0.000 OA
ATOM     13  N   UNL     1       0.159  10.443  18.298  0.00  0.00    +0.000 NA
ATOM     14  C   UNL     1      -0.273  11.316  19.220  0.00  0.00    +0.000 A 
ATOM     15  C   UNL     1      -0.880  12.595  18.812  0.00  0.00    +0.000 C 
ATOM     16  C   UNL     1      -0.073  10.831  20.533  0.00  0.00    +0.000 A 
ENDBRANCH   5   7
BRANCH   1  18
ATOM     17  N   UNL     1      -4.114  12.804  21.722  0.00  0.00    +0.000 N 
ATOM     18  C   UNL     1      -3.687  14.029  22.237  0.00  0.00    +0.000 C 
ATOM     19  O   UNL     1      -4.187  15.110  21.937  0.00  0.00    +0.000 OA
ATOM     20  H   UNL     1      -3.582  11.964  21.924  0.00  0.00    +0.000 HD
BRANCH  17  27
ATOM     21  C   UNL     1      -6.499  12.309  21.386  0.00  0.00    +0.000 A 
ATOM     22  C   UNL     1      -7.609  12.140  20.539  0.00  0.00    +0.000 A 
ATOM     23  C   UNL     1      -7.456  12.199  19.153  0.00  0.00    +0.000 A 
ATOM     24  C   UNL     1      -6.207  12.443  18.613  0.00  0.00    +0.000 A 
ATOM     25 CL   UNL     1      -6.025  12.519  16.904  0.00  0.00    +0.000 Cl
ATOM     26  C   UNL     1      -5.099  12.651  19.442  0.00  0.00    +0.000 A 
ATOM     27  C   UNL     1      -5.224  12.591  20.840  0.00  0.00    +0.000 A 
BRANCH  21  29
ATOM     28  C   UNL     1      -7.910  11.938  23.252  0.00  0.00    +0.000 C 
ATOM     29  O   UNL     1      -6.593  12.210  22.758  0.00  0.00    +0.000 OA
ENDBRANCH  21  29
ENDBRANCH  17  27
ENDBRANCH   1  18
TORSDOF 4
ENDMDL
MODEL 6
REMARK VINA RESULT:      -7.0      2.488      4.260
REMARK  Name = 
REMARK  6 active torsions:
REMARK  status: ('A' for Active; 'I' for Inactive)
REMARK    1  A    between atoms: C_1  and  O_2
REMARK    2  A    between atoms: O_2  and  C_3
REMARK    3  A    between atoms: C_9  and  N_10
REMARK    4  A    between atoms: C_11  and  C_13
REMARK    5  A    between atoms: N_17  and  C_18
REMARK    6  A    between atoms: C_25  and  C_26
REMARK                            x       y       z     vdW  Elec       q    Type
REMARK                         _______ _______ _______ _____ _____    ______ ____
ROOT
ATOM      1  C   UNL     1       5.887   6.928  17.283  0.00  0.00    +0.000 C 
ATOM      2  C   UNL     1       7.084   6.170  17.912  0.00  0.00    +0.000 C 
ATOM      3  C   UNL     1       6.729   4.769  18.422  0.00  0.00    +0.000 C 
ATOM      4  C   UNL     1       5.523   4.822  19.351  0.00  0.00    +0.000 C 
ATOM      5  N   UNL     1       4.415   5.387  18.578  0.00  0.00    +0.000 N 
ATOM      6  C   UNL     1       4.624   6.786  18.162  0.00  0.00    +0.000 C 
ENDROOT
BRANCH   5   7
ATOM      7  C   UNL     1       3.156   5.086  19.111  0.00  0.00    +0.000 A 
ATOM      8  N   UNL     1       2.618   5.828  20.116  0.00  0.00    +0.000 NA
ATOM      9  C   UNL     1       1.464   5.426  20.689  0.00  0.00    +0.000 A 
ATOM     10  N   UNL     1       0.727   4.346  20.398  0.00  0.00    +0.000 NA
ATOM     11  C   UNL     1       1.297   3.632  19.419  0.00  0.00    +0.000 A 
ATOM     12  O   UNL     1       0.791   2.462  18.937  0.00  0.00    +0.000 OA
ATOM     13  N   UNL     1       1.628   1.955  17.955  0.00  0.00    +0.000 NA
ATOM     14  C   UNL     1       2.644   2.826  17.869  0.00  0.00    +0.000 A 
ATOM     15  C   UNL     1       3.755   2.588  16.932  0.00  0.00    +0.000 C 
ATOM     16  C   UNL     1       2.469   3.921  18.746  0.00  0.00    +0.000 A 
ENDBRANCH   5   7
BRANCH   1  18
ATOM     17  N   UNL     1       6.487   5.466  15.358  0.00  0.00    +0.000 N 
ATOM     18  C   UNL     1       5.688   6.519  15.809  0.00  0.00    +0.000 C 
ATOM     19  O   UNL     1       4.868   7.105  15.106  0.00  0.00    +0.000 OA
ATOM     20  H   UNL     1       7.223   5.106  15.958  0.00  0.00    +0.000 HD
BRANCH  17  27
ATOM     21  C   UNL     1       7.565   4.952  13.209  0.00  0.00    +0.000 A 
ATOM     22  C   UNL     1       7.555   4.321  11.952  0.00  0.00    +0.000 A 
ATOM     23  C   UNL     1       6.421   3.637  11.515  0.00  0.00    +0.000 A 
ATOM     24  C   UNL     1       5.308   3.564  12.331  0.00  0.00    +0.000 A 
ATOM     25 CL   UNL     1       3.914   2.714  11.788  0.00  0.00    +0.000 Cl
ATOM     26  C   UNL     1       5.315   4.153  13.600  0.00  0.00    +0.000 A 
ATOM     27  C   UNL     1       6.440   4.854  14.063  0.00  0.00    +0.000 A 
BRANCH  21  29
ATOM     28  C   UNL     1       9.433   6.290  12.633  0.00  0.00    +0.000 C 
ATOM     29  O   UNL     1       8.643   5.682  13.662  0.00  0.00    +0.000 OA
ENDBRANCH  21  29
ENDBRANCH  17  27
ENDBRANCH   1  18
TORSDOF 4
ENDMDL
MODEL 7
REMARK VINA RESULT:      -7.0      5.171      9.014
REMARK  Name = 
REMARK  6 active torsions:
REMARK  status: ('A' for Active; 'I' for Inactive)
REMARK    1  A    between atoms: C_1  and  O_2
REMARK    2  A    between atoms: O_2  and  C_3
REMARK    3  A    between atoms: C_9  and  N_10
REMARK    4  A    between atoms: C_11  and  C_13
REMARK    5  A    between atoms: N_17  and  C_18
REMARK    6  A    between atoms: C_25  and  C_26
REMARK                            x       y       z     vdW  Elec       q    Type
REMARK                         _______ _______ _______ _____ _____    ______ ____
ROOT
ATOM      1  C   UNL     1      -0.332  13.279  18.714  0.00  0.00    +0.000 C 
ATOM      2  C   UNL     1       0.122  14.666  19.236  0.00  0.00    +0.000 C 
ATOM      3  C   UNL     1      -0.444  15.020  20.617  0.00  0.00    +0.000 C 
ATOM      4  C   UNL     1      -1.958  14.860  20.637  0.00  0.00    +0.000 C 
ATOM      5  N   UNL     1      -2.242  13.462  20.306  0.00  0.00    +0.000 N 
ATOM      6  C   UNL     1      -1.847  13.076  18.939  0.00  0.00    +0.000 C 
ENDROOT
BRANCH   5   7
ATOM      7  C   UNL     1      -3.510  13.040  20.722  0.00  0.00    +0.000 A 
ATOM      8  N   UNL     1      -4.581  13.090  19.885  0.00  0.00    +0.000 NA
ATOM      9  C   UNL     1      -5.809  12.798  20.364  0.00  0.00    +0.000 A 
ATOM     10  N   UNL     1      -6.148  12.445  21.611  0.00  0.00    +0.000 NA
ATOM     11  C   UNL     1      -5.073  12.425  22.408  0.00  0.00    +0.000 A 
ATOM     12  O   UNL     1      -5.118  12.135  23.740  0.00  0.00    +0.000 OA
ATOM     13  N   UNL     1      -3.847  12.231  24.286  0.00  0.00    +0.000 NA
ATOM     14  C   UNL     1      -3.049  12.596  23.272  0.00  0.00    +0.000 A 
ATOM     15  C   UNL     1      -1.612  12.825  23.496  0.00  0.00    +0.000 C 
ATOM     16  C   UNL     1      -3.765  12.700  22.056  0.00  0.00    +0.000 A 
ENDBRANCH   5   7
BRANCH   1  18
ATOM     17  N   UNL     1       0.134  10.852  19.018  0.00  0.00    +0.000 N 
ATOM     18  C   UNL     1       0.556  12.155  19.288  0.00  0.00    +0.000 C 
ATOM     19  O   UNL     1       1.563  12.429  19.936  0.00  0.00    +0.000 OA
ATOM     20  H   UNL     1      -0.767  10.700  18.576  0.00  0.00    +0.000 HD
BRANCH  17  27
ATOM     21  C   UNL     1       0.624   9.088  20.659  0.00  0.00    +0.000 A 
ATOM     22  C   UNL     1       1.252   7.880  21.011  0.00  0.00    +0.000 A 
ATOM     23  C   UNL     1       2.112   7.245  20.114  0.00  0.00    +0.000 A 
ATOM     24  C   UNL     1       2.331   7.799  18.868  0.00  0.00    +0.000 A 
ATOM     25 CL   UNL     1       3.388   7.008  17.764  0.00  0.00    +0.000 Cl
ATOM     26  C   UNL     1       1.684   8.980  18.487  0.00  0.00    +0.000 A 
ATOM     27  C   UNL     1       0.819   9.644  19.372  0.00  0.00    +0.000 A 
BRANCH  21  29
ATOM     28  C   UNL     1       0.157   9.649  22.913  0.00  0.00    +0.000 C 
ATOM     29  O   UNL     1      -0.194   9.778  21.530  0.00  0.00    +0.000 OA
ENDBRANCH  21  29
ENDBRANCH  17  27
ENDBRANCH   1  18
TORSDOF 4
ENDMDL
MODEL 8
REMARK VINA RESULT:      -7.0      3.760      6.249
REMARK  Name = 
REMARK  6 active torsions:
REMARK  status: ('A' for Active; 'I' for Inactive)
REMARK    1  A    between atoms: C_1  and  O_2
REMARK    2  A    between atoms: O_2  and  C_3
REMARK    3  A    between atoms: C_9  and  N_10
REMARK    4  A    between atoms: C_11  and  C_13
REMARK    5  A    between atoms: N_17  and  C_18
REMARK    6  A    between atoms: C_25  and  C_26
REMARK                            x       y       z     vdW  Elec       q    Type
REMARK                         _______ _______ _______ _____ _____    ______ ____
ROOT
ATOM      1  C   UNL     1       1.141   9.223  22.584  0.00  0.00    +0.000 C 
ATOM      2  C   UNL     1      -0.042   9.347  23.577  0.00  0.00    +0.000 C 
ATOM      3  C   UNL     1      -1.179  10.246  23.075  0.00  0.00    +0.000 C 
ATOM      4  C   UNL     1      -0.641  11.604  22.641  0.00  0.00    +0.000 C 
ATOM      5  N   UNL     1       0.330  11.354  21.574  0.00  0.00    +0.000 N 
ATOM      6  C   UNL     1       1.523  10.606  22.010  0.00  0.00    +0.000 C 
ENDROOT
BRANCH   5   7
ATOM      7  C   UNL     1       0.567  12.474  20.768  0.00  0.00    +0.000 A 
ATOM      8  N   UNL     1       1.240  13.556  21.242  0.00  0.00    +0.000 NA
ATOM      9  C   UNL     1       1.332  14.664  20.476  0.00  0.00    +0.000 A 
ATOM     10  N   UNL     1       0.835  14.867  19.249  0.00  0.00    +0.000 NA
ATOM     11  C   UNL     1       0.165  13.788  18.825  0.00  0.00    +0.000 A 
ATOM     12  O   UNL     1      -0.481  13.715  17.626  0.00  0.00    +0.000 OA
ATOM     13  N   UNL     1      -1.103  12.483  17.499  0.00  0.00    +0.000 NA
ATOM     14  C   UNL     1      -0.836  11.830  18.639  0.00  0.00    +0.000 A 
ATOM     15  C   UNL     1      -1.372  10.478  18.870  0.00  0.00    +0.000 C 
ATOM     16  C   UNL     1      -0.011  12.594  19.498  0.00  0.00    +0.000 A 
ENDBRANCH   5   7
BRANCH   1  18
ATOM     17  N   UNL     1       1.974   7.479  21.014  0.00  0.00    +0.000 N 
ATOM     18  C   UNL     1       0.855   8.146  21.517  0.00  0.00    +0.000 C 
ATOM     19  O   UNL     1      -0.298   7.918  21.157  0.00  0.00    +0.000 OA
ATOM     20  H   UNL     1       2.902   7.798  21.271  0.00  0.00    +0.000 HD
BRANCH  17  27
ATOM     21  C   UNL     1       2.426   6.617  18.757  0.00  0.00    +0.000 A 
ATOM     22  C   UNL     1       2.471   5.555  17.835  0.00  0.00    +0.000 A 
ATOM     23  C   UNL     1       2.020   4.286  18.199  0.00  0.00    +0.000 A 
ATOM     24  C   UNL     1       1.545   4.069  19.478  0.00  0.00    +0.000 A 
ATOM     25 CL   UNL     1       0.995   2.500  19.923  0.00  0.00    +0.000 Cl
ATOM     26  C   UNL     1       1.529   5.105  20.419  0.00  0.00    +0.000 A 
ATOM     27  C   UNL     1       1.970   6.394  20.078  0.00  0.00    +0.000 A 
BRANCH  21  29
ATOM     28  C   UNL     1       1.803   8.685  17.783  0.00  0.00    +0.000 C 
ATOM     29  O   UNL     1       2.813   7.899  18.427  0.00  0.00    +0.000 OA
ENDBRANCH  21  29
ENDBRANCH  17  27
ENDBRANCH   1  18
TORSDOF 4
ENDMDL
MODEL 9
REMARK VINA RESULT:      -6.9      2.990      6.679
REMARK  Name = 
REMARK  6 active torsions:
REMARK  status: ('A' for Active; 'I' for Inactive)
REMARK    1  A    between atoms: C_1  and  O_2
REMARK    2  A    between atoms: O_2  and  C_3
REMARK    3  A    between atoms: C_9  and  N_10
REMARK    4  A    between atoms: C_11  and  C_13
REMARK    5  A    between atoms: N_17  and  C_18
REMARK    6  A    between atoms: C_25  and  C_26
REMARK                            x       y       z     vdW  Elec       q    Type
REMARK                         _______ _______ _______ _____ _____    ______ ____
ROOT
ATOM      1  C   UNL     1       1.997   3.718  19.105  0.00  0.00    +0.000 C 
ATOM      2  C   UNL     1       2.683   2.602  19.933  0.00  0.00    +0.000 C 
ATOM      3  C   UNL     1       4.214   2.683  19.930  0.00  0.00    +0.000 C 
ATOM      4  C   UNL     1       4.747   2.758  18.505  0.00  0.00    +0.000 C 
ATOM      5  N   UNL     1       4.165   3.956  17.897  0.00  0.00    +0.000 N 
ATOM      6  C   UNL     1       2.700   3.901  17.742  0.00  0.00    +0.000 C 
ENDROOT
BRANCH   5   7
ATOM      7  C   UNL     1       4.884   4.420  16.788  0.00  0.00    +0.000 A 
ATOM      8  N   UNL     1       4.600   3.988  15.531  0.00  0.00    +0.000 NA
ATOM      9  C   UNL     1       5.400   4.359  14.508  0.00  0.00    +0.000 A 
ATOM     10  N   UNL     1       6.491   5.134  14.550  0.00  0.00    +0.000 NA
ATOM     11  C   UNL     1       6.749   5.524  15.805  0.00  0.00    +0.000 A 
ATOM     12  O   UNL     1       7.818   6.293  16.159  0.00  0.00    +0.000 OA
ATOM     13  N   UNL     1       7.821   6.493  17.530  0.00  0.00    +0.000 NA
ATOM     14  C   UNL     1       6.754   5.824  17.991  0.00  0.00    +0.000 A 
ATOM     15  C   UNL     1       6.456   5.792  19.433  0.00  0.00    +0.000 C 
ATOM     16  C   UNL     1       6.022   5.222  16.941  0.00  0.00    +0.000 A 
ENDBRANCH   5   7
BRANCH   1  18
ATOM     17  N   UNL     1       1.750   6.194  19.194  0.00  0.00    +0.000 N 
ATOM     18  C   UNL     1       1.860   5.014  19.931  0.00  0.00    +0.000 C 
ATOM     19  O   UNL     1       1.852   4.970  21.159  0.00  0.00    +0.000 OA
ATOM     20  H   UNL     1       1.880   6.169  18.188  0.00  0.00    +0.000 HD
BRANCH  17  27
ATOM     21  C   UNL     1       1.706   8.631  18.871  0.00  0.00    +0.000 A 
ATOM     22  C   UNL     1       1.461   9.929  19.355  0.00  0.00    +0.000 A 
ATOM     23  C   UNL     1       1.099  10.128  20.688  0.00  0.00    +0.000 A 
ATOM     24  C   UNL     1       0.964   9.040  21.530  0.00  0.00    +0.000 A 
ATOM     25 CL   UNL     1       0.512   9.292  23.171  0.00  0.00    +0.000 Cl
ATOM     26  C   UNL     1       1.167   7.740  21.054  0.00  0.00    +0.000 A 
ATOM     27  C   UNL     1       1.538   7.511  19.719  0.00  0.00    +0.000 A 
BRANCH  21  29
ATOM     28  C   UNL     1       3.468   7.939  17.446  0.00  0.00    +0.000 C 
ATOM     29  O   UNL     1       2.114   8.390  17.576  0.00  0.00    +0.000 OA
ENDBRANCH  21  29
ENDBRANCH  17  27
ENDBRANCH   1  18
TORSDOF 4
ENDMDL
