MODEL 1
REMARK VINA RESULT:      -7.6      0.000      0.000
REMARK  Name = 
REMARK  11 active torsions:
REMARK  status: ('A' for Active; 'I' for Inactive)
REMARK    1  A    between atoms: C_1  and  N_2
REMARK    2  A    between atoms: N_12  and  C_13
REMARK    3  A    between atoms: C_15  and  C_16
REMARK    4  A    between atoms: C_16  and  N_17
REMARK    5  A    between atoms: N_17  and  C_18
REMARK    6  A    between atoms: N_17  and  C_19
REMARK    7  A    between atoms: C_19  and  C_20
REMARK    8  A    between atoms: C_20  and  O_21
REMARK    9  A    between atoms: O_21  and  N_22
REMARK   10  A    between atoms: C_23  and  O_24
REMARK   11  A    between atoms: C_25  and  O_26
REMARK                            x       y       z     vdW  Elec       q    Type
REMARK                         _______ _______ _______ _____ _____    ______ ____
ROOT
ATOM      1  C   UNL     1       5.149   5.369  16.890  0.00  0.00    +0.000 C 
ATOM      2  O   UNL     1       4.978   5.749  15.488  0.00  0.00    +0.000 OA
ATOM      3  C   UNL     1       5.977   5.087  14.682  0.00  0.00    +0.000 C 
ATOM      4  C   UNL     1       7.047   4.667  15.681  0.00  0.00    +0.000 C 
ATOM      5  C   UNL     1       6.240   4.292  16.917  0.00  0.00    +0.000 C 
ENDROOT
BRANCH   1  17
ATOM      6  C   UNL     1       2.238   8.359  17.959  0.00  0.00    +0.000 C 
ATOM      7  N   UNL     1       3.270   7.355  17.813  0.00  0.00    +0.000 N 
ATOM      8  C   UNL     1       2.992   6.043  17.972  0.00  0.00    +0.000 A 
ATOM      9  N   UNL     1       2.033   5.508  18.697  0.00  0.00    +0.000 NA
ATOM     10  C   UNL     1       2.269   4.143  18.652  0.00  0.00    +0.000 A 
ATOM     11  C   UNL     1       1.621   3.047  19.259  0.00  0.00    +0.000 A 
ATOM     12  N   UNL     1       0.492   3.165  20.065  0.00  0.00    +0.000 N 
ATOM     13  N   UNL     1       2.126   1.808  19.064  0.00  0.00    +0.000 NA
ATOM     14  C   UNL     1       3.235   1.681  18.308  0.00  0.00    +0.000 A 
ATOM     15  N   UNL     1       3.919   2.648  17.671  0.00  0.00    +0.000 NA
ATOM     16  C   UNL     1       3.385   3.858  17.887  0.00  0.00    +0.000 A 
ATOM     17  N   UNL     1       3.850   5.078  17.464  0.00  0.00    +0.000 N 
ATOM     18  H   UNL     1       3.902   7.578  17.036  0.00  0.00    +0.000 HD
ATOM     19  H   UNL     1      -0.053   4.002  19.887  0.00  0.00    +0.000 HD
ATOM     20  H   UNL     1      -0.010   2.287  20.126  0.00  0.00    +0.000 HD
ENDBRANCH   1  17
BRANCH   4  21
ATOM     21  O   UNL     1       7.881   5.798  16.021  0.00  0.00    +0.000 OA
ATOM     22  H   UNL     1       8.011   6.343  15.222  0.00  0.00    +0.000 HD
ENDBRANCH   4  21
BRANCH   5  23
ATOM     23  O   UNL     1       7.063   4.352  18.079  0.00  0.00    +0.000 OA
ATOM     24  H   UNL     1       7.783   4.983  17.877  0.00  0.00    +0.000 HD
ENDBRANCH   5  23
BRANCH   3  25
ATOM     25  C   UNL     1       5.352   3.897  13.918  0.00  0.00    +0.000 C 
BRANCH  25  26
ATOM     26  N   UNL     1       5.586   3.913  12.454  0.00  0.00    +0.000 NA
ATOM     27  C   UNL     1       7.006   4.062  12.126  0.00  0.00    +0.000 C 
BRANCH  26  28
ATOM     28  C   UNL     1       5.023   2.714  11.792  0.00  0.00    +0.000 C 
BRANCH  28  29
ATOM     29  C   UNL     1       3.674   2.998  11.116  0.00  0.00    +0.000 C 
BRANCH  29  30
ATOM     30  O   UNL     1       3.727   4.201  10.342  0.00  0.00    +0.000 OA
BRANCH  30  31
ATOM     31  N   UNL     1       2.827   4.025   9.203  0.00  0.00    +0.000 NA
ATOM     32  H   UNL     1       1.919   3.981   9.667  0.00  0.00    +0.000 HD
ATOM     33  H   UNL     1       3.035   3.066   8.922  0.00  0.00    +0.000 HD
ENDBRANCH  30  31
ENDBRANCH  29  30
ENDBRANCH  28  29
ENDBRANCH  26  28
ENDBRANCH  25  26
ENDBRANCH   3  25
TORSDOF 9
ENDMDL
MODEL 2
REMARK VINA RESULT:      -7.5      1.717      1.951
REMARK  Name = 
REMARK  11 active torsions:
REMARK  status: ('A' for Active; 'I' for Inactive)
REMARK    1  A    between atoms: C_1  and  N_2
REMARK    2  A    between atoms: N_12  and  C_13
REMARK    3  A    between atoms: C_15  and  C_16
REMARK    4  A    between atoms: C_16  and  N_17
REMARK    5  A    between atoms: N_17  and  C_18
REMARK    6  A    between atoms: N_17  and  C_19
REMARK    7  A    between atoms: C_19  and  C_20
REMARK    8  A    between atoms: C_20  and  O_21
REMARK    9  A    between atoms: O_21  and  N_22
REMARK   10  A    between atoms: C_23  and  O_24
REMARK   11  A    between atoms: C_25  and  O_26
REMARK                            x       y       z     vdW  Elec       q    Type
REMARK                         _______ _______ _______ _____ _____    ______ ____
ROOT
ATOM      1  C   UNL     1       5.374   6.029  18.203  0.00  0.00    +0.000 C 
ATOM      2  O   UNL     1       5.673   6.411  16.824  0.00  0.00    +0.000 OA
ATOM      3  C   UNL     1       6.996   5.951  16.470  0.00  0.00    +0.000 C 
ATOM      4  C   UNL     1       7.674   5.695  17.810  0.00  0.00    +0.000 C 
ATOM      5  C   UNL     1       6.542   5.155  18.674  0.00  0.00    +0.000 C 
ENDROOT
BRANCH   1  17
ATOM      6  C   UNL     1       1.814   8.435  17.897  0.00  0.00    +0.000 C 
ATOM      7  N   UNL     1       2.978   7.637  18.218  0.00  0.00    +0.000 N 
ATOM      8  C   UNL     1       2.887   6.296  18.350  0.00  0.00    +0.000 A 
ATOM      9  N   UNL     1       1.830   5.594  18.699  0.00  0.00    +0.000 NA
ATOM     10  C   UNL     1       2.294   4.295  18.839  0.00  0.00    +0.000 A 
ATOM     11  C   UNL     1       1.659   3.099  19.234  0.00  0.00    +0.000 A 
ATOM     12  N   UNL     1       0.306   3.008  19.548  0.00  0.00    +0.000 N 
ATOM     13  N   UNL     1       2.402   1.973  19.327  0.00  0.00    +0.000 NA
ATOM     14  C   UNL     1       3.720   2.052  19.052  0.00  0.00    +0.000 A 
ATOM     15  N   UNL     1       4.421   3.129  18.652  0.00  0.00    +0.000 NA
ATOM     16  C   UNL     1       3.647   4.220  18.569  0.00  0.00    +0.000 A 
ATOM     17  N   UNL     1       4.024   5.505  18.268  0.00  0.00    +0.000 N 
ATOM     18  H   UNL     1       3.810   7.973  17.720  0.00  0.00    +0.000 HD
ATOM     19  H   UNL     1      -0.264   3.731  19.122  0.00  0.00    +0.000 HD
ATOM     20  H   UNL     1      -0.025   2.052  19.478  0.00  0.00    +0.000 HD
ENDBRANCH   1  17
BRANCH   4  21
ATOM     21  O   UNL     1       8.118   6.943  18.388  0.00  0.00    +0.000 OA
ATOM     22  H   UNL     1       7.645   7.084  19.230  0.00  0.00    +0.000 HD
ENDBRANCH   4  21
BRANCH   5  23
ATOM     23  O   UNL     1       6.853   5.325  20.054  0.00  0.00    +0.000 OA
ATOM     24  H   UNL     1       6.121   4.914  20.557  0.00  0.00    +0.000 HD
ENDBRANCH   5  23
BRANCH   3  25
ATOM     25  C   UNL     1       6.909   4.692  15.577  0.00  0.00    +0.000 C 
BRANCH  25  26
ATOM     26  N   UNL     1       6.606   4.966  14.152  0.00  0.00    +0.000 NA
ATOM     27  C   UNL     1       7.821   5.178  13.363  0.00  0.00    +0.000 C 
BRANCH  26  28
ATOM     28  C   UNL     1       5.775   3.899  13.550  0.00  0.00    +0.000 C 
BRANCH  28  29
ATOM     29  C   UNL     1       6.385   3.342  12.255  0.00  0.00    +0.000 C 
BRANCH  29  30
ATOM     30  O   UNL     1       5.567   2.305  11.703  0.00  0.00    +0.000 OA
BRANCH  30  31
ATOM     31  N   UNL     1       6.463   1.242  11.248  0.00  0.00    +0.000 NA
ATOM     32  H   UNL     1       7.334   1.757  11.109  0.00  0.00    +0.000 HD
ATOM     33  H   UNL     1       6.104   1.057  10.310  0.00  0.00    +0.000 HD
ENDBRANCH  30  31
ENDBRANCH  29  30
ENDBRANCH  28  29
ENDBRANCH  26  28
ENDBRANCH  25  26
ENDBRANCH   3  25
TORSDOF 9
ENDMDL
MODEL 3
REMARK VINA RESULT:      -7.3      1.262      1.570
REMARK  Name = 
REMARK  11 active torsions:
REMARK  status: ('A' for Active; 'I' for Inactive)
REMARK    1  A    between atoms: C_1  and  N_2
REMARK    2  A    between atoms: N_12  and  C_13
REMARK    3  A    between atoms: C_15  and  C_16
REMARK    4  A    between atoms: C_16  and  N_17
REMARK    5  A    between atoms: N_17  and  C_18
REMARK    6  A    between atoms: N_17  and  C_19
REMARK    7  A    between atoms: C_19  and  C_20
REMARK    8  A    between atoms: C_20  and  O_21
REMARK    9  A    between atoms: O_21  and  N_22
REMARK   10  A    between atoms: C_23  and  O_24
REMARK   11  A    between atoms: C_25  and  O_26
REMARK                            x       y       z     vdW  Elec       q    Type
REMARK                         _______ _______ _______ _____ _____    ______ ____
ROOT
ATOM      1  C   UNL     1       5.131   5.398  16.984  0.00  0.00    +0.000 C 
ATOM      2  O   UNL     1       4.983   5.787  15.582  0.00  0.00    +0.000 OA
ATOM      3  C   UNL     1       6.005   5.142  14.791  0.00  0.00    +0.000 C 
ATOM      4  C   UNL     1       7.060   4.727  15.808  0.00  0.00    +0.000 C 
ATOM      5  C   UNL     1       6.234   4.333  17.024  0.00  0.00    +0.000 C 
ENDROOT
BRANCH   1  17
ATOM      6  C   UNL     1       2.166   8.347  18.018  0.00  0.00    +0.000 C 
ATOM      7  N   UNL     1       3.212   7.355  17.885  0.00  0.00    +0.000 N 
ATOM      8  C   UNL     1       2.945   6.039  18.028  0.00  0.00    +0.000 A 
ATOM      9  N   UNL     1       1.979   5.487  18.731  0.00  0.00    +0.000 NA
ATOM     10  C   UNL     1       2.232   4.126  18.680  0.00  0.00    +0.000 A 
ATOM     11  C   UNL     1       1.585   3.018  19.266  0.00  0.00    +0.000 A 
ATOM     12  N   UNL     1       0.438   3.117  20.050  0.00  0.00    +0.000 N 
ATOM     13  N   UNL     1       2.107   1.787  19.071  0.00  0.00    +0.000 NA
ATOM     14  C   UNL     1       3.233   1.677  18.337  0.00  0.00    +0.000 A 
ATOM     15  N   UNL     1       3.918   2.658  17.720  0.00  0.00    +0.000 NA
ATOM     16  C   UNL     1       3.366   3.859  17.935  0.00  0.00    +0.000 A 
ATOM     17  N   UNL     1       3.825   5.088  17.530  0.00  0.00    +0.000 N 
ATOM     18  H   UNL     1       3.856   7.592  17.122  0.00  0.00    +0.000 HD
ATOM     19  H   UNL     1      -0.113   3.949  19.867  0.00  0.00    +0.000 HD
ATOM     20  H   UNL     1      -0.054   2.233  20.095  0.00  0.00    +0.000 HD
ENDBRANCH   1  17
BRANCH   4  21
ATOM     21  O   UNL     1       7.874   5.865  16.173  0.00  0.00    +0.000 OA
ATOM     22  H   UNL     1       8.488   5.596  16.883  0.00  0.00    +0.000 HD
ENDBRANCH   4  21
BRANCH   5  23
ATOM     23  O   UNL     1       7.033   4.394  18.203  0.00  0.00    +0.000 OA
ATOM     24  H   UNL     1       7.533   3.553  18.243  0.00  0.00    +0.000 HD
ENDBRANCH   5  23
BRANCH   3  25
ATOM     25  C   UNL     1       5.410   3.952  14.006  0.00  0.00    +0.000 C 
BRANCH  25  26
ATOM     26  N   UNL     1       5.692   3.969  12.550  0.00  0.00    +0.000 NA
ATOM     27  C   UNL     1       7.128   4.042  12.270  0.00  0.00    +0.000 C 
BRANCH  26  28
ATOM     28  C   UNL     1       5.085   2.811  11.856  0.00  0.00    +0.000 C 
BRANCH  28  29
ATOM     29  C   UNL     1       6.132   1.777  11.417  0.00  0.00    +0.000 C 
BRANCH  29  30
ATOM     30  O   UNL     1       5.517   0.526  11.090  0.00  0.00    +0.000 OA
BRANCH  30  31
ATOM     31  N   UNL     1       6.481  -0.527  11.406  0.00  0.00    +0.000 NA
ATOM     32  H   UNL     1       5.944  -1.106  12.052  0.00  0.00    +0.000 HD
ATOM     33  H   UNL     1       7.154  -0.024  11.986  0.00  0.00    +0.000 HD
ENDBRANCH  30  31
ENDBRANCH  29  30
ENDBRANCH  28  29
ENDBRANCH  26  28
ENDBRANCH  25  26
ENDBRANCH   3  25
TORSDOF 9
ENDMDL
MODEL 4
REMARK VINA RESULT:      -7.0      2.881      6.854
REMARK  Name = 
REMARK  11 active torsions:
REMARK  status: ('A' for Active; 'I' for Inactive)
REMARK    1  A    between atoms: C_1  and  N_2
REMARK    2  A    between atoms: N_12  and  C_13
REMARK    3  A    between atoms: C_15  and  C_16
REMARK    4  A    between atoms: C_16  and  N_17
REMARK    5  A    between atoms: N_17  and  C_18
REMARK    6  A    between atoms: N_17  and  C_19
REMARK    7  A    between atoms: C_19  and  C_20
REMARK    8  A    between atoms: C_20  and  O_21
REMARK    9  A    between atoms: O_21  and  N_22
REMARK   10  A    between atoms: C_23  and  O_24
REMARK   11  A    between atoms: C_25  and  O_26
REMARK                            x       y       z     vdW  Elec       q    Type
REMARK                         _______ _______ _______ _____ _____    ______ ____
ROOT
ATOM      1  C   UNL     1       4.584   3.685  17.471  0.00  0.00    +0.000 C 
ATOM      2  O   UNL     1       3.502   4.634  17.211  0.00  0.00    +0.000 OA
ATOM      3  C   UNL     1       2.812   4.929  18.446  0.00  0.00    +0.000 C 
ATOM      4  C   UNL     1       3.195   3.783  19.373  0.00  0.00    +0.000 C 
ATOM      5  C   UNL     1       4.642   3.498  18.991  0.00  0.00    +0.000 C 
ENDROOT
BRANCH   1  17
ATOM      6  C   UNL     1       7.840   5.849  19.281  0.00  0.00    +0.000 C 
ATOM      7  N   UNL     1       6.677   5.318  18.602  0.00  0.00    +0.000 N 
ATOM      8  C   UNL     1       6.732   4.964  17.300  0.00  0.00    +0.000 A 
ATOM      9  N   UNL     1       7.536   5.439  16.373  0.00  0.00    +0.000 NA
ATOM     10  C   UNL     1       7.092   4.871  15.189  0.00  0.00    +0.000 A 
ATOM     11  C   UNL     1       7.511   5.018  13.851  0.00  0.00    +0.000 A 
ATOM     12  N   UNL     1       8.580   5.819  13.458  0.00  0.00    +0.000 N 
ATOM     13  N   UNL     1       6.834   4.357  12.885  0.00  0.00    +0.000 NA
ATOM     14  C   UNL     1       5.779   3.599  13.247  0.00  0.00    +0.000 A 
ATOM     15  N   UNL     1       5.306   3.375  14.487  0.00  0.00    +0.000 NA
ATOM     16  C   UNL     1       6.006   4.044  15.413  0.00  0.00    +0.000 A 
ATOM     17  N   UNL     1       5.773   4.117  16.763  0.00  0.00    +0.000 N 
ATOM     18  H   UNL     1       6.149   4.680  19.209  0.00  0.00    +0.000 HD
ATOM     19  H   UNL     1       9.262   5.980  14.191  0.00  0.00    +0.000 HD
ATOM     20  H   UNL     1       8.931   5.544  12.548  0.00  0.00    +0.000 HD
ENDBRANCH   1  17
BRANCH   4  21
ATOM     21  O   UNL     1       2.413   2.608  19.061  0.00  0.00    +0.000 OA
ATOM     22  H   UNL     1       2.528   2.397  18.115  0.00  0.00    +0.000 HD
ENDBRANCH   4  21
BRANCH   5  23
ATOM     23  O   UNL     1       5.002   2.176  19.383  0.00  0.00    +0.000 OA
ATOM     24  H   UNL     1       4.166   1.680  19.490  0.00  0.00    +0.000 HD
ENDBRANCH   5  23
BRANCH   3  25
ATOM     25  C   UNL     1       3.231   6.317  18.981  0.00  0.00    +0.000 C 
BRANCH  25  26
ATOM     26  N   UNL     1       2.188   7.365  18.863  0.00  0.00    +0.000 NA
ATOM     27  C   UNL     1       1.809   7.911  20.169  0.00  0.00    +0.000 C 
BRANCH  26  28
ATOM     28  C   UNL     1       2.598   8.451  17.944  0.00  0.00    +0.000 C 
BRANCH  28  29
ATOM     29  C   UNL     1       1.596   9.615  17.930  0.00  0.00    +0.000 C 
BRANCH  29  30
ATOM     30  O   UNL     1       2.270  10.877  17.915  0.00  0.00    +0.000 OA
BRANCH  30  31
ATOM     31  N   UNL     1       1.313  11.886  18.366  0.00  0.00    +0.000 NA
ATOM     32  H   UNL     1       1.161  12.420  17.509  0.00  0.00    +0.000 HD
ATOM     33  H   UNL     1       1.900  12.479  18.954  0.00  0.00    +0.000 HD
ENDBRANCH  30  31
ENDBRANCH  29  30
ENDBRANCH  28  29
ENDBRANCH  26  28
ENDBRANCH  25  26
ENDBRANCH   3  25
TORSDOF 9
ENDMDL
MODEL 5
REMARK VINA RESULT:      -7.0      1.582      2.138
REMARK  Name = 
REMARK  11 active torsions:
REMARK  status: ('A' for Active; 'I' for Inactive)
REMARK    1  A    between atoms: C_1  and  N_2
REMARK    2  A    between atoms: N_12  and  C_13
REMARK    3  A    between atoms: C_15  and  C_16
REMARK    4  A    between atoms: C_16  and  N_17
REMARK    5  A    between atoms: N_17  and  C_18
REMARK    6  A    between atoms: N_17  and  C_19
REMARK    7  A    between atoms: C_19  and  C_20
REMARK    8  A    between atoms: C_20  and  O_21
REMARK    9  A    between atoms: O_21  and  N_22
REMARK   10  A    between atoms: C_23  and  O_24
REMARK   11  A    between atoms: C_25  and  O_26
REMARK                            x       y       z     vdW  Elec       q    Type
REMARK                         _______ _______ _______ _____ _____    ______ ____
ROOT
ATOM      1  C   UNL     1       5.033   5.706  17.104  0.00  0.00    +0.000 C 
ATOM      2  O   UNL     1       4.921   5.735  15.646  0.00  0.00    +0.000 OA
ATOM      3  C   UNL     1       6.074   5.091  15.059  0.00  0.00    +0.000 C 
ATOM      4  C   UNL     1       7.110   5.090  16.175  0.00  0.00    +0.000 C 
ATOM      5  C   UNL     1       6.272   4.863  17.427  0.00  0.00    +0.000 C 
ENDROOT
BRANCH   1  17
ATOM      6  C   UNL     1       2.003   8.511  18.332  0.00  0.00    +0.000 C 
ATOM      7  N   UNL     1       3.077   7.561  18.132  0.00  0.00    +0.000 N 
ATOM      8  C   UNL     1       2.857   6.232  18.229  0.00  0.00    +0.000 A 
ATOM      9  N   UNL     1       1.928   5.621  18.933  0.00  0.00    +0.000 NA
ATOM     10  C   UNL     1       2.223   4.272  18.820  0.00  0.00    +0.000 A 
ATOM     11  C   UNL     1       1.628   3.121  19.378  0.00  0.00    +0.000 A 
ATOM     12  N   UNL     1       0.501   3.150  20.195  0.00  0.00    +0.000 N 
ATOM     13  N   UNL     1       2.184   1.916  19.120  0.00  0.00    +0.000 NA
ATOM     14  C   UNL     1       3.293   1.873  18.353  0.00  0.00    +0.000 A 
ATOM     15  N   UNL     1       3.929   2.900  17.759  0.00  0.00    +0.000 NA
ATOM     16  C   UNL     1       3.344   4.073  18.037  0.00  0.00    +0.000 A 
ATOM     17  N   UNL     1       3.753   5.331  17.670  0.00  0.00    +0.000 N 
ATOM     18  H   UNL     1       3.692   7.849  17.363  0.00  0.00    +0.000 HD
ATOM     19  H   UNL     1      -0.081   3.970  20.060  0.00  0.00    +0.000 HD
ATOM     20  H   UNL     1       0.038   2.249  20.217  0.00  0.00    +0.000 HD
ENDBRANCH   1  17
BRANCH   4  21
ATOM     21  O   UNL     1       7.727   6.393  16.283  0.00  0.00    +0.000 OA
ATOM     22  H   UNL     1       8.497   6.426  15.685  0.00  0.00    +0.000 HD
ENDBRANCH   4  21
BRANCH   5  23
ATOM     23  O   UNL     1       6.977   5.316  18.580  0.00  0.00    +0.000 OA
ATOM     24  H   UNL     1       7.873   5.567  18.277  0.00  0.00    +0.000 HD
ENDBRANCH   5  23
BRANCH   3  25
ATOM     25  C   UNL     1       5.707   3.675  14.562  0.00  0.00    +0.000 C 
BRANCH  25  26
ATOM     26  N   UNL     1       6.197   3.352  13.201  0.00  0.00    +0.000 NA
ATOM     27  C   UNL     1       5.209   3.677  12.169  0.00  0.00    +0.000 C 
BRANCH  26  28
ATOM     28  C   UNL     1       7.490   4.013  12.908  0.00  0.00    +0.000 C 
BRANCH  28  29
ATOM     29  C   UNL     1       7.386   5.015  11.749  0.00  0.00    +0.000 C 
BRANCH  29  30
ATOM     30  O   UNL     1       7.998   6.263  12.089  0.00  0.00    +0.000 OA
BRANCH  30  31
ATOM     31  N   UNL     1       8.892   6.014  13.220  0.00  0.00    +0.000 NA
ATOM     32  H   UNL     1       8.275   6.203  14.011  0.00  0.00    +0.000 HD
ATOM     33  H   UNL     1       9.520   6.817  13.167  0.00  0.00    +0.000 HD
ENDBRANCH  30  31
ENDBRANCH  29  30
ENDBRANCH  28  29
ENDBRANCH  26  28
ENDBRANCH  25  26
ENDBRANCH   3  25
TORSDOF 9
ENDMDL
MODEL 6
REMARK VINA RESULT:      -7.0      2.634      7.079
REMARK  Name = 
REMARK  11 active torsions:
REMARK  status: ('A' for Active; 'I' for Inactive)
REMARK    1  A    between atoms: C_1  and  N_2
REMARK    2  A    between atoms: N_12  and  C_13
REMARK    3  A    between atoms: C_15  and  C_16
REMARK    4  A    between atoms: C_16  and  N_17
REMARK    5  A    between atoms: N_17  and  C_18
REMARK    6  A    between atoms: N_17  and  C_19
REMARK    7  A    between atoms: C_19  and  C_20
REMARK    8  A    between atoms: C_20  and  O_21
REMARK    9  A    between atoms: O_21  and  N_22
REMARK   10  A    between atoms: C_23  and  O_24
REMARK   11  A    between atoms: C_25  and  O_26
REMARK                            x       y       z     vdW  Elec       q    Type
REMARK                         _______ _______ _______ _____ _____    ______ ____
ROOT
ATOM      1  C   UNL     1       4.371   3.772  16.471  0.00  0.00    +0.000 C 
ATOM      2  O   UNL     1       3.558   4.939  16.809  0.00  0.00    +0.000 OA
ATOM      3  C   UNL     1       2.921   4.730  18.089  0.00  0.00    +0.000 C 
ATOM      4  C   UNL     1       2.989   3.224  18.300  0.00  0.00    +0.000 C 
ATOM      5  C   UNL     1       4.336   2.850  17.695  0.00  0.00    +0.000 C 
ENDROOT
BRANCH   1  17
ATOM      6  C   UNL     1       7.310   5.912  18.782  0.00  0.00    +0.000 C 
ATOM      7  N   UNL     1       6.264   5.391  17.929  0.00  0.00    +0.000 N 
ATOM      8  C   UNL     1       6.514   5.060  16.644  0.00  0.00    +0.000 A 
ATOM      9  N   UNL     1       7.445   5.552  15.855  0.00  0.00    +0.000 NA
ATOM     10  C   UNL     1       7.185   5.004  14.609  0.00  0.00    +0.000 A 
ATOM     11  C   UNL     1       7.797   5.176  13.350  0.00  0.00    +0.000 A 
ATOM     12  N   UNL     1       8.909   5.986  13.134  0.00  0.00    +0.000 N 
ATOM     13  N   UNL     1       7.275   4.531  12.283  0.00  0.00    +0.000 NA
ATOM     14  C   UNL     1       6.182   3.764  12.471  0.00  0.00    +0.000 A 
ATOM     15  N   UNL     1       5.531   3.517  13.623  0.00  0.00    +0.000 NA
ATOM     16  C   UNL     1       6.082   4.171  14.654  0.00  0.00    +0.000 A 
ATOM     17  N   UNL     1       5.650   4.219  15.956  0.00  0.00    +0.000 N 
ATOM     18  H   UNL     1       5.655   4.740  18.439  0.00  0.00    +0.000 HD
ATOM     19  H   UNL     1       9.474   6.137  13.964  0.00  0.00    +0.000 HD
ATOM     20  H   UNL     1       9.393   5.728  12.282  0.00  0.00    +0.000 HD
ENDBRANCH   1  17
BRANCH   4  21
ATOM     21  O   UNL     1       1.958   2.565  17.530  0.00  0.00    +0.000 OA
ATOM     22  H   UNL     1       1.886   1.640  17.830  0.00  0.00    +0.000 HD
ENDBRANCH   4  21
BRANCH   5  23
ATOM     23  O   UNL     1       4.357   1.465  17.358  0.00  0.00    +0.000 OA
ATOM     24  H   UNL     1       5.137   1.081  17.807  0.00  0.00    +0.000 HD
ENDBRANCH   5  23
BRANCH   3  25
ATOM     25  C   UNL     1       3.644   5.537  19.190  0.00  0.00    +0.000 C 
BRANCH  25  26
ATOM     26  N   UNL     1       2.742   6.263  20.117  0.00  0.00    +0.000 NA
ATOM     27  C   UNL     1       2.165   7.458  19.498  0.00  0.00    +0.000 C 
BRANCH  26  28
ATOM     28  C   UNL     1       1.674   5.386  20.649  0.00  0.00    +0.000 C 
BRANCH  28  29
ATOM     29  C   UNL     1       2.231   4.242  21.509  0.00  0.00    +0.000 C 
BRANCH  29  30
ATOM     30  O   UNL     1       1.380   3.093  21.452  0.00  0.00    +0.000 OA
BRANCH  30  31
ATOM     31  N   UNL     1       0.440   3.302  20.351  0.00  0.00    +0.000 NA
ATOM     32  H   UNL     1      -0.449   3.353  20.851  0.00  0.00    +0.000 HD
ATOM     33  H   UNL     1       0.445   2.388  19.898  0.00  0.00    +0.000 HD
ENDBRANCH  30  31
ENDBRANCH  29  30
ENDBRANCH  28  29
ENDBRANCH  26  28
ENDBRANCH  25  26
ENDBRANCH   3  25
TORSDOF 9
ENDMDL
MODEL 7
REMARK VINA RESULT:      -6.8      1.436      1.597
REMARK  Name = 
REMARK  11 active torsions:
REMARK  status: ('A' for Active; 'I' for Inactive)
REMARK    1  A    between atoms: C_1  and  N_2
REMARK    2  A    between atoms: N_12  and  C_13
REMARK    3  A    between atoms: C_15  and  C_16
REMARK    4  A    between atoms: C_16  and  N_17
REMARK    5  A    between atoms: N_17  and  C_18
REMARK    6  A    between atoms: N_17  and  C_19
REMARK    7  A    between atoms: C_19  and  C_20
REMARK    8  A    between atoms: C_20  and  O_21
REMARK    9  A    between atoms: O_21  and  N_22
REMARK   10  A    between atoms: C_23  and  O_24
REMARK   11  A    between atoms: C_25  and  O_26
REMARK                            x       y       z     vdW  Elec       q    Type
REMARK                         _______ _______ _______ _____ _____    ______ ____
ROOT
ATOM      1  C   UNL     1       5.086   5.882  18.291  0.00  0.00    +0.000 C 
ATOM      2  O   UNL     1       5.197   6.189  16.866  0.00  0.00    +0.000 OA
ATOM      3  C   UNL     1       6.481   5.744  16.374  0.00  0.00    +0.000 C 
ATOM      4  C   UNL     1       7.329   5.587  17.629  0.00  0.00    +0.000 C 
ATOM      5  C   UNL     1       6.333   5.069  18.658  0.00  0.00    +0.000 C 
ENDROOT
BRANCH   1  17
ATOM      6  C   UNL     1       1.818   8.085  20.031  0.00  0.00    +0.000 C 
ATOM      7  N   UNL     1       2.950   7.267  19.650  0.00  0.00    +0.000 N 
ATOM      8  C   UNL     1       2.784   5.980  19.277  0.00  0.00    +0.000 A 
ATOM      9  N   UNL     1       1.818   5.160  19.631  0.00  0.00    +0.000 NA
ATOM     10  C   UNL     1       2.186   3.928  19.112  0.00  0.00    +0.000 A 
ATOM     11  C   UNL     1       1.592   2.651  19.188  0.00  0.00    +0.000 A 
ATOM     12  N   UNL     1       0.387   2.395  19.837  0.00  0.00    +0.000 N 
ATOM     13  N   UNL     1       2.228   1.607  18.611  0.00  0.00    +0.000 NA
ATOM     14  C   UNL     1       3.409   1.835  18.001  0.00  0.00    +0.000 A 
ATOM     15  N   UNL     1       4.054   3.007  17.855  0.00  0.00    +0.000 NA
ATOM     16  C   UNL     1       3.390   4.014  18.437  0.00  0.00    +0.000 A 
ATOM     17  N   UNL     1       3.773   5.326  18.555  0.00  0.00    +0.000 N 
ATOM     18  H   UNL     1       3.626   7.802  19.092  0.00  0.00    +0.000 HD
ATOM     19  H   UNL     1      -0.216   3.206  19.917  0.00  0.00    +0.000 HD
ATOM     20  H   UNL     1      -0.032   1.533  19.509  0.00  0.00    +0.000 HD
ENDBRANCH   1  17
BRANCH   4  21
ATOM     21  O   UNL     1       7.799   6.879  18.077  0.00  0.00    +0.000 OA
ATOM     22  H   UNL     1       7.544   7.551  17.417  0.00  0.00    +0.000 HD
ENDBRANCH   4  21
BRANCH   5  23
ATOM     23  O   UNL     1       6.807   5.330  19.977  0.00  0.00    +0.000 OA
ATOM     24  H   UNL     1       6.017   5.369  20.554  0.00  0.00    +0.000 HD
ENDBRANCH   5  23
BRANCH   3  25
ATOM     25  C   UNL     1       6.327   4.433  15.571  0.00  0.00    +0.000 C 
BRANCH  25  26
ATOM     26  N   UNL     1       6.333   4.606  14.099  0.00  0.00    +0.000 NA
ATOM     27  C   UNL     1       7.603   5.153  13.615  0.00  0.00    +0.000 C 
BRANCH  26  28
ATOM     28  C   UNL     1       6.007   3.346  13.392  0.00  0.00    +0.000 C 
BRANCH  28  29
ATOM     29  C   UNL     1       5.504   3.591  11.962  0.00  0.00    +0.000 C 
BRANCH  29  30
ATOM     30  O   UNL     1       4.160   3.124  11.801  0.00  0.00    +0.000 OA
BRANCH  30  31
ATOM     31  N   UNL     1       3.680   3.621  10.512  0.00  0.00    +0.000 NA
ATOM     32  H   UNL     1       3.350   2.760  10.073  0.00  0.00    +0.000 HD
ATOM     33  H   UNL     1       4.555   3.848  10.039  0.00  0.00    +0.000 HD
ENDBRANCH  30  31
ENDBRANCH  29  30
ENDBRANCH  28  29
ENDBRANCH  26  28
ENDBRANCH  25  26
ENDBRANCH   3  25
TORSDOF 9
ENDMDL
MODEL 8
REMARK VINA RESULT:      -6.8      3.059      7.368
REMARK  Name = 
REMARK  11 active torsions:
REMARK  status: ('A' for Active; 'I' for Inactive)
REMARK    1  A    between atoms: C_1  and  N_2
REMARK    2  A    between atoms: N_12  and  C_13
REMARK    3  A    between atoms: C_15  and  C_16
REMARK    4  A    between atoms: C_16  and  N_17
REMARK    5  A    between atoms: N_17  and  C_18
REMARK    6  A    between atoms: N_17  and  C_19
REMARK    7  A    between atoms: C_19  and  C_20
REMARK    8  A    between atoms: C_20  and  O_21
REMARK    9  A    between atoms: O_21  and  N_22
REMARK   10  A    between atoms: C_23  and  O_24
REMARK   11  A    between atoms: C_25  and  O_26
REMARK                            x       y       z     vdW  Elec       q    Type
REMARK                         _______ _______ _______ _____ _____    ______ ____
ROOT
ATOM      1  C   UNL     1       4.201   3.867  16.779  0.00  0.00    +0.000 C 
ATOM      2  O   UNL     1       3.399   5.073  16.981  0.00  0.00    +0.000 OA
ATOM      3  C   UNL     1       2.738   5.004  18.264  0.00  0.00    +0.000 C 
ATOM      4  C   UNL     1       2.782   3.526  18.630  0.00  0.00    +0.000 C 
ATOM      5  C   UNL     1       4.133   3.076  18.091  0.00  0.00    +0.000 C 
ENDROOT
BRANCH   1  17
ATOM      6  C   UNL     1       7.285   5.852  19.040  0.00  0.00    +0.000 C 
ATOM      7  N   UNL     1       6.199   5.386  18.204  0.00  0.00    +0.000 N 
ATOM      8  C   UNL     1       6.412   5.038  16.916  0.00  0.00    +0.000 A 
ATOM      9  N   UNL     1       7.357   5.477  16.112  0.00  0.00    +0.000 NA
ATOM     10  C   UNL     1       7.049   4.940  14.872  0.00  0.00    +0.000 A 
ATOM     11  C   UNL     1       7.652   5.075  13.604  0.00  0.00    +0.000 A 
ATOM     12  N   UNL     1       8.803   5.823  13.369  0.00  0.00    +0.000 N 
ATOM     13  N   UNL     1       7.080   4.455  12.547  0.00  0.00    +0.000 NA
ATOM     14  C   UNL     1       5.950   3.749  12.754  0.00  0.00    +0.000 A 
ATOM     15  N   UNL     1       5.304   3.541  13.916  0.00  0.00    +0.000 NA
ATOM     16  C   UNL     1       5.904   4.168  14.936  0.00  0.00    +0.000 A 
ATOM     17  N   UNL     1       5.495   4.243  16.244  0.00  0.00    +0.000 N 
ATOM     18  H   UNL     1       5.564   4.770  18.725  0.00  0.00    +0.000 HD
ATOM     19  H   UNL     1       9.386   5.945  14.189  0.00  0.00    +0.000 HD
ATOM     20  H   UNL     1       9.259   5.537  12.511  0.00  0.00    +0.000 HD
ENDBRANCH   1  17
BRANCH   4  21
ATOM     21  O   UNL     1       1.754   2.806  17.913  0.00  0.00    +0.000 OA
ATOM     22  H   UNL     1       0.883   3.071  18.264  0.00  0.00    +0.000 HD
ENDBRANCH   4  21
BRANCH   5  23
ATOM     23  O   UNL     1       4.139   1.664  17.897  0.00  0.00    +0.000 OA
ATOM     24  H   UNL     1       5.079   1.388  17.891  0.00  0.00    +0.000 HD
ENDBRANCH   5  23
BRANCH   3  25
ATOM     25  C   UNL     1       3.455   5.911  19.290  0.00  0.00    +0.000 C 
BRANCH  25  26
ATOM     26  N   UNL     1       2.726   7.156  19.629  0.00  0.00    +0.000 NA
ATOM     27  C   UNL     1       2.289   7.880  18.433  0.00  0.00    +0.000 C 
BRANCH  26  28
ATOM     28  C   UNL     1       1.577   6.898  20.528  0.00  0.00    +0.000 C 
BRANCH  28  29
ATOM     29  C   UNL     1       1.107   8.166  21.256  0.00  0.00    +0.000 C 
BRANCH  29  30
ATOM     30  O   UNL     1      -0.296   8.111  21.535  0.00  0.00    +0.000 OA
BRANCH  30  31
ATOM     31  N   UNL     1      -0.543   8.974  22.689  0.00  0.00    +0.000 NA
ATOM     32  H   UNL     1      -1.115   9.710  22.273  0.00  0.00    +0.000 HD
ATOM     33  H   UNL     1       0.377   9.394  22.834  0.00  0.00    +0.000 HD
ENDBRANCH  30  31
ENDBRANCH  29  30
ENDBRANCH  28  29
ENDBRANCH  26  28
ENDBRANCH  25  26
ENDBRANCH   3  25
TORSDOF 9
ENDMDL
MODEL 9
REMARK VINA RESULT:      -6.8      2.077      2.389
REMARK  Name = 
REMARK  11 active torsions:
REMARK  status: ('A' for Active; 'I' for Inactive)
REMARK    1  A    between atoms: C_1  and  N_2
REMARK    2  A    between atoms: N_12  and  C_13
REMARK    3  A    between atoms: C_15  and  C_16
REMARK    4  A    between atoms: C_16  and  N_17
REMARK    5  A    between atoms: N_17  and  C_18
REMARK    6  A    between atoms: N_17  and  C_19
REMARK    7  A    between atoms: C_19  and  C_20
REMARK    8  A    between atoms: C_20  and  O_21
REMARK    9  A    between atoms: O_21  and  N_22
REMARK   10  A    between atoms: C_23  and  O_24
REMARK   11  A    between atoms: C_25  and  O_26
REMARK                            x       y       z     vdW  Elec       q    Type
REMARK                         _______ _______ _______ _____ _____    ______ ____
ROOT
ATOM      1  C   UNL     1       4.809   6.175  18.651  0.00  0.00    +0.000 C 
ATOM      2  O   UNL     1       4.697   6.949  17.415  0.00  0.00    +0.000 OA
ATOM      3  C   UNL     1       5.850   6.699  16.582  0.00  0.00    +0.000 C 
ATOM      4  C   UNL     1       6.886   6.126  17.539  0.00  0.00    +0.000 C 
ATOM      5  C   UNL     1       6.049   5.287  18.495  0.00  0.00    +0.000 C 
ENDROOT
BRANCH   1  17
ATOM      6  C   UNL     1       1.518   8.205  20.551  0.00  0.00    +0.000 C 
ATOM      7  N   UNL     1       2.667   7.442  20.113  0.00  0.00    +0.000 N 
ATOM      8  C   UNL     1       2.540   6.158  19.713  0.00  0.00    +0.000 A 
ATOM      9  N   UNL     1       1.619   5.292  20.078  0.00  0.00    +0.000 NA
ATOM     10  C   UNL     1       2.017   4.089  19.517  0.00  0.00    +0.000 A 
ATOM     11  C   UNL     1       1.476   2.787  19.581  0.00  0.00    +0.000 A 
ATOM     12  N   UNL     1       0.305   2.468  20.262  0.00  0.00    +0.000 N 
ATOM     13  N   UNL     1       2.132   1.784  18.957  0.00  0.00    +0.000 NA
ATOM     14  C   UNL     1       3.283   2.072  18.315  0.00  0.00    +0.000 A 
ATOM     15  N   UNL     1       3.876   3.272  18.177  0.00  0.00    +0.000 NA
ATOM     16  C   UNL     1       3.193   4.238  18.806  0.00  0.00    +0.000 A 
ATOM     17  N   UNL     1       3.529   5.562  18.944  0.00  0.00    +0.000 N 
ATOM     18  H   UNL     1       3.303   8.016  19.547  0.00  0.00    +0.000 HD
ATOM     19  H   UNL     1      -0.327   3.253  20.382  0.00  0.00    +0.000 HD
ATOM     20  H   UNL     1      -0.092   1.599  19.926  0.00  0.00    +0.000 HD
ENDBRANCH   1  17
BRANCH   4  21
ATOM     21  O   UNL     1       7.502   7.188  18.301  0.00  0.00    +0.000 OA
ATOM     22  H   UNL     1       7.128   7.184  19.203  0.00  0.00    +0.000 HD
ENDBRANCH   4  21
BRANCH   5  23
ATOM     23  O   UNL     1       6.753   5.084  19.717  0.00  0.00    +0.000 OA
ATOM     24  H   UNL     1       6.320   5.653  20.386  0.00  0.00    +0.000 HD
ENDBRANCH   5  23
BRANCH   3  25
ATOM     25  C   UNL     1       5.484   5.740  15.427  0.00  0.00    +0.000 C 
BRANCH  25  26
ATOM     26  N   UNL     1       6.507   4.707  15.136  0.00  0.00    +0.000 NA
ATOM     27  C   UNL     1       6.044   3.362  15.487  0.00  0.00    +0.000 C 
BRANCH  26  28
ATOM     28  C   UNL     1       6.951   4.751  13.724  0.00  0.00    +0.000 C 
BRANCH  28  29
ATOM     29  C   UNL     1       6.245   3.701  12.854  0.00  0.00    +0.000 C 
BRANCH  29  30
ATOM     30  O   UNL     1       7.067   3.305  11.752  0.00  0.00    +0.000 OA
BRANCH  30  31
ATOM     31  N   UNL     1       6.860   1.871  11.549  0.00  0.00    +0.000 NA
ATOM     32  H   UNL     1       7.152   1.494  12.452  0.00  0.00    +0.000 HD
ATOM     33  H   UNL     1       7.615   1.643  10.902  0.00  0.00    +0.000 HD
ENDBRANCH  30  31
ENDBRANCH  29  30
ENDBRANCH  28  29
ENDBRANCH  26  28
ENDBRANCH  25  26
ENDBRANCH   3  25
TORSDOF 9
ENDMDL
