MODEL 1
REMARK VINA RESULT:      -7.1      0.000      0.000
REMARK  Name = 
REMARK  4 active torsions:
REMARK  status: ('A' for Active; 'I' for Inactive)
REMARK    1  A    between atoms: C_2  and  C_3
REMARK    2  A    between atoms: C_4  and  N_5
REMARK    3  A    between atoms: C_9  and  O_10
REMARK    4  A    between atoms: C_14  and  C_15
REMARK                            x       y       z     vdW  Elec       q    Type
REMARK                         _______ _______ _______ _____ _____    ______ ____
ROOT
ATOM      1  C   UNL     1       2.603   7.301  19.218  0.00  0.00    +0.000 C 
ATOM      2  C   UNL     1       2.752   7.972  18.063  0.00  0.00    +0.000 C 
ATOM      3  O   UNL     1       3.668   7.564  17.094  0.00  0.00    +0.000 OA
ATOM      4  C   UNL     1       4.530   6.522  17.353  0.00  0.00    +0.000 A 
ATOM      5  C   UNL     1       5.450   6.197  16.355  0.00  0.00    +0.000 A 
ATOM      6  C   UNL     1       6.354   5.157  16.568  0.00  0.00    +0.000 A 
ATOM      7  C   UNL     1       6.365   4.453  17.765  0.00  0.00    +0.000 A 
ATOM      8  C   UNL     1       5.444   4.775  18.758  0.00  0.00    +0.000 A 
ATOM      9  C   UNL     1       4.503   5.800  18.547  0.00  0.00    +0.000 A 
ATOM     10  C   UNL     1       3.442   6.095  19.578  0.00  0.00    +0.000 C 
ENDROOT
BRANCH  10  11
ATOM     11  C   UNL     1       2.582   4.874  19.861  0.00  0.00    +0.000 A 
ATOM     12  C   UNL     1       1.858   4.243  18.841  0.00  0.00    +0.000 A 
ATOM     13  C   UNL     1       1.082   3.127  19.134  0.00  0.00    +0.000 A 
ATOM     14  C   UNL     1       1.055   2.670  20.441  0.00  0.00    +0.000 A 
ATOM     15  N   UNL     1       1.739   3.247  21.452  0.00  0.00    +0.000 NA
ATOM     16  C   UNL     1       2.482   4.331  21.142  0.00  0.00    +0.000 A 
ENDBRANCH  10  11
BRANCH   2  17
ATOM     17  N   UNL     1       2.041   9.090  17.699  0.00  0.00    +0.000 N 
ATOM     18  H   UNL     1       2.160   9.910  18.290  0.00  0.00    +0.000 HD
ATOM     19  H   UNL     1       1.070   8.883  17.483  0.00  0.00    +0.000 HD
ENDBRANCH   2  17
BRANCH   1  21
ATOM     20  N   UNL     1       0.754   8.013  21.170  0.00  0.00    +0.000 NA
ATOM     21  C   UNL     1       1.592   7.690  20.285  0.00  0.00    +0.000 C 
ENDBRANCH   1  21
BRANCH   6  22
ATOM     22  O   UNL     1       7.256   4.786  15.616  0.00  0.00    +0.000 OA
ATOM     23  H   UNL     1       6.814   4.211  14.970  0.00  0.00    +0.000 HD
ENDBRANCH   6  22
TORSDOF 4
ENDMDL
MODEL 2
REMARK VINA RESULT:      -7.1      0.981      1.294
REMARK  Name = 
REMARK  4 active torsions:
REMARK  status: ('A' for Active; 'I' for Inactive)
REMARK    1  A    between atoms: C_2  and  C_3
REMARK    2  A    between atoms: C_4  and  N_5
REMARK    3  A    between atoms: C_9  and  O_10
REMARK    4  A    between atoms: C_14  and  C_15
REMARK                            x       y       z     vdW  Elec       q    Type
REMARK                         _______ _______ _______ _____ _____    ______ ____
ROOT
ATOM      1  C   UNL     1       2.671   7.280  18.975  0.00  0.00    +0.000 C 
ATOM      2  C   UNL     1       2.782   8.132  17.941  0.00  0.00    +0.000 C 
ATOM      3  O   UNL     1       3.599   7.849  16.847  0.00  0.00    +0.000 OA
ATOM      4  C   UNL     1       4.405   6.733  16.856  0.00  0.00    +0.000 A 
ATOM      5  C   UNL     1       5.228   6.536  15.745  0.00  0.00    +0.000 A 
ATOM      6  C   UNL     1       6.073   5.428  15.706  0.00  0.00    +0.000 A 
ATOM      7  C   UNL     1       6.122   4.528  16.763  0.00  0.00    +0.000 A 
ATOM      8  C   UNL     1       5.296   4.722  17.868  0.00  0.00    +0.000 A 
ATOM      9  C   UNL     1       4.414   5.817  17.908  0.00  0.00    +0.000 A 
ATOM     10  C   UNL     1       3.451   5.987  19.057  0.00  0.00    +0.000 C 
ENDROOT
BRANCH  10  11
ATOM     11  C   UNL     1       2.532   4.784  19.200  0.00  0.00    +0.000 A 
ATOM     12  C   UNL     1       2.408   4.105  20.419  0.00  0.00    +0.000 A 
ATOM     13  C   UNL     1       1.557   3.009  20.516  0.00  0.00    +0.000 A 
ATOM     14  C   UNL     1       0.851   2.624  19.389  0.00  0.00    +0.000 A 
ATOM     15  N   UNL     1       0.941   3.251  18.196  0.00  0.00    +0.000 NA
ATOM     16  C   UNL     1       1.776   4.310  18.128  0.00  0.00    +0.000 A 
ENDBRANCH  10  11
BRANCH   2  17
ATOM     17  N   UNL     1       2.124   9.333  17.830  0.00  0.00    +0.000 N 
ATOM     18  H   UNL     1       1.686   9.524  16.933  0.00  0.00    +0.000 HD
ATOM     19  H   UNL     1       2.670  10.111  18.189  0.00  0.00    +0.000 HD
ENDBRANCH   2  17
BRANCH   1  21
ATOM     20  N   UNL     1       1.016   7.743  21.162  0.00  0.00    +0.000 NA
ATOM     21  C   UNL     1       1.767   7.533  20.170  0.00  0.00    +0.000 C 
ENDBRANCH   1  21
BRANCH   6  22
ATOM     22  O   UNL     1       6.878   5.179  14.635  0.00  0.00    +0.000 OA
ATOM     23  H   UNL     1       7.414   5.968  14.454  0.00  0.00    +0.000 HD
ENDBRANCH   6  22
TORSDOF 4
ENDMDL
MODEL 3
REMARK VINA RESULT:      -6.5      2.927      5.214
REMARK  Name = 
REMARK  4 active torsions:
REMARK  status: ('A' for Active; 'I' for Inactive)
REMARK    1  A    between atoms: C_2  and  C_3
REMARK    2  A    between atoms: C_4  and  N_5
REMARK    3  A    between atoms: C_9  and  O_10
REMARK    4  A    between atoms: C_14  and  C_15
REMARK                            x       y       z     vdW  Elec       q    Type
REMARK                         _______ _______ _______ _____ _____    ______ ____
ROOT
ATOM      1  C   UNL     1       3.829   6.216  17.511  0.00  0.00    +0.000 C 
ATOM      2  C   UNL     1       2.836   6.860  18.148  0.00  0.00    +0.000 C 
ATOM      3  O   UNL     1       2.237   6.330  19.290  0.00  0.00    +0.000 OA
ATOM      4  C   UNL     1       2.575   5.069  19.727  0.00  0.00    +0.000 A 
ATOM      5  C   UNL     1       1.903   4.585  20.851  0.00  0.00    +0.000 A 
ATOM      6  C   UNL     1       2.198   3.311  21.330  0.00  0.00    +0.000 A 
ATOM      7  C   UNL     1       3.136   2.507  20.695  0.00  0.00    +0.000 A 
ATOM      8  C   UNL     1       3.809   2.992  19.577  0.00  0.00    +0.000 A 
ATOM      9  C   UNL     1       3.547   4.289  19.100  0.00  0.00    +0.000 A 
ATOM     10  C   UNL     1       4.336   4.858  17.946  0.00  0.00    +0.000 C 
ENDROOT
BRANCH  10  11
ATOM     11  C   UNL     1       5.826   4.883  18.245  0.00  0.00    +0.000 A 
ATOM     12  C   UNL     1       6.329   5.535  19.379  0.00  0.00    +0.000 A 
ATOM     13  C   UNL     1       7.698   5.537  19.624  0.00  0.00    +0.000 A 
ATOM     14  C   UNL     1       8.527   4.881  18.729  0.00  0.00    +0.000 A 
ATOM     15  N   UNL     1       8.083   4.239  17.627  0.00  0.00    +0.000 NA
ATOM     16  C   UNL     1       6.750   4.255  17.410  0.00  0.00    +0.000 A 
ENDBRANCH  10  11
BRANCH   2  17
ATOM     17  N   UNL     1       2.316   8.076  17.778  0.00  0.00    +0.000 N 
ATOM     18  H   UNL     1       1.335   8.082  17.509  0.00  0.00    +0.000 HD
ATOM     19  H   UNL     1       2.917   8.577  17.130  0.00  0.00    +0.000 HD
ENDBRANCH   2  17
BRANCH   1  21
ATOM     20  N   UNL     1       5.118   7.235  15.268  0.00  0.00    +0.000 NA
ATOM     21  C   UNL     1       4.534   6.773  16.285  0.00  0.00    +0.000 C 
ENDBRANCH   1  21
BRANCH   6  22
ATOM     22  O   UNL     1       1.586   2.802  22.438  0.00  0.00    +0.000 OA
ATOM     23  H   UNL     1       1.647   3.451  23.157  0.00  0.00    +0.000 HD
ENDBRANCH   6  22
TORSDOF 4
ENDMDL
MODEL 4
REMARK VINA RESULT:      -6.3      2.743      5.073
REMARK  Name = 
REMARK  4 active torsions:
REMARK  status: ('A' for Active; 'I' for Inactive)
REMARK    1  A    between atoms: C_2  and  C_3
REMARK    2  A    between atoms: C_4  and  N_5
REMARK    3  A    between atoms: C_9  and  O_10
REMARK    4  A    between atoms: C_14  and  C_15
REMARK                            x       y       z     vdW  Elec       q    Type
REMARK                         _______ _______ _______ _____ _____    ______ ____
ROOT
ATOM      1  C   UNL     1       3.625   6.264  17.594  0.00  0.00    +0.000 C 
ATOM      2  C   UNL     1       2.627   6.880  18.252  0.00  0.00    +0.000 C 
ATOM      3  O   UNL     1       2.027   6.306  19.371  0.00  0.00    +0.000 OA
ATOM      4  C   UNL     1       2.369   5.031  19.762  0.00  0.00    +0.000 A 
ATOM      5  C   UNL     1       1.696   4.503  20.866  0.00  0.00    +0.000 A 
ATOM      6  C   UNL     1       1.996   3.213  21.298  0.00  0.00    +0.000 A 
ATOM      7  C   UNL     1       2.938   2.437  20.637  0.00  0.00    +0.000 A 
ATOM      8  C   UNL     1       3.612   2.966  19.539  0.00  0.00    +0.000 A 
ATOM      9  C   UNL     1       3.346   4.278  19.110  0.00  0.00    +0.000 A 
ATOM     10  C   UNL     1       4.135   4.893  17.980  0.00  0.00    +0.000 C 
ENDROOT
BRANCH  10  11
ATOM     11  C   UNL     1       5.625   4.912  18.283  0.00  0.00    +0.000 A 
ATOM     12  C   UNL     1       6.560   4.430  17.359  0.00  0.00    +0.000 A 
ATOM     13  C   UNL     1       7.917   4.463  17.667  0.00  0.00    +0.000 A 
ATOM     14  C   UNL     1       8.299   4.983  18.892  0.00  0.00    +0.000 A 
ATOM     15  N   UNL     1       7.430   5.461  19.809  0.00  0.00    +0.000 NA
ATOM     16  C   UNL     1       6.120   5.413  19.488  0.00  0.00    +0.000 A 
ENDBRANCH  10  11
BRANCH   2  17
ATOM     17  N   UNL     1       2.103   8.107  17.925  0.00  0.00    +0.000 N 
ATOM     18  H   UNL     1       2.520   8.575  17.124  0.00  0.00    +0.000 HD
ATOM     19  H   UNL     1       1.988   8.711  18.734  0.00  0.00    +0.000 HD
ENDBRANCH   2  17
BRANCH   1  21
ATOM     20  N   UNL     1       4.914   7.370  15.392  0.00  0.00    +0.000 NA
ATOM     21  C   UNL     1       4.329   6.869  16.390  0.00  0.00    +0.000 C 
ENDBRANCH   1  21
BRANCH   6  22
ATOM     22  O   UNL     1       1.384   2.662  22.385  0.00  0.00    +0.000 OA
ATOM     23  H   UNL     1       0.431   2.595  22.210  0.00  0.00    +0.000 HD
ENDBRANCH   6  22
TORSDOF 4
ENDMDL
MODEL 5
REMARK VINA RESULT:      -6.3      3.726      5.976
REMARK  Name = 
REMARK  4 active torsions:
REMARK  status: ('A' for Active; 'I' for Inactive)
REMARK    1  A    between atoms: C_2  and  C_3
REMARK    2  A    between atoms: C_4  and  N_5
REMARK    3  A    between atoms: C_9  and  O_10
REMARK    4  A    between atoms: C_14  and  C_15
REMARK                            x       y       z     vdW  Elec       q    Type
REMARK                         _______ _______ _______ _____ _____    ______ ____
ROOT
ATOM      1  C   UNL     1       6.413   5.855  18.026  0.00  0.00    +0.000 C 
ATOM      2  C   UNL     1       6.635   5.242  19.201  0.00  0.00    +0.000 C 
ATOM      3  O   UNL     1       5.876   4.145  19.607  0.00  0.00    +0.000 OA
ATOM      4  C   UNL     1       4.798   3.734  18.856  0.00  0.00    +0.000 A 
ATOM      5  C   UNL     1       4.058   2.656  19.345  0.00  0.00    +0.000 A 
ATOM      6  C   UNL     1       2.949   2.206  18.630  0.00  0.00    +0.000 A 
ATOM      7  C   UNL     1       2.559   2.825  17.450  0.00  0.00    +0.000 A 
ATOM      8  C   UNL     1       3.301   3.897  16.960  0.00  0.00    +0.000 A 
ATOM      9  C   UNL     1       4.442   4.343  17.652  0.00  0.00    +0.000 A 
ATOM     10  C   UNL     1       5.305   5.442  17.083  0.00  0.00    +0.000 C 
ENDROOT
BRANCH  10  11
ATOM     11  C   UNL     1       5.841   5.078  15.708  0.00  0.00    +0.000 A 
ATOM     12  C   UNL     1       5.051   4.386  14.781  0.00  0.00    +0.000 A 
ATOM     13  C   UNL     1       5.572   4.070  13.530  0.00  0.00    +0.000 A 
ATOM     14  C   UNL     1       6.868   4.460  13.241  0.00  0.00    +0.000 A 
ATOM     15  N   UNL     1       7.661   5.130  14.104  0.00  0.00    +0.000 NA
ATOM     16  C   UNL     1       7.134   5.421  15.313  0.00  0.00    +0.000 A 
ENDBRANCH  10  11
BRANCH   2  17
ATOM     17  N   UNL     1       7.604   5.596  20.108  0.00  0.00    +0.000 N 
ATOM     18  H   UNL     1       7.281   5.829  21.044  0.00  0.00    +0.000 HD
ATOM     19  H   UNL     1       8.268   6.266  19.730  0.00  0.00    +0.000 HD
ENDBRANCH   2  17
BRANCH   1  21
ATOM     20  N   UNL     1       7.923   8.007  17.118  0.00  0.00    +0.000 NA
ATOM     21  C   UNL     1       7.239   7.032  17.530  0.00  0.00    +0.000 C 
ENDBRANCH   1  21
BRANCH   6  22
ATOM     22  O   UNL     1       2.208   1.143  19.054  0.00  0.00    +0.000 OA
ATOM     23  H   UNL     1       2.305   0.417  18.416  0.00  0.00    +0.000 HD
ENDBRANCH   6  22
TORSDOF 4
ENDMDL
MODEL 6
REMARK VINA RESULT:      -6.2      2.567      4.924
REMARK  Name = 
REMARK  4 active torsions:
REMARK  status: ('A' for Active; 'I' for Inactive)
REMARK    1  A    between atoms: C_2  and  C_3
REMARK    2  A    between atoms: C_4  and  N_5
REMARK    3  A    between atoms: C_9  and  O_10
REMARK    4  A    between atoms: C_14  and  C_15
REMARK                            x       y       z     vdW  Elec       q    Type
REMARK                         _______ _______ _______ _____ _____    ______ ____
ROOT
ATOM      1  C   UNL     1       2.284   7.368  18.966  0.00  0.00    +0.000 C 
ATOM      2  C   UNL     1       1.790   7.466  20.213  0.00  0.00    +0.000 C 
ATOM      3  O   UNL     1       1.728   6.363  21.062  0.00  0.00    +0.000 OA
ATOM      4  C   UNL     1       2.070   5.112  20.598  0.00  0.00    +0.000 A 
ATOM      5  C   UNL     1       1.942   4.047  21.491  0.00  0.00    +0.000 A 
ATOM      6  C   UNL     1       2.264   2.758  21.071  0.00  0.00    +0.000 A 
ATOM      7  C   UNL     1       2.690   2.514  19.771  0.00  0.00    +0.000 A 
ATOM      8  C   UNL     1       2.821   3.578  18.883  0.00  0.00    +0.000 A 
ATOM      9  C   UNL     1       2.533   4.890  19.301  0.00  0.00    +0.000 A 
ATOM     10  C   UNL     1       2.759   6.060  18.375  0.00  0.00    +0.000 C 
ENDROOT
BRANCH  10  11
ATOM     11  C   UNL     1       4.208   6.141  17.920  0.00  0.00    +0.000 A 
ATOM     12  C   UNL     1       5.260   5.826  18.789  0.00  0.00    +0.000 A 
ATOM     13  C   UNL     1       6.575   5.909  18.340  0.00  0.00    +0.000 A 
ATOM     14  C   UNL     1       6.798   6.301  17.031  0.00  0.00    +0.000 A 
ATOM     15  N   UNL     1       5.813   6.611  16.161  0.00  0.00    +0.000 NA
ATOM     16  C   UNL     1       4.546   6.526  16.622  0.00  0.00    +0.000 A 
ENDBRANCH  10  11
BRANCH   2  17
ATOM     17  N   UNL     1       1.314   8.620  20.787  0.00  0.00    +0.000 N 
ATOM     18  H   UNL     1       1.515   9.485  20.292  0.00  0.00    +0.000 HD
ATOM     19  H   UNL     1       1.507   8.668  21.784  0.00  0.00    +0.000 HD
ENDBRANCH   2  17
BRANCH   1  21
ATOM     20  N   UNL     1       2.498   9.534  17.234  0.00  0.00    +0.000 NA
ATOM     21  C   UNL     1       2.401   8.552  18.020  0.00  0.00    +0.000 C 
ENDBRANCH   1  21
BRANCH   6  22
ATOM     22  O   UNL     1       2.179   1.688  21.912  0.00  0.00    +0.000 OA
ATOM     23  H   UNL     1       1.931   2.002  22.796  0.00  0.00    +0.000 HD
ENDBRANCH   6  22
TORSDOF 4
ENDMDL
MODEL 7
REMARK VINA RESULT:      -6.0      2.558      4.814
REMARK  Name = 
REMARK  4 active torsions:
REMARK  status: ('A' for Active; 'I' for Inactive)
REMARK    1  A    between atoms: C_2  and  C_3
REMARK    2  A    between atoms: C_4  and  N_5
REMARK    3  A    between atoms: C_9  and  O_10
REMARK    4  A    between atoms: C_14  and  C_15
REMARK                            x       y       z     vdW  Elec       q    Type
REMARK                         _______ _______ _______ _____ _____    ______ ____
ROOT
ATOM      1  C   UNL     1       2.282   7.284  18.977  0.00  0.00    +0.000 C 
ATOM      2  C   UNL     1       1.798   7.408  20.225  0.00  0.00    +0.000 C 
ATOM      3  O   UNL     1       1.713   6.316  21.087  0.00  0.00    +0.000 OA
ATOM      4  C   UNL     1       2.019   5.053  20.634  0.00  0.00    +0.000 A 
ATOM      5  C   UNL     1       1.869   4.000  21.540  0.00  0.00    +0.000 A 
ATOM      6  C   UNL     1       2.156   2.699  21.132  0.00  0.00    +0.000 A 
ATOM      7  C   UNL     1       2.568   2.431  19.833  0.00  0.00    +0.000 A 
ATOM      8  C   UNL     1       2.722   3.481  18.932  0.00  0.00    +0.000 A 
ATOM      9  C   UNL     1       2.470   4.804  19.337  0.00  0.00    +0.000 A 
ATOM     10  C   UNL     1       2.721   5.958  18.398  0.00  0.00    +0.000 C 
ENDROOT
BRANCH  10  11
ATOM     11  C   UNL     1       4.169   5.997  17.934  0.00  0.00    +0.000 A 
ATOM     12  C   UNL     1       4.494   6.180  16.584  0.00  0.00    +0.000 A 
ATOM     13  C   UNL     1       5.829   6.213  16.194  0.00  0.00    +0.000 A 
ATOM     14  C   UNL     1       6.802   6.065  17.168  0.00  0.00    +0.000 A 
ATOM     15  N   UNL     1       6.531   5.888  18.479  0.00  0.00    +0.000 NA
ATOM     16  C   UNL     1       5.228   5.857  18.832  0.00  0.00    +0.000 A 
ENDBRANCH  10  11
BRANCH   2  17
ATOM     17  N   UNL     1       1.355   8.580  20.789  0.00  0.00    +0.000 N 
ATOM     18  H   UNL     1       1.248   8.580  21.801  0.00  0.00    +0.000 HD
ATOM     19  H   UNL     1       0.558   8.974  20.297  0.00  0.00    +0.000 HD
ENDBRANCH   2  17
BRANCH   1  21
ATOM     20  N   UNL     1       2.543   9.425  17.221  0.00  0.00    +0.000 NA
ATOM     21  C   UNL     1       2.425   8.454  18.017  0.00  0.00    +0.000 C 
ENDBRANCH   1  21
BRANCH   6  22
ATOM     22  O   UNL     1       2.047   1.641  21.985  0.00  0.00    +0.000 OA
ATOM     23  H   UNL     1       2.680   1.756  22.712  0.00  0.00    +0.000 HD
ENDBRANCH   6  22
TORSDOF 4
ENDMDL
MODEL 8
REMARK VINA RESULT:      -6.0      2.508      4.884
REMARK  Name = 
REMARK  4 active torsions:
REMARK  status: ('A' for Active; 'I' for Inactive)
REMARK    1  A    between atoms: C_2  and  C_3
REMARK    2  A    between atoms: C_4  and  N_5
REMARK    3  A    between atoms: C_9  and  O_10
REMARK    4  A    between atoms: C_14  and  C_15
REMARK                            x       y       z     vdW  Elec       q    Type
REMARK                         _______ _______ _______ _____ _____    ______ ____
ROOT
ATOM      1  C   UNL     1       2.459   7.087  18.713  0.00  0.00    +0.000 C 
ATOM      2  C   UNL     1       1.881   6.817  19.896  0.00  0.00    +0.000 C 
ATOM      3  O   UNL     1       1.673   5.507  20.325  0.00  0.00    +0.000 OA
ATOM      4  C   UNL     1       1.954   4.452  19.486  0.00  0.00    +0.000 A 
ATOM      5  C   UNL     1       1.680   3.169  19.966  0.00  0.00    +0.000 A 
ATOM      6  C   UNL     1       1.935   2.066  19.154  0.00  0.00    +0.000 A 
ATOM      7  C   UNL     1       2.439   2.223  17.869  0.00  0.00    +0.000 A 
ATOM      8  C   UNL     1       2.716   3.502  17.394  0.00  0.00    +0.000 A 
ATOM      9  C   UNL     1       2.496   4.625  18.212  0.00  0.00    +0.000 A 
ATOM     10  C   UNL     1       2.879   6.007  17.742  0.00  0.00    +0.000 C 
ENDROOT
BRANCH  10  11
ATOM     11  C   UNL     1       4.359   6.094  17.408  0.00  0.00    +0.000 A 
ATOM     12  C   UNL     1       5.338   5.886  18.389  0.00  0.00    +0.000 A 
ATOM     13  C   UNL     1       6.685   5.971  18.049  0.00  0.00    +0.000 A 
ATOM     14  C   UNL     1       7.014   6.258  16.735  0.00  0.00    +0.000 A 
ATOM     15  N   UNL     1       6.102   6.462  15.760  0.00  0.00    +0.000 NA
ATOM     16  C   UNL     1       4.802   6.378  16.116  0.00  0.00    +0.000 A 
ENDBRANCH  10  11
BRANCH   2  17
ATOM     17  N   UNL     1       1.451   7.758  20.801  0.00  0.00    +0.000 N 
ATOM     18  H   UNL     1       2.081   8.536  20.973  0.00  0.00    +0.000 HD
ATOM     19  H   UNL     1       1.077   7.342  21.649  0.00  0.00    +0.000 HD
ENDBRANCH   2  17
BRANCH   1  21
ATOM     20  N   UNL     1       2.965   9.670  17.816  0.00  0.00    +0.000 NA
ATOM     21  C   UNL     1       2.736   8.499  18.223  0.00  0.00    +0.000 C 
ENDBRANCH   1  21
BRANCH   6  22
ATOM     22  O   UNL     1       1.707   0.793  19.585  0.00  0.00    +0.000 OA
ATOM     23  H   UNL     1       2.495   0.471  20.051  0.00  0.00    +0.000 HD
ENDBRANCH   6  22
TORSDOF 4
ENDMDL
MODEL 9
REMARK VINA RESULT:      -6.0      2.723      5.136
REMARK  Name = 
REMARK  4 active torsions:
REMARK  status: ('A' for Active; 'I' for Inactive)
REMARK    1  A    between atoms: C_2  and  C_3
REMARK    2  A    between atoms: C_4  and  N_5
REMARK    3  A    between atoms: C_9  and  O_10
REMARK    4  A    between atoms: C_14  and  C_15
REMARK                            x       y       z     vdW  Elec       q    Type
REMARK                         _______ _______ _______ _____ _____    ______ ____
ROOT
ATOM      1  C   UNL     1       4.825   5.747  17.415  0.00  0.00    +0.000 C 
ATOM      2  C   UNL     1       4.839   4.739  16.526  0.00  0.00    +0.000 C 
ATOM      3  O   UNL     1       3.914   3.698  16.588  0.00  0.00    +0.000 OA
ATOM      4  C   UNL     1       3.029   3.621  17.639  0.00  0.00    +0.000 A 
ATOM      5  C   UNL     1       2.159   2.529  17.659  0.00  0.00    +0.000 A 
ATOM      6  C   UNL     1       1.250   2.396  18.706  0.00  0.00    +0.000 A 
ATOM      7  C   UNL     1       1.208   3.322  19.740  0.00  0.00    +0.000 A 
ATOM      8  C   UNL     1       2.072   4.414  19.717  0.00  0.00    +0.000 A 
ATOM      9  C   UNL     1       2.973   4.581  18.650  0.00  0.00    +0.000 A 
ATOM     10  C   UNL     1       3.849   5.807  18.569  0.00  0.00    +0.000 C 
ENDROOT
BRANCH  10  11
ATOM     11  C   UNL     1       3.023   7.084  18.541  0.00  0.00    +0.000 A 
ATOM     12  C   UNL     1       2.320   7.517  19.673  0.00  0.00    +0.000 A 
ATOM     13  C   UNL     1       1.575   8.691  19.614  0.00  0.00    +0.000 A 
ATOM     14  C   UNL     1       1.559   9.400  18.425  0.00  0.00    +0.000 A 
ATOM     15  N   UNL     1       2.224   9.019  17.314  0.00  0.00    +0.000 NA
ATOM     16  C   UNL     1       2.936   7.874  17.395  0.00  0.00    +0.000 A 
ENDBRANCH  10  11
BRANCH   2  17
ATOM     17  N   UNL     1       5.723   4.617  15.481  0.00  0.00    +0.000 N 
ATOM     18  H   UNL     1       5.451   5.060  14.608  0.00  0.00    +0.000 HD
ATOM     19  H   UNL     1       6.062   3.666  15.365  0.00  0.00    +0.000 HD
ENDBRANCH   2  17
BRANCH   1  21
ATOM     20  N   UNL     1       6.597   7.889  17.322  0.00  0.00    +0.000 NA
ATOM     21  C   UNL     1       5.793   6.918  17.364  0.00  0.00    +0.000 C 
ENDBRANCH   1  21
BRANCH   6  22
ATOM     22  O   UNL     1       0.365   1.360  18.758  0.00  0.00    +0.000 OA
ATOM     23  H   UNL     1      -0.532   1.703  18.614  0.00  0.00    +0.000 HD
ENDBRANCH   6  22
TORSDOF 4
ENDMDL
