MODEL 1
REMARK VINA RESULT:      -7.8      0.000      0.000
REMARK  Name = 
REMARK  1 active torsions:
REMARK  status: ('A' for Active; 'I' for Inactive)
REMARK    1  A    between atoms: C_6  and  C_7
REMARK                            x       y       z     vdW  Elec       q    Type
REMARK                         _______ _______ _______ _____ _____    ______ ____
ROOT
ATOM      1  C   UNL     1      -3.910  12.446  19.681  0.00  0.00    +0.000 A 
ATOM      2  C   UNL     1      -5.250  12.859  19.254  0.00  0.00    +0.000 A 
ATOM      3  C   UNL     1      -6.112  13.802  19.892  0.00  0.00    +0.000 A 
ATOM      4  C   UNL     1      -7.423  14.065  19.477  0.00  0.00    +0.000 A 
ATOM      5  C   UNL     1      -7.916  13.451  18.344  0.00  0.00    +0.000 A 
ATOM      6  C   UNL     1      -7.087  12.595  17.636  0.00  0.00    +0.000 A 
ATOM      7  C   UNL     1      -5.779  12.295  18.075  0.00  0.00    +0.000 A 
ATOM      8  C   UNL     1      -4.996  11.445  17.310  0.00  0.00    +0.000 A 
ATOM      9  C   UNL     1      -3.696  11.082  17.665  0.00  0.00    +0.000 A 
ATOM     10  C   UNL     1      -3.019  10.294  16.732  0.00  0.00    +0.000 A 
ATOM     11  C   UNL     1      -1.701   9.922  16.922  0.00  0.00    +0.000 A 
ATOM     12  C   UNL     1      -1.041  10.259  18.094  0.00  0.00    +0.000 A 
ATOM     13  C   UNL     1       0.314   9.894  18.213  0.00  0.00    +0.000 A 
ATOM     14  C   UNL     1       1.031  10.167  19.369  0.00  0.00    +0.000 A 
ATOM     15  C   UNL     1       0.362  10.700  20.451  0.00  0.00    +0.000 A 
ATOM     16  C   UNL     1      -1.000  11.011  20.343  0.00  0.00    +0.000 A 
ATOM     17  C   UNL     1      -1.736  10.948  19.129  0.00  0.00    +0.000 A 
ATOM     18  C   UNL     1      -3.093  11.499  18.883  0.00  0.00    +0.000 A 
ENDROOT
BRANCH   1  24
ATOM     19  C   UNL     1      -2.667  14.902  25.267  0.00  0.00    +0.000 A 
ATOM     20  C   UNL     1      -1.584  15.540  24.676  0.00  0.00    +0.000 A 
ATOM     21  C   UNL     1      -1.311  15.360  23.319  0.00  0.00    +0.000 A 
ATOM     22  C   UNL     1      -2.155  14.519  22.575  0.00  0.00    +0.000 A 
ATOM     23  S   UNL     1      -2.286  14.404  20.870  0.00  0.00    +0.000 S 
ATOM     24  C   UNL     1      -3.352  13.050  20.936  0.00  0.00    +0.000 A 
ATOM     25  C   UNL     1      -3.596  12.723  22.260  0.00  0.00    +0.000 A 
ATOM     26  C   UNL     1      -3.106  13.708  23.188  0.00  0.00    +0.000 A 
ATOM     27  C   UNL     1      -3.406  13.956  24.548  0.00  0.00    +0.000 A 
ENDBRANCH   1  24
TORSDOF 1
ENDMDL
MODEL 2
REMARK VINA RESULT:      -7.4      0.721      1.225
REMARK  Name = 
REMARK  1 active torsions:
REMARK  status: ('A' for Active; 'I' for Inactive)
REMARK    1  A    between atoms: C_6  and  C_7
REMARK                            x       y       z     vdW  Elec       q    Type
REMARK                         _______ _______ _______ _____ _____    ______ ____
ROOT
ATOM      1  C   UNL     1      -3.918  12.640  19.698  0.00  0.00    +0.000 A 
ATOM      2  C   UNL     1      -5.258  12.979  19.207  0.00  0.00    +0.000 A 
ATOM      3  C   UNL     1      -6.153  13.958  19.736  0.00  0.00    +0.000 A 
ATOM      4  C   UNL     1      -7.460  14.149  19.273  0.00  0.00    +0.000 A 
ATOM      5  C   UNL     1      -7.917  13.419  18.195  0.00  0.00    +0.000 A 
ATOM      6  C   UNL     1      -7.054  12.519  17.588  0.00  0.00    +0.000 A 
ATOM      7  C   UNL     1      -5.749  12.293  18.078  0.00  0.00    +0.000 A 
ATOM      8  C   UNL     1      -4.932  11.393  17.413  0.00  0.00    +0.000 A 
ATOM      9  C   UNL     1      -3.632  11.097  17.825  0.00  0.00    +0.000 A 
ATOM     10  C   UNL     1      -2.919  10.239  16.985  0.00  0.00    +0.000 A 
ATOM     11  C   UNL     1      -1.597   9.918  17.235  0.00  0.00    +0.000 A 
ATOM     12  C   UNL     1      -0.970  10.381  18.381  0.00  0.00    +0.000 A 
ATOM     13  C   UNL     1       0.390  10.061  18.560  0.00  0.00    +0.000 A 
ATOM     14  C   UNL     1       1.077  10.460  19.698  0.00  0.00    +0.000 A 
ATOM     15  C   UNL     1       0.374  11.078  20.712  0.00  0.00    +0.000 A 
ATOM     16  C   UNL     1      -0.992  11.344  20.548  0.00  0.00    +0.000 A 
ATOM     17  C   UNL     1      -1.701  11.149  19.332  0.00  0.00    +0.000 A 
ATOM     18  C   UNL     1      -3.065  11.642  19.009  0.00  0.00    +0.000 A 
ENDROOT
BRANCH   1  24
ATOM     19  C   UNL     1      -0.761  15.639  24.149  0.00  0.00    +0.000 A 
ATOM     20  C   UNL     1      -1.721  15.189  25.046  0.00  0.00    +0.000 A 
ATOM     21  C   UNL     1      -2.787  14.402  24.607  0.00  0.00    +0.000 A 
ATOM     22  C   UNL     1      -2.862  14.084  23.240  0.00  0.00    +0.000 A 
ATOM     23  S   UNL     1      -3.815  12.871  22.494  0.00  0.00    +0.000 S 
ATOM     24  C   UNL     1      -3.400  13.375  20.898  0.00  0.00    +0.000 A 
ATOM     25  C   UNL     1      -2.531  14.453  20.969  0.00  0.00    +0.000 A 
ATOM     26  C   UNL     1      -2.040  14.699  22.300  0.00  0.00    +0.000 A 
ATOM     27  C   UNL     1      -0.932  15.438  22.775  0.00  0.00    +0.000 A 
ENDBRANCH   1  24
TORSDOF 1
ENDMDL
MODEL 3
REMARK VINA RESULT:      -7.2      0.793      4.895
REMARK  Name = 
REMARK  1 active torsions:
REMARK  status: ('A' for Active; 'I' for Inactive)
REMARK    1  A    between atoms: C_6  and  C_7
REMARK                            x       y       z     vdW  Elec       q    Type
REMARK                         _______ _______ _______ _____ _____    ______ ____
ROOT
ATOM      1  C   UNL     1      -2.565  12.118  20.011  0.00  0.00    +0.000 A 
ATOM      2  C   UNL     1      -1.452  11.311  19.502  0.00  0.00    +0.000 A 
ATOM      3  C   UNL     1      -0.169  11.125  20.101  0.00  0.00    +0.000 A 
ATOM      4  C   UNL     1       0.878  10.420  19.497  0.00  0.00    +0.000 A 
ATOM      5  C   UNL     1       0.670   9.792  18.286  0.00  0.00    +0.000 A 
ATOM      6  C   UNL     1      -0.587   9.866  17.706  0.00  0.00    +0.000 A 
ATOM      7  C   UNL     1      -1.634  10.611  18.291  0.00  0.00    +0.000 A 
ATOM      8  C   UNL     1      -2.871  10.629  17.668  0.00  0.00    +0.000 A 
ATOM      9  C   UNL     1      -3.964  11.342  18.164  0.00  0.00    +0.000 A 
ATOM     10  C   UNL     1      -5.158  11.172  17.461  0.00  0.00    +0.000 A 
ATOM     11  C   UNL     1      -6.335  11.763  17.884  0.00  0.00    +0.000 A 
ATOM     12  C   UNL     1      -6.337  12.611  18.981  0.00  0.00    +0.000 A 
ATOM     13  C   UNL     1      -7.572  13.147  19.394  0.00  0.00    +0.000 A 
ATOM     14  C   UNL     1      -7.649  14.029  20.461  0.00  0.00    +0.000 A 
ATOM     15  C   UNL     1      -6.478  14.468  21.043  0.00  0.00    +0.000 A 
ATOM     16  C   UNL     1      -5.248  13.971  20.590  0.00  0.00    +0.000 A 
ATOM     17  C   UNL     1      -5.115  12.916  19.646  0.00  0.00    +0.000 A 
ATOM     18  C   UNL     1      -3.873  12.171  19.315  0.00  0.00    +0.000 A 
ENDROOT
BRANCH   1  24
ATOM     19  C   UNL     1      -2.854  15.008  25.519  0.00  0.00    +0.000 A 
ATOM     20  C   UNL     1      -1.761  15.761  25.111  0.00  0.00    +0.000 A 
ATOM     21  C   UNL     1      -1.187  15.552  23.857  0.00  0.00    +0.000 A 
ATOM     22  C   UNL     1      -1.740  14.563  23.026  0.00  0.00    +0.000 A 
ATOM     23  S   UNL     1      -1.492  14.344  21.345  0.00  0.00    +0.000 S 
ATOM     24  C   UNL     1      -2.367  12.859  21.300  0.00  0.00    +0.000 A 
ATOM     25  C   UNL     1      -2.842  12.569  22.570  0.00  0.00    +0.000 A 
ATOM     26  C   UNL     1      -2.688  13.659  23.496  0.00  0.00    +0.000 A 
ATOM     27  C   UNL     1      -3.298  13.932  24.743  0.00  0.00    +0.000 A 
ENDBRANCH   1  24
TORSDOF 1
ENDMDL
MODEL 4
REMARK VINA RESULT:      -7.0      8.628     12.305
REMARK  Name = 
REMARK  1 active torsions:
REMARK  status: ('A' for Active; 'I' for Inactive)
REMARK    1  A    between atoms: C_6  and  C_7
REMARK                            x       y       z     vdW  Elec       q    Type
REMARK                         _______ _______ _______ _____ _____    ______ ____
ROOT
ATOM      1  C   UNL     1       8.536  13.466  20.736  0.00  0.00    +0.000 A 
ATOM      2  C   UNL     1       9.746  12.972  20.073  0.00  0.00    +0.000 A 
ATOM      3  C   UNL     1      10.775  12.158  20.638  0.00  0.00    +0.000 A 
ATOM      4  C   UNL     1      11.954  11.814  19.966  0.00  0.00    +0.000 A 
ATOM      5  C   UNL     1      12.130  12.204  18.654  0.00  0.00    +0.000 A 
ATOM      6  C   UNL     1      11.120  12.918  18.030  0.00  0.00    +0.000 A 
ATOM      7  C   UNL     1       9.948  13.304  18.717  0.00  0.00    +0.000 A 
ATOM      8  C   UNL     1       8.968  14.002  18.029  0.00  0.00    +0.000 A 
ATOM      9  C   UNL     1       7.781  14.432  18.622  0.00  0.00    +0.000 A 
ATOM     10  C   UNL     1       6.866  15.038  17.759  0.00  0.00    +0.000 A 
ATOM     11  C   UNL     1       5.620  15.448  18.199  0.00  0.00    +0.000 A 
ATOM     12  C   UNL     1       5.281  15.338  19.539  0.00  0.00    +0.000 A 
ATOM     13  C   UNL     1       3.983  15.728  19.921  0.00  0.00    +0.000 A 
ATOM     14  C   UNL     1       3.582  15.679  21.248  0.00  0.00    +0.000 A 
ATOM     15  C   UNL     1       4.515  15.353  22.210  0.00  0.00    +0.000 A 
ATOM     16  C   UNL     1       5.821  15.018  21.826  0.00  0.00    +0.000 A 
ATOM     17  C   UNL     1       6.235  14.850  20.477  0.00  0.00    +0.000 A 
ATOM     18  C   UNL     1       7.512  14.253  20.007  0.00  0.00    +0.000 A 
ENDROOT
BRANCH   1  24
ATOM     19  C   UNL     1       6.629  11.652  26.380  0.00  0.00    +0.000 A 
ATOM     20  C   UNL     1       7.537  12.561  26.910  0.00  0.00    +0.000 A 
ATOM     21  C   UNL     1       8.337  13.335  26.068  0.00  0.00    +0.000 A 
ATOM     22  C   UNL     1       8.201  13.167  24.679  0.00  0.00    +0.000 A 
ATOM     23  S   UNL     1       8.761  14.204  23.436  0.00  0.00    +0.000 S 
ATOM     24  C   UNL     1       8.326  13.109  22.178  0.00  0.00    +0.000 A 
ATOM     25  C   UNL     1       7.749  11.978  22.734  0.00  0.00    +0.000 A 
ATOM     26  C   UNL     1       7.462  12.119  24.137  0.00  0.00    +0.000 A 
ATOM     27  C   UNL     1       6.613  11.394  25.005  0.00  0.00    +0.000 A 
ENDBRANCH   1  24
TORSDOF 1
ENDMDL
MODEL 5
REMARK VINA RESULT:      -7.0      1.763      6.032
REMARK  Name = 
REMARK  1 active torsions:
REMARK  status: ('A' for Active; 'I' for Inactive)
REMARK    1  A    between atoms: C_6  and  C_7
REMARK                            x       y       z     vdW  Elec       q    Type
REMARK                         _______ _______ _______ _____ _____    ______ ____
ROOT
ATOM      1  C   UNL     1      -2.068  11.678  20.090  0.00  0.00    +0.000 A 
ATOM      2  C   UNL     1      -2.111  12.479  21.317  0.00  0.00    +0.000 A 
ATOM      3  C   UNL     1      -1.105  12.578  22.325  0.00  0.00    +0.000 A 
ATOM      4  C   UNL     1      -1.266  13.286  23.521  0.00  0.00    +0.000 A 
ATOM      5  C   UNL     1      -2.424  14.005  23.738  0.00  0.00    +0.000 A 
ATOM      6  C   UNL     1      -3.396  14.017  22.749  0.00  0.00    +0.000 A 
ATOM      7  C   UNL     1      -3.254  13.269  21.559  0.00  0.00    +0.000 A 
ATOM      8  C   UNL     1      -4.255  13.339  20.603  0.00  0.00    +0.000 A 
ATOM      9  C   UNL     1      -4.210  12.632  19.401  0.00  0.00    +0.000 A 
ATOM     10  C   UNL     1      -5.257  12.892  18.514  0.00  0.00    +0.000 A 
ATOM     11  C   UNL     1      -5.299  12.314  17.258  0.00  0.00    +0.000 A 
ATOM     12  C   UNL     1      -4.336  11.392  16.880  0.00  0.00    +0.000 A 
ATOM     13  C   UNL     1      -4.403  10.871  15.573  0.00  0.00    +0.000 A 
ATOM     14  C   UNL     1      -3.496   9.919  15.133  0.00  0.00    +0.000 A 
ATOM     15  C   UNL     1      -2.593   9.399  16.037  0.00  0.00    +0.000 A 
ATOM     16  C   UNL     1      -2.568   9.884  17.351  0.00  0.00    +0.000 A 
ATOM     17  C   UNL     1      -3.327  10.997  17.803  0.00  0.00    +0.000 A 
ATOM     18  C   UNL     1      -3.164  11.720  19.091  0.00  0.00    +0.000 A 
ENDROOT
BRANCH   1  24
ATOM     19  C   UNL     1       2.705   8.306  17.941  0.00  0.00    +0.000 A 
ATOM     20  C   UNL     1       2.722   7.660  19.170  0.00  0.00    +0.000 A 
ATOM     21  C   UNL     1       1.810   8.013  20.167  0.00  0.00    +0.000 A 
ATOM     22  C   UNL     1       0.885   9.035  19.893  0.00  0.00    +0.000 A 
ATOM     23  S   UNL     1      -0.546   9.415  20.756  0.00  0.00    +0.000 S 
ATOM     24  C   UNL     1      -0.850  10.841  19.837  0.00  0.00    +0.000 A 
ATOM     25  C   UNL     1       0.143  10.990  18.880  0.00  0.00    +0.000 A 
ATOM     26  C   UNL     1       0.992   9.834  18.759  0.00  0.00    +0.000 A 
ATOM     27  C   UNL     1       1.878   9.417  17.739  0.00  0.00    +0.000 A 
ENDBRANCH   1  24
TORSDOF 1
ENDMDL
MODEL 6
REMARK VINA RESULT:      -7.0      0.986      5.052
REMARK  Name = 
REMARK  1 active torsions:
REMARK  status: ('A' for Active; 'I' for Inactive)
REMARK    1  A    between atoms: C_6  and  C_7
REMARK                            x       y       z     vdW  Elec       q    Type
REMARK                         _______ _______ _______ _____ _____    ______ ____
ROOT
ATOM      1  C   UNL     1      -2.749  12.320  20.081  0.00  0.00    +0.000 A 
ATOM      2  C   UNL     1      -1.589  11.524  19.669  0.00  0.00    +0.000 A 
ATOM      3  C   UNL     1      -0.328  11.420  20.332  0.00  0.00    +0.000 A 
ATOM      4  C   UNL     1       0.768  10.718  19.817  0.00  0.00    +0.000 A 
ATOM      5  C   UNL     1       0.633  10.011  18.639  0.00  0.00    +0.000 A 
ATOM      6  C   UNL     1      -0.598  10.006  18.003  0.00  0.00    +0.000 A 
ATOM      7  C   UNL     1      -1.694  10.747  18.497  0.00  0.00    +0.000 A 
ATOM      8  C   UNL     1      -2.903  10.683  17.823  0.00  0.00    +0.000 A 
ATOM      9  C   UNL     1      -4.039  11.385  18.228  0.00  0.00    +0.000 A 
ATOM     10  C   UNL     1      -5.195  11.131  17.488  0.00  0.00    +0.000 A 
ATOM     11  C   UNL     1      -6.409  11.704  17.824  0.00  0.00    +0.000 A 
ATOM     12  C   UNL     1      -6.486  12.615  18.866  0.00  0.00    +0.000 A 
ATOM     13  C   UNL     1      -7.755  13.131  19.194  0.00  0.00    +0.000 A 
ATOM     14  C   UNL     1      -7.908  14.072  20.201  0.00  0.00    +0.000 A 
ATOM     15  C   UNL     1      -6.779  14.587  20.802  0.00  0.00    +0.000 A 
ATOM     16  C   UNL     1      -5.515  14.107  20.433  0.00  0.00    +0.000 A 
ATOM     17  C   UNL     1      -5.306  13.004  19.562  0.00  0.00    +0.000 A 
ATOM     18  C   UNL     1      -4.027  12.285  19.329  0.00  0.00    +0.000 A 
ENDROOT
BRANCH   1  24
ATOM     19  C   UNL     1      -1.164  15.831  24.974  0.00  0.00    +0.000 A 
ATOM     20  C   UNL     1      -2.231  15.256  25.653  0.00  0.00    +0.000 A 
ATOM     21  C   UNL     1      -3.043  14.311  25.024  0.00  0.00    +0.000 A 
ATOM     22  C   UNL     1      -2.755  13.964  23.693  0.00  0.00    +0.000 A 
ATOM     23  S   UNL     1      -3.327  12.609  22.814  0.00  0.00    +0.000 S 
ATOM     24  C   UNL     1      -2.632  13.144  21.330  0.00  0.00    +0.000 A 
ATOM     25  C   UNL     1      -1.965  14.340  21.541  0.00  0.00    +0.000 A 
ATOM     26  C   UNL     1      -1.835  14.679  22.933  0.00  0.00    +0.000 A 
ATOM     27  C   UNL     1      -0.982  15.584  23.609  0.00  0.00    +0.000 A 
ENDBRANCH   1  24
TORSDOF 1
ENDMDL
MODEL 7
REMARK VINA RESULT:      -6.7      2.373      7.145
REMARK  Name = 
REMARK  1 active torsions:
REMARK  status: ('A' for Active; 'I' for Inactive)
REMARK    1  A    between atoms: C_6  and  C_7
REMARK                            x       y       z     vdW  Elec       q    Type
REMARK                         _______ _______ _______ _____ _____    ______ ____
ROOT
ATOM      1  C   UNL     1      -3.390  14.559  23.462  0.00  0.00    +0.000 A 
ATOM      2  C   UNL     1      -2.628  15.486  24.304  0.00  0.00    +0.000 A 
ATOM      3  C   UNL     1      -1.249  15.397  24.665  0.00  0.00    +0.000 A 
ATOM      4  C   UNL     1      -0.620  16.270  25.560  0.00  0.00    +0.000 A 
ATOM      5  C   UNL     1      -1.324  17.335  26.084  0.00  0.00    +0.000 A 
ATOM      6  C   UNL     1      -2.642  17.519  25.694  0.00  0.00    +0.000 A 
ATOM      7  C   UNL     1      -3.292  16.616  24.824  0.00  0.00    +0.000 A 
ATOM      8  C   UNL     1      -4.605  16.868  24.459  0.00  0.00    +0.000 A 
ATOM      9  C   UNL     1      -5.334  16.032  23.613  0.00  0.00    +0.000 A 
ATOM     10  C   UNL     1      -6.611  16.487  23.276  0.00  0.00    +0.000 A 
ATOM     11  C   UNL     1      -7.414  15.793  22.390  0.00  0.00    +0.000 A 
ATOM     12  C   UNL     1      -6.997  14.576  21.873  0.00  0.00    +0.000 A 
ATOM     13  C   UNL     1      -7.835  13.937  20.939  0.00  0.00    +0.000 A 
ATOM     14  C   UNL     1      -7.502  12.701  20.405  0.00  0.00    +0.000 A 
ATOM     15  C   UNL     1      -6.388  12.049  20.891  0.00  0.00    +0.000 A 
ATOM     16  C   UNL     1      -5.588  12.669  21.860  0.00  0.00    +0.000 A 
ATOM     17  C   UNL     1      -5.759  14.011  22.294  0.00  0.00    +0.000 A 
ATOM     18  C   UNL     1      -4.810  14.809  23.113  0.00  0.00    +0.000 A 
ENDROOT
BRANCH   1  24
ATOM     19  C   UNL     1       0.010   9.493  22.216  0.00  0.00    +0.000 A 
ATOM     20  C   UNL     1       0.017   9.901  20.889  0.00  0.00    +0.000 A 
ATOM     21  C   UNL     1      -0.642  11.069  20.504  0.00  0.00    +0.000 A 
ATOM     22  C   UNL     1      -1.312  11.813  21.490  0.00  0.00    +0.000 A 
ATOM     23  S   UNL     1      -1.874  13.428  21.387  0.00  0.00    +0.000 S 
ATOM     24  C   UNL     1      -2.678  13.359  22.910  0.00  0.00    +0.000 A 
ATOM     25  C   UNL     1      -2.488  12.107  23.473  0.00  0.00    +0.000 A 
ATOM     26  C   UNL     1      -1.512  11.313  22.774  0.00  0.00    +0.000 A 
ATOM     27  C   UNL     1      -0.782  10.164  23.155  0.00  0.00    +0.000 A 
ENDBRANCH   1  24
TORSDOF 1
ENDMDL
MODEL 8
REMARK VINA RESULT:      -6.5      9.750     13.182
REMARK  Name = 
REMARK  1 active torsions:
REMARK  status: ('A' for Active; 'I' for Inactive)
REMARK    1  A    between atoms: C_6  and  C_7
REMARK                            x       y       z     vdW  Elec       q    Type
REMARK                         _______ _______ _______ _____ _____    ______ ____
ROOT
ATOM      1  C   UNL     1       9.119  14.382  20.183  0.00  0.00    +0.000 A 
ATOM      2  C   UNL     1      10.028  13.349  19.677  0.00  0.00    +0.000 A 
ATOM      3  C   UNL     1      11.196  12.832  20.316  0.00  0.00    +0.000 A 
ATOM      4  C   UNL     1      12.071  11.918  19.718  0.00  0.00    +0.000 A 
ATOM      5  C   UNL     1      11.778  11.408  18.470  0.00  0.00    +0.000 A 
ATOM      6  C   UNL     1      10.607  11.809  17.845  0.00  0.00    +0.000 A 
ATOM      7  C   UNL     1       9.743  12.763  18.426  0.00  0.00    +0.000 A 
ATOM      8  C   UNL     1       8.579  13.107  17.757  0.00  0.00    +0.000 A 
ATOM      9  C   UNL     1       7.668  14.044  18.246  0.00  0.00    +0.000 A 
ATOM     10  C   UNL     1       6.505  14.199  17.489  0.00  0.00    +0.000 A 
ATOM     11  C   UNL     1       5.486  15.042  17.895  0.00  0.00    +0.000 A 
ATOM     12  C   UNL     1       5.635  15.820  19.033  0.00  0.00    +0.000 A 
ATOM     13  C   UNL     1       4.547  16.624  19.425  0.00  0.00    +0.000 A 
ATOM     14  C   UNL     1       4.632  17.455  20.532  0.00  0.00    +0.000 A 
ATOM     15  C   UNL     1       5.844  17.572  21.179  0.00  0.00    +0.000 A 
ATOM     16  C   UNL     1       6.938  16.808  20.750  0.00  0.00    +0.000 A 
ATOM     17  C   UNL     1       6.859  15.792  19.760  0.00  0.00    +0.000 A 
ATOM     18  C   UNL     1       7.899  14.780  19.441  0.00  0.00    +0.000 A 
ENDROOT
BRANCH   1  24
ATOM     19  C   UNL     1      11.480  16.877  25.377  0.00  0.00    +0.000 A 
ATOM     20  C   UNL     1      10.345  16.422  26.037  0.00  0.00    +0.000 A 
ATOM     21  C   UNL     1       9.352  15.731  25.341  0.00  0.00    +0.000 A 
ATOM     22  C   UNL     1       9.530  15.514  23.964  0.00  0.00    +0.000 A 
ATOM     23  S   UNL     1       8.688  14.412  22.958  0.00  0.00    +0.000 S 
ATOM     24  C   UNL     1       9.426  15.000  21.515  0.00  0.00    +0.000 A 
ATOM     25  C   UNL     1      10.312  16.018  21.835  0.00  0.00    +0.000 A 
ATOM     26  C   UNL     1      10.545  16.142  23.250  0.00  0.00    +0.000 A 
ATOM     27  C   UNL     1      11.571  16.781  23.984  0.00  0.00    +0.000 A 
ENDBRANCH   1  24
TORSDOF 1
ENDMDL
MODEL 9
REMARK VINA RESULT:      -6.5      2.225      4.571
REMARK  Name = 
REMARK  1 active torsions:
REMARK  status: ('A' for Active; 'I' for Inactive)
REMARK    1  A    between atoms: C_6  and  C_7
REMARK                            x       y       z     vdW  Elec       q    Type
REMARK                         _______ _______ _______ _____ _____    ______ ____
ROOT
ATOM      1  C   UNL     1      -3.458  13.183  20.743  0.00  0.00    +0.000 A 
ATOM      2  C   UNL     1      -4.130  13.765  21.909  0.00  0.00    +0.000 A 
ATOM      3  C   UNL     1      -3.550  14.582  22.927  0.00  0.00    +0.000 A 
ATOM      4  C   UNL     1      -4.238  15.013  24.067  0.00  0.00    +0.000 A 
ATOM      5  C   UNL     1      -5.578  14.714  24.209  0.00  0.00    +0.000 A 
ATOM      6  C   UNL     1      -6.212  14.001  23.203  0.00  0.00    +0.000 A 
ATOM      7  C   UNL     1      -5.510  13.528  22.072  0.00  0.00    +0.000 A 
ATOM      8  C   UNL     1      -6.208  12.836  21.094  0.00  0.00    +0.000 A 
ATOM      9  C   UNL     1      -5.602  12.323  19.946  0.00  0.00    +0.000 A 
ATOM     10  C   UNL     1      -6.471  11.738  19.023  0.00  0.00    +0.000 A 
ATOM     11  C   UNL     1      -6.015  11.253  17.810  0.00  0.00    +0.000 A 
ATOM     12  C   UNL     1      -4.660  11.265  17.517  0.00  0.00    +0.000 A 
ATOM     13  C   UNL     1      -4.258  10.801  16.249  0.00  0.00    +0.000 A 
ATOM     14  C   UNL     1      -2.918  10.751  15.896  0.00  0.00    +0.000 A 
ATOM     15  C   UNL     1      -1.971  11.053  16.852  0.00  0.00    +0.000 A 
ATOM     16  C   UNL     1      -2.377  11.461  18.129  0.00  0.00    +0.000 A 
ATOM     17  C   UNL     1      -3.726  11.730  18.486  0.00  0.00    +0.000 A 
ATOM     18  C   UNL     1      -4.200  12.405  19.722  0.00  0.00    +0.000 A 
ENDROOT
BRANCH   1  24
ATOM     19  C   UNL     1       2.362  14.496  18.961  0.00  0.00    +0.000 A 
ATOM     20  C   UNL     1       2.797  13.656  19.978  0.00  0.00    +0.000 A 
ATOM     21  C   UNL     1       1.876  13.012  20.806  0.00  0.00    +0.000 A 
ATOM     22  C   UNL     1       0.507  13.239  20.584  0.00  0.00    +0.000 A 
ATOM     23  S   UNL     1      -0.819  12.330  21.178  0.00  0.00    +0.000 S 
ATOM     24  C   UNL     1      -1.990  13.441  20.574  0.00  0.00    +0.000 A 
ATOM     25  C   UNL     1      -1.344  14.478  19.918  0.00  0.00    +0.000 A 
ATOM     26  C   UNL     1       0.061  14.234  19.719  0.00  0.00    +0.000 A 
ATOM     27  C   UNL     1       1.007  14.824  18.848  0.00  0.00    +0.000 A 
ENDBRANCH   1  24
TORSDOF 1
ENDMDL
