MODEL 1
REMARK VINA RESULT:      -7.9      0.000      0.000
REMARK  Name = 
REMARK  6 active torsions:
REMARK  status: ('A' for Active; 'I' for Inactive)
REMARK    1  A    between atoms: C_1  and  N_2
REMARK    2  A    between atoms: C_4  and  N_5
REMARK    3  A    between atoms: C_6  and  C_8
REMARK    4  A    between atoms: N_15  and  C_16
REMARK    5  A    between atoms: C_21  and  O_22
REMARK    6  A    between atoms: C_25  and  C_26
REMARK                            x       y       z     vdW  Elec       q    Type
REMARK                         _______ _______ _______ _____ _____    ______ ____
ROOT
ATOM      1  C   UNL     1       2.745   6.657  19.101  0.00  0.00    +0.000 A 
ATOM      2  C   UNL     1       2.543   5.511  19.907  0.00  0.00    +0.000 A 
ATOM      3  N   UNL     1       1.712   5.723  20.920  0.00  0.00    +0.000 NA
ATOM      4  N   UNL     1       1.344   7.014  20.780  0.00  0.00    +0.000 N 
ATOM      5  C   UNL     1       0.458   7.701  21.585  0.00  0.00    +0.000 A 
ATOM      6  C   UNL     1       0.164   8.976  21.325  0.00  0.00    +0.000 A 
ATOM      7  C   UNL     1       0.847   9.619  20.144  0.00  0.00    +0.000 A 
ATOM      8  N   UNL     1       0.597  10.949  19.846  0.00  0.00    +0.000 N 
ATOM      9  N   UNL     1       1.715   8.970  19.388  0.00  0.00    +0.000 NA
ATOM     10  C   UNL     1       1.959   7.642  19.686  0.00  0.00    +0.000 A 
ATOM     11  H   UNL     1       1.149  11.283  19.061  0.00  0.00    +0.000 HD
ENDROOT
BRANCH   8  12
ATOM     12  C   UNL     1      -0.707  11.625  20.025  0.00  0.00    +0.000 C 
ATOM     13  C   UNL     1      -1.274  12.143  18.700  0.00  0.00    +0.000 C 
ATOM     14  C   UNL     1      -0.528  13.348  18.127  0.00  0.00    +0.000 C 
ATOM     15  C   UNL     1      -0.274  14.462  19.141  0.00  0.00    +0.000 C 
ATOM     16  C   UNL     1       0.216  13.966  20.498  0.00  0.00    +0.000 C 
ATOM     17  C   UNL     1      -0.604  12.792  21.030  0.00  0.00    +0.000 C 
BRANCH  17  18
ATOM     18  O   UNL     1      -0.047  12.337  22.263  0.00  0.00    +0.000 OA
ATOM     19  H   UNL     1       0.289  11.438  22.087  0.00  0.00    +0.000 HD
ENDBRANCH  17  18
ENDBRANCH   8  12
BRANCH   1  21
ATOM     20  N   UNL     1       4.543   5.637  17.884  0.00  0.00    +0.000 N 
ATOM     21  C   UNL     1       3.612   6.660  17.943  0.00  0.00    +0.000 C 
ATOM     22  O   UNL     1       3.470   7.541  17.099  0.00  0.00    +0.000 OA
ATOM     23  H   UNL     1       4.561   4.977  18.659  0.00  0.00    +0.000 HD
BRANCH  20  27
ATOM     24  C   UNL     1       6.585   3.984  13.742  0.00  0.00    +0.000 C 
ATOM     25  N   UNL     1       6.331   4.725  14.956  0.00  0.00    +0.000 N 
ATOM     26  C   UNL     1       5.231   4.614  15.743  0.00  0.00    +0.000 A 
ATOM     27  C   UNL     1       5.414   5.456  16.814  0.00  0.00    +0.000 A 
ATOM     28  C   UNL     1       6.681   6.067  16.571  0.00  0.00    +0.000 A 
ATOM     29  N   UNL     1       7.231   5.606  15.421  0.00  0.00    +0.000 NA
BRANCH  28  30
ATOM     30  C   UNL     1       7.378   7.084  17.425  0.00  0.00    +0.000 C 
ATOM     31  F   UNL     1       6.532   8.074  17.836  0.00  0.00    +0.000 F 
ATOM     32  F   UNL     1       7.906   6.548  18.558  0.00  0.00    +0.000 F 
ATOM     33  F   UNL     1       8.395   7.709  16.772  0.00  0.00    +0.000 F 
ENDBRANCH  28  30
ENDBRANCH  20  27
ENDBRANCH   1  21
TORSDOF 5
ENDMDL
MODEL 2
REMARK VINA RESULT:      -7.6      4.334      9.165
REMARK  Name = 
REMARK  6 active torsions:
REMARK  status: ('A' for Active; 'I' for Inactive)
REMARK    1  A    between atoms: C_1  and  N_2
REMARK    2  A    between atoms: C_4  and  N_5
REMARK    3  A    between atoms: C_6  and  C_8
REMARK    4  A    between atoms: N_15  and  C_16
REMARK    5  A    between atoms: C_21  and  O_22
REMARK    6  A    between atoms: C_25  and  C_26
REMARK                            x       y       z     vdW  Elec       q    Type
REMARK                         _______ _______ _______ _____ _____    ______ ____
ROOT
ATOM      1  C   UNL     1       1.028   9.540  18.987  0.00  0.00    +0.000 A 
ATOM      2  C   UNL     1       1.519  10.262  17.874  0.00  0.00    +0.000 A 
ATOM      3  N   UNL     1       2.541   9.666  17.271  0.00  0.00    +0.000 NA
ATOM      4  N   UNL     1       2.722   8.530  17.978  0.00  0.00    +0.000 N 
ATOM      5  C   UNL     1       3.660   7.551  17.720  0.00  0.00    +0.000 A 
ATOM      6  C   UNL     1       3.722   6.461  18.489  0.00  0.00    +0.000 A 
ATOM      7  C   UNL     1       2.750   6.366  19.637  0.00  0.00    +0.000 A 
ATOM      8  N   UNL     1       2.790   5.268  20.481  0.00  0.00    +0.000 N 
ATOM      9  N   UNL     1       1.868   7.315  19.900  0.00  0.00    +0.000 NA
ATOM     10  C   UNL     1       1.829   8.407  19.054  0.00  0.00    +0.000 A 
ATOM     11  H   UNL     1       2.121   5.337  21.244  0.00  0.00    +0.000 HD
ENDROOT
BRANCH   8  12
ATOM     12  C   UNL     1       3.113   3.887  20.059  0.00  0.00    +0.000 C 
ATOM     13  C   UNL     1       2.865   3.669  18.564  0.00  0.00    +0.000 C 
ATOM     14  C   UNL     1       1.388   3.631  18.172  0.00  0.00    +0.000 C 
ATOM     15  C   UNL     1       0.532   2.724  19.055  0.00  0.00    +0.000 C 
ATOM     16  C   UNL     1       0.816   2.865  20.547  0.00  0.00    +0.000 C 
ATOM     17  C   UNL     1       2.309   2.847  20.869  0.00  0.00    +0.000 C 
BRANCH  17  18
ATOM     18  O   UNL     1       2.501   3.053  22.268  0.00  0.00    +0.000 OA
ATOM     19  H   UNL     1       1.706   2.689  22.701  0.00  0.00    +0.000 HD
ENDBRANCH  17  18
ENDBRANCH   8  12
BRANCH   1  21
ATOM     20  N   UNL     1      -0.600  11.238  19.457  0.00  0.00    +0.000 N 
ATOM     21  C   UNL     1      -0.080  10.000  19.796  0.00  0.00    +0.000 C 
ATOM     22  O   UNL     1      -0.489   9.283  20.705  0.00  0.00    +0.000 OA
ATOM     23  H   UNL     1      -0.158  11.735  18.686  0.00  0.00    +0.000 HD
BRANCH  20  27
ATOM     24  C   UNL     1      -5.083  13.019  20.344  0.00  0.00    +0.000 C 
ATOM     25  N   UNL     1      -3.710  12.598  20.498  0.00  0.00    +0.000 N 
ATOM     26  C   UNL     1      -2.953  11.986  19.552  0.00  0.00    +0.000 A 
ATOM     27  C   UNL     1      -1.701  11.805  20.091  0.00  0.00    +0.000 A 
ATOM     28  C   UNL     1      -1.805  12.336  21.412  0.00  0.00    +0.000 A 
ATOM     29  N   UNL     1      -3.050  12.819  21.646  0.00  0.00    +0.000 NA
BRANCH  28  30
ATOM     30  C   UNL     1      -0.731  12.392  22.456  0.00  0.00    +0.000 C 
ATOM     31  F   UNL     1      -1.068  13.211  23.496  0.00  0.00    +0.000 F 
ATOM     32  F   UNL     1      -0.468  11.176  23.007  0.00  0.00    +0.000 F 
ATOM     33  F   UNL     1       0.448  12.870  21.971  0.00  0.00    +0.000 F 
ENDBRANCH  28  30
ENDBRANCH  20  27
ENDBRANCH   1  21
TORSDOF 5
ENDMDL
MODEL 3
REMARK VINA RESULT:      -7.5      4.485      9.317
REMARK  Name = 
REMARK  6 active torsions:
REMARK  status: ('A' for Active; 'I' for Inactive)
REMARK    1  A    between atoms: C_1  and  N_2
REMARK    2  A    between atoms: C_4  and  N_5
REMARK    3  A    between atoms: C_6  and  C_8
REMARK    4  A    between atoms: N_15  and  C_16
REMARK    5  A    between atoms: C_21  and  O_22
REMARK    6  A    between atoms: C_25  and  C_26
REMARK                            x       y       z     vdW  Elec       q    Type
REMARK                         _______ _______ _______ _____ _____    ______ ____
ROOT
ATOM      1  C   UNL     1       1.376   9.297  18.995  0.00  0.00    +0.000 A 
ATOM      2  C   UNL     1       1.841   9.997  17.857  0.00  0.00    +0.000 A 
ATOM      3  N   UNL     1       2.807   9.359  17.206  0.00  0.00    +0.000 NA
ATOM      4  N   UNL     1       2.975   8.217  17.905  0.00  0.00    +0.000 N 
ATOM      5  C   UNL     1       3.857   7.199  17.604  0.00  0.00    +0.000 A 
ATOM      6  C   UNL     1       3.912   6.108  18.370  0.00  0.00    +0.000 A 
ATOM      7  C   UNL     1       2.994   6.053  19.565  0.00  0.00    +0.000 A 
ATOM      8  N   UNL     1       3.030   4.955  20.409  0.00  0.00    +0.000 N 
ATOM      9  N   UNL     1       2.167   7.038  19.870  0.00  0.00    +0.000 NA
ATOM     10  C   UNL     1       2.131   8.131  19.024  0.00  0.00    +0.000 A 
ATOM     11  H   UNL     1       2.403   5.051  21.203  0.00  0.00    +0.000 HD
ENDROOT
BRANCH   8  12
ATOM     12  C   UNL     1       3.274   3.562  19.974  0.00  0.00    +0.000 C 
ATOM     13  C   UNL     1       3.036   3.376  18.472  0.00  0.00    +0.000 C 
ATOM     14  C   UNL     1       1.565   3.434  18.059  0.00  0.00    +0.000 C 
ATOM     15  C   UNL     1       0.643   2.572  18.918  0.00  0.00    +0.000 C 
ATOM     16  C   UNL     1       0.912   2.677  20.416  0.00  0.00    +0.000 C 
ATOM     17  C   UNL     1       2.396   2.564  20.759  0.00  0.00    +0.000 C 
BRANCH  17  18
ATOM     18  O   UNL     1       2.579   2.741  22.164  0.00  0.00    +0.000 OA
ATOM     19  H   UNL     1       2.604   1.842  22.543  0.00  0.00    +0.000 HD
ENDBRANCH  17  18
ENDBRANCH   8  12
BRANCH   1  21
ATOM     20  N   UNL     1      -0.135  11.072  19.558  0.00  0.00    +0.000 N 
ATOM     21  C   UNL     1       0.330   9.803  19.856  0.00  0.00    +0.000 C 
ATOM     22  O   UNL     1      -0.080   9.094  20.771  0.00  0.00    +0.000 OA
ATOM     23  H   UNL     1       0.301  11.557  18.776  0.00  0.00    +0.000 HD
BRANCH  20  27
ATOM     24  C   UNL     1      -2.783  13.251  23.065  0.00  0.00    +0.000 C 
ATOM     25  N   UNL     1      -2.367  12.670  21.809  0.00  0.00    +0.000 N 
ATOM     26  C   UNL     1      -1.130  12.191  21.524  0.00  0.00    +0.000 A 
ATOM     27  C   UNL     1      -1.177  11.687  20.245  0.00  0.00    +0.000 A 
ATOM     28  C   UNL     1      -2.517  11.932  19.818  0.00  0.00    +0.000 A 
ATOM     29  N   UNL     1      -3.235  12.540  20.794  0.00  0.00    +0.000 NA
BRANCH  28  30
ATOM     30  C   UNL     1      -3.124  11.591  18.490  0.00  0.00    +0.000 C 
ATOM     31  F   UNL     1      -2.395  12.092  17.450  0.00  0.00    +0.000 F 
ATOM     32  F   UNL     1      -3.207  10.250  18.278  0.00  0.00    +0.000 F 
ATOM     33  F   UNL     1      -4.380  12.094  18.343  0.00  0.00    +0.000 F 
ENDBRANCH  28  30
ENDBRANCH  20  27
ENDBRANCH   1  21
TORSDOF 5
ENDMDL
MODEL 4
REMARK VINA RESULT:      -7.4      3.103      8.072
REMARK  Name = 
REMARK  6 active torsions:
REMARK  status: ('A' for Active; 'I' for Inactive)
REMARK    1  A    between atoms: C_1  and  N_2
REMARK    2  A    between atoms: C_4  and  N_5
REMARK    3  A    between atoms: C_6  and  C_8
REMARK    4  A    between atoms: N_15  and  C_16
REMARK    5  A    between atoms: C_21  and  O_22
REMARK    6  A    between atoms: C_25  and  C_26
REMARK                            x       y       z     vdW  Elec       q    Type
REMARK                         _______ _______ _______ _____ _____    ______ ____
ROOT
ATOM      1  C   UNL     1       1.838   4.741  20.726  0.00  0.00    +0.000 A 
ATOM      2  C   UNL     1       1.599   3.642  21.584  0.00  0.00    +0.000 A 
ATOM      3  N   UNL     1       2.405   2.612  21.354  0.00  0.00    +0.000 NA
ATOM      4  N   UNL     1       3.199   3.034  20.346  0.00  0.00    +0.000 N 
ATOM      5  C   UNL     1       4.228   2.321  19.766  0.00  0.00    +0.000 A 
ATOM      6  C   UNL     1       4.952   2.864  18.785  0.00  0.00    +0.000 A 
ATOM      7  C   UNL     1       4.584   4.257  18.341  0.00  0.00    +0.000 A 
ATOM      8  N   UNL     1       5.286   4.856  17.308  0.00  0.00    +0.000 N 
ATOM      9  N   UNL     1       3.582   4.931  18.878  0.00  0.00    +0.000 NA
ATOM     10  C   UNL     1       2.885   4.331  19.910  0.00  0.00    +0.000 A 
ATOM     11  H   UNL     1       4.919   5.773  17.065  0.00  0.00    +0.000 HD
ENDROOT
BRANCH   8  12
ATOM     12  C   UNL     1       6.733   4.679  17.054  0.00  0.00    +0.000 C 
ATOM     13  C   UNL     1       7.544   4.627  18.351  0.00  0.00    +0.000 C 
ATOM     14  C   UNL     1       7.657   5.969  19.074  0.00  0.00    +0.000 C 
ATOM     15  C   UNL     1       8.058   7.132  18.169  0.00  0.00    +0.000 C 
ATOM     16  C   UNL     1       7.320   7.162  16.834  0.00  0.00    +0.000 C 
ATOM     17  C   UNL     1       7.288   5.797  16.147  0.00  0.00    +0.000 C 
BRANCH  17  18
ATOM     18  O   UNL     1       6.525   5.884  14.943  0.00  0.00    +0.000 OA
ATOM     19  H   UNL     1       6.488   4.977  14.586  0.00  0.00    +0.000 HD
ENDBRANCH  17  18
ENDBRANCH   8  12
BRANCH   1  21
ATOM     20  N   UNL     1       1.822   7.137  20.848  0.00  0.00    +0.000 N 
ATOM     21  C   UNL     1       1.078   5.970  20.794  0.00  0.00    +0.000 C 
ATOM     22  O   UNL     1      -0.148   5.910  20.793  0.00  0.00    +0.000 OA
ATOM     23  H   UNL     1       2.836   7.043  20.853  0.00  0.00    +0.000 HD
BRANCH  20  27
ATOM     24  C   UNL     1      -0.471  11.224  22.293  0.00  0.00    +0.000 C 
ATOM     25  N   UNL     1       0.235  10.244  21.500  0.00  0.00    +0.000 N 
ATOM     26  C   UNL     1       0.690   9.043  21.938  0.00  0.00    +0.000 A 
ATOM     27  C   UNL     1       1.255   8.407  20.858  0.00  0.00    +0.000 A 
ATOM     28  C   UNL     1       1.108   9.336  19.784  0.00  0.00    +0.000 A 
ATOM     29  N   UNL     1       0.479  10.463  20.199  0.00  0.00    +0.000 NA
BRANCH  28  30
ATOM     30  C   UNL     1       1.558   9.163  18.364  0.00  0.00    +0.000 C 
ATOM     31  F   UNL     1       2.264   8.007  18.188  0.00  0.00    +0.000 F 
ATOM     32  F   UNL     1       0.520   9.104  17.487  0.00  0.00    +0.000 F 
ATOM     33  F   UNL     1       2.374  10.168  17.946  0.00  0.00    +0.000 F 
ENDBRANCH  28  30
ENDBRANCH  20  27
ENDBRANCH   1  21
TORSDOF 5
ENDMDL
MODEL 5
REMARK VINA RESULT:      -7.3      6.719      8.807
REMARK  Name = 
REMARK  6 active torsions:
REMARK  status: ('A' for Active; 'I' for Inactive)
REMARK    1  A    between atoms: C_1  and  N_2
REMARK    2  A    between atoms: C_4  and  N_5
REMARK    3  A    between atoms: C_6  and  C_8
REMARK    4  A    between atoms: N_15  and  C_16
REMARK    5  A    between atoms: C_21  and  O_22
REMARK    6  A    between atoms: C_25  and  C_26
REMARK                            x       y       z     vdW  Elec       q    Type
REMARK                         _______ _______ _______ _____ _____    ______ ____
ROOT
ATOM      1  C   UNL     1      -3.222  11.442  17.870  0.00  0.00    +0.000 A 
ATOM      2  C   UNL     1      -3.557  11.302  16.502  0.00  0.00    +0.000 A 
ATOM      3  N   UNL     1      -4.866  11.295  16.280  0.00  0.00    +0.000 NA
ATOM      4  N   UNL     1      -5.408  11.448  17.507  0.00  0.00    +0.000 N 
ATOM      5  C   UNL     1      -6.754  11.529  17.799  0.00  0.00    +0.000 A 
ATOM      6  C   UNL     1      -7.160  11.699  19.059  0.00  0.00    +0.000 A 
ATOM      7  C   UNL     1      -6.096  11.779  20.125  0.00  0.00    +0.000 A 
ATOM      8  N   UNL     1      -6.465  11.929  21.452  0.00  0.00    +0.000 N 
ATOM      9  N   UNL     1      -4.808  11.675  19.850  0.00  0.00    +0.000 NA
ATOM     10  C   UNL     1      -4.444  11.529  18.525  0.00  0.00    +0.000 A 
ATOM     11  H   UNL     1      -5.667  11.922  22.082  0.00  0.00    +0.000 HD
ENDROOT
BRANCH   8  12
ATOM     12  C   UNL     1      -7.624  12.717  21.925  0.00  0.00    +0.000 C 
ATOM     13  C   UNL     1      -7.494  14.201  21.572  0.00  0.00    +0.000 C 
ATOM     14  C   UNL     1      -6.434  14.948  22.381  0.00  0.00    +0.000 C 
ATOM     15  C   UNL     1      -6.510  14.699  23.886  0.00  0.00    +0.000 C 
ATOM     16  C   UNL     1      -6.719  13.236  24.263  0.00  0.00    +0.000 C 
ATOM     17  C   UNL     1      -7.825  12.568  23.448  0.00  0.00    +0.000 C 
BRANCH  17  18
ATOM     18  O   UNL     1      -7.917  11.188  23.804  0.00  0.00    +0.000 OA
ATOM     19  H   UNL     1      -7.892  10.695  22.962  0.00  0.00    +0.000 HD
ENDBRANCH  17  18
ENDBRANCH   8  12
BRANCH   1  21
ATOM     20  N   UNL     1      -1.570  12.439  19.295  0.00  0.00    +0.000 N 
ATOM     21  C   UNL     1      -1.856  11.473  18.345  0.00  0.00    +0.000 C 
ATOM     22  O   UNL     1      -1.053  10.659  17.896  0.00  0.00    +0.000 OA
ATOM     23  H   UNL     1      -2.328  13.060  19.571  0.00  0.00    +0.000 HD
BRANCH  20  27
ATOM     24  C   UNL     1       2.969  13.950  20.377  0.00  0.00    +0.000 C 
ATOM     25  N   UNL     1       1.706  13.248  20.396  0.00  0.00    +0.000 N 
ATOM     26  C   UNL     1       0.647  13.491  19.583  0.00  0.00    +0.000 A 
ATOM     27  C   UNL     1      -0.325  12.572  19.901  0.00  0.00    +0.000 A 
ATOM     28  C   UNL     1       0.247  11.805  20.961  0.00  0.00    +0.000 A 
ATOM     29  N   UNL     1       1.498  12.237  21.254  0.00  0.00    +0.000 NA
BRANCH  28  30
ATOM     30  C   UNL     1      -0.384  10.662  21.698  0.00  0.00    +0.000 C 
ATOM     31  F   UNL     1       0.424  10.183  22.690  0.00  0.00    +0.000 F 
ATOM     32  F   UNL     1      -1.553  11.006  22.301  0.00  0.00    +0.000 F 
ATOM     33  F   UNL     1      -0.653   9.601  20.890  0.00  0.00    +0.000 F 
ENDBRANCH  28  30
ENDBRANCH  20  27
ENDBRANCH   1  21
TORSDOF 5
ENDMDL
MODEL 6
REMARK VINA RESULT:      -7.2      1.837      2.296
REMARK  Name = 
REMARK  6 active torsions:
REMARK  status: ('A' for Active; 'I' for Inactive)
REMARK    1  A    between atoms: C_1  and  N_2
REMARK    2  A    between atoms: C_4  and  N_5
REMARK    3  A    between atoms: C_6  and  C_8
REMARK    4  A    between atoms: N_15  and  C_16
REMARK    5  A    between atoms: C_21  and  O_22
REMARK    6  A    between atoms: C_25  and  C_26
REMARK                            x       y       z     vdW  Elec       q    Type
REMARK                         _______ _______ _______ _____ _____    ______ ____
ROOT
ATOM      1  C   UNL     1       3.832   4.222  19.174  0.00  0.00    +0.000 A 
ATOM      2  C   UNL     1       3.358   3.042  19.794  0.00  0.00    +0.000 A 
ATOM      3  N   UNL     1       2.331   3.254  20.609  0.00  0.00    +0.000 NA
ATOM      4  N   UNL     1       2.109   4.582  20.518  0.00  0.00    +0.000 N 
ATOM      5  C   UNL     1       1.115   5.288  21.166  0.00  0.00    +0.000 A 
ATOM      6  C   UNL     1       0.992   6.604  20.975  0.00  0.00    +0.000 A 
ATOM      7  C   UNL     1       1.981   7.266  20.050  0.00  0.00    +0.000 A 
ATOM      8  N   UNL     1       1.913   8.634  19.839  0.00  0.00    +0.000 N 
ATOM      9  N   UNL     1       2.949   6.596  19.450  0.00  0.00    +0.000 NA
ATOM     10  C   UNL     1       3.011   5.231  19.661  0.00  0.00    +0.000 A 
ATOM     11  H   UNL     1       2.658   8.973  19.236  0.00  0.00    +0.000 HD
ENDROOT
BRANCH   8  12
ATOM     12  C   UNL     1       0.661   9.420  19.784  0.00  0.00    +0.000 C 
ATOM     13  C   UNL     1       0.435  10.049  18.406  0.00  0.00    +0.000 C 
ATOM     14  C   UNL     1       1.382  11.204  18.081  0.00  0.00    +0.000 C 
ATOM     15  C   UNL     1       1.503  12.242  19.195  0.00  0.00    +0.000 C 
ATOM     16  C   UNL     1       1.650  11.641  20.589  0.00  0.00    +0.000 C 
ATOM     17  C   UNL     1       0.642  10.526  20.861  0.00  0.00    +0.000 C 
BRANCH  17  18
ATOM     18  O   UNL     1       0.883   9.965  22.152  0.00  0.00    +0.000 OA
ATOM     19  H   UNL     1       0.602   9.032  22.092  0.00  0.00    +0.000 HD
ENDBRANCH  17  18
ENDBRANCH   8  12
BRANCH   1  21
ATOM     20  N   UNL     1       4.695   4.800  17.011  0.00  0.00    +0.000 N 
ATOM     21  C   UNL     1       4.944   4.231  18.248  0.00  0.00    +0.000 C 
ATOM     22  O   UNL     1       6.017   3.753  18.606  0.00  0.00    +0.000 OA
ATOM     23  H   UNL     1       3.754   5.150  16.840  0.00  0.00    +0.000 HD
BRANCH  20  27
ATOM     24  C   UNL     1       7.272   4.272  12.872  0.00  0.00    +0.000 C 
ATOM     25  N   UNL     1       6.821   4.718  14.170  0.00  0.00    +0.000 N 
ATOM     26  C   UNL     1       5.688   4.319  14.800  0.00  0.00    +0.000 A 
ATOM     27  C   UNL     1       5.666   4.944  16.025  0.00  0.00    +0.000 A 
ATOM     28  C   UNL     1       6.852   5.739  16.038  0.00  0.00    +0.000 A 
ATOM     29  N   UNL     1       7.550   5.588  14.886  0.00  0.00    +0.000 NA
BRANCH  28  30
ATOM     30  C   UNL     1       7.330   6.639  17.137  0.00  0.00    +0.000 C 
ATOM     31  F   UNL     1       6.297   7.282  17.759  0.00  0.00    +0.000 F 
ATOM     32  F   UNL     1       7.996   5.968  18.114  0.00  0.00    +0.000 F 
ATOM     33  F   UNL     1       8.163   7.617  16.689  0.00  0.00    +0.000 F 
ENDBRANCH  28  30
ENDBRANCH  20  27
ENDBRANCH   1  21
TORSDOF 5
ENDMDL
MODEL 7
REMARK VINA RESULT:      -7.2      3.070      4.120
REMARK  Name = 
REMARK  6 active torsions:
REMARK  status: ('A' for Active; 'I' for Inactive)
REMARK    1  A    between atoms: C_1  and  N_2
REMARK    2  A    between atoms: C_4  and  N_5
REMARK    3  A    between atoms: C_6  and  C_8
REMARK    4  A    between atoms: N_15  and  C_16
REMARK    5  A    between atoms: C_21  and  O_22
REMARK    6  A    between atoms: C_25  and  C_26
REMARK                            x       y       z     vdW  Elec       q    Type
REMARK                         _______ _______ _______ _____ _____    ______ ____
ROOT
ATOM      1  C   UNL     1       1.033   8.379  20.674  0.00  0.00    +0.000 A 
ATOM      2  C   UNL     1       0.111   7.668  21.477  0.00  0.00    +0.000 A 
ATOM      3  N   UNL     1      -0.653   8.457  22.224  0.00  0.00    +0.000 NA
ATOM      4  N   UNL     1      -0.248   9.704  21.904  0.00  0.00    +0.000 N 
ATOM      5  C   UNL     1      -0.766  10.882  22.402  0.00  0.00    +0.000 A 
ATOM      6  C   UNL     1      -0.287  12.057  21.987  0.00  0.00    +0.000 A 
ATOM      7  C   UNL     1       0.837  12.030  20.982  0.00  0.00    +0.000 A 
ATOM      8  N   UNL     1       1.389  13.221  20.538  0.00  0.00    +0.000 N 
ATOM      9  N   UNL     1       1.351  10.903  20.523  0.00  0.00    +0.000 NA
ATOM     10  C   UNL     1       0.796   9.717  20.965  0.00  0.00    +0.000 A 
ATOM     11  H   UNL     1       2.167  13.077  19.900  0.00  0.00    +0.000 HD
ENDROOT
BRANCH   8  12
ATOM     12  C   UNL     1       0.634  14.476  20.325  0.00  0.00    +0.000 C 
ATOM     13  C   UNL     1       0.713  14.957  18.874  0.00  0.00    +0.000 C 
ATOM     14  C   UNL     1       2.081  15.505  18.468  0.00  0.00    +0.000 C 
ATOM     15  C   UNL     1       2.669  16.507  19.460  0.00  0.00    +0.000 C 
ATOM     16  C   UNL     1       2.533  16.088  20.920  0.00  0.00    +0.000 C 
ATOM     17  C   UNL     1       1.128  15.597  21.265  0.00  0.00    +0.000 C 
BRANCH  17  18
ATOM     18  O   UNL     1       1.093  15.158  22.623  0.00  0.00    +0.000 OA
ATOM     19  H   UNL     1       0.163  14.920  22.801  0.00  0.00    +0.000 HD
ENDBRANCH  17  18
ENDBRANCH   8  12
BRANCH   1  21
ATOM     20  N   UNL     1       2.433   6.491  20.198  0.00  0.00    +0.000 N 
ATOM     21  C   UNL     1       1.966   7.726  19.782  0.00  0.00    +0.000 C 
ATOM     22  O   UNL     1       2.274   8.285  18.734  0.00  0.00    +0.000 OA
ATOM     23  H   UNL     1       2.104   6.146  21.098  0.00  0.00    +0.000 HD
BRANCH  20  27
ATOM     24  C   UNL     1       6.450   4.669  18.053  0.00  0.00    +0.000 C 
ATOM     25  N   UNL     1       5.085   4.874  18.479  0.00  0.00    +0.000 N 
ATOM     26  C   UNL     1       4.655   5.822  19.350  0.00  0.00    +0.000 A 
ATOM     27  C   UNL     1       3.289   5.700  19.437  0.00  0.00    +0.000 A 
ATOM     28  C   UNL     1       2.975   4.607  18.574  0.00  0.00    +0.000 A 
ATOM     29  N   UNL     1       4.094   4.110  17.993  0.00  0.00    +0.000 NA
BRANCH  28  30
ATOM     30  C   UNL     1       1.619   4.032  18.292  0.00  0.00    +0.000 C 
ATOM     31  F   UNL     1       1.689   2.727  17.895  0.00  0.00    +0.000 F 
ATOM     32  F   UNL     1       0.804   4.048  19.381  0.00  0.00    +0.000 F 
ATOM     33  F   UNL     1       0.965   4.692  17.298  0.00  0.00    +0.000 F 
ENDBRANCH  28  30
ENDBRANCH  20  27
ENDBRANCH   1  21
TORSDOF 5
ENDMDL
MODEL 8
REMARK VINA RESULT:      -7.1      4.208      9.103
REMARK  Name = 
REMARK  6 active torsions:
REMARK  status: ('A' for Active; 'I' for Inactive)
REMARK    1  A    between atoms: C_1  and  N_2
REMARK    2  A    between atoms: C_4  and  N_5
REMARK    3  A    between atoms: C_6  and  C_8
REMARK    4  A    between atoms: N_15  and  C_16
REMARK    5  A    between atoms: C_21  and  O_22
REMARK    6  A    between atoms: C_25  and  C_26
REMARK                            x       y       z     vdW  Elec       q    Type
REMARK                         _______ _______ _______ _____ _____    ______ ____
ROOT
ATOM      1  C   UNL     1       1.564   9.115  18.562  0.00  0.00    +0.000 A 
ATOM      2  C   UNL     1       2.236   9.708  17.468  0.00  0.00    +0.000 A 
ATOM      3  N   UNL     1       3.277   8.999  17.045  0.00  0.00    +0.000 NA
ATOM      4  N   UNL     1       3.289   7.918  17.853  0.00  0.00    +0.000 N 
ATOM      5  C   UNL     1       4.177   6.864  17.791  0.00  0.00    +0.000 A 
ATOM      6  C   UNL     1       4.067   5.841  18.642  0.00  0.00    +0.000 A 
ATOM      7  C   UNL     1       2.959   5.905  19.663  0.00  0.00    +0.000 A 
ATOM      8  N   UNL     1       2.817   4.882  20.587  0.00  0.00    +0.000 N 
ATOM      9  N   UNL     1       2.124   6.926  19.740  0.00  0.00    +0.000 NA
ATOM     10  C   UNL     1       2.266   7.943  18.815  0.00  0.00    +0.000 A 
ATOM     11  H   UNL     1       2.069   5.057  21.252  0.00  0.00    +0.000 HD
ENDROOT
BRANCH   8  12
ATOM     12  C   UNL     1       3.087   3.453  20.315  0.00  0.00    +0.000 C 
ATOM     13  C   UNL     1       3.217   3.166  18.816  0.00  0.00    +0.000 C 
ATOM     14  C   UNL     1       1.899   3.246  18.045  0.00  0.00    +0.000 C 
ATOM     15  C   UNL     1       0.749   2.483  18.699  0.00  0.00    +0.000 C 
ATOM     16  C   UNL     1       0.645   2.689  20.207  0.00  0.00    +0.000 C 
ATOM     17  C   UNL     1       1.990   2.548  20.916  0.00  0.00    +0.000 C 
BRANCH  17  18
ATOM     18  O   UNL     1       1.830   2.822  22.308  0.00  0.00    +0.000 OA
ATOM     19  H   UNL     1       1.787   3.794  22.384  0.00  0.00    +0.000 HD
ENDBRANCH  17  18
ENDBRANCH   8  12
BRANCH   1  21
ATOM     20  N   UNL     1      -0.243  10.689  18.451  0.00  0.00    +0.000 N 
ATOM     21  C   UNL     1       0.404   9.712  19.188  0.00  0.00    +0.000 C 
ATOM     22  O   UNL     1       0.065   9.322  20.302  0.00  0.00    +0.000 OA
ATOM     23  H   UNL     1       0.151  10.925  17.542  0.00  0.00    +0.000 HD
BRANCH  20  27
ATOM     24  C   UNL     1      -3.386  13.542  20.907  0.00  0.00    +0.000 C 
ATOM     25  N   UNL     1      -2.819  12.604  19.966  0.00  0.00    +0.000 N 
ATOM     26  C   UNL     1      -1.505  12.284  19.853  0.00  0.00    +0.000 A 
ATOM     27  C   UNL     1      -1.407  11.323  18.875  0.00  0.00    +0.000 A 
ATOM     28  C   UNL     1      -2.750  11.134  18.427  0.00  0.00    +0.000 A 
ATOM     29  N   UNL     1      -3.606  11.933  19.110  0.00  0.00    +0.000 NA
BRANCH  28  30
ATOM     30  C   UNL     1      -3.228  10.199  17.358  0.00  0.00    +0.000 C 
ATOM     31  F   UNL     1      -3.780   9.064  17.879  0.00  0.00    +0.000 F 
ATOM     32  F   UNL     1      -4.186  10.751  16.566  0.00  0.00    +0.000 F 
ATOM     33  F   UNL     1      -2.226   9.785  16.536  0.00  0.00    +0.000 F 
ENDBRANCH  28  30
ENDBRANCH  20  27
ENDBRANCH   1  21
TORSDOF 5
ENDMDL
MODEL 9
REMARK VINA RESULT:      -7.0      4.680      9.817
REMARK  Name = 
REMARK  6 active torsions:
REMARK  status: ('A' for Active; 'I' for Inactive)
REMARK    1  A    between atoms: C_1  and  N_2
REMARK    2  A    between atoms: C_4  and  N_5
REMARK    3  A    between atoms: C_6  and  C_8
REMARK    4  A    between atoms: N_15  and  C_16
REMARK    5  A    between atoms: C_21  and  O_22
REMARK    6  A    between atoms: C_25  and  C_26
REMARK                            x       y       z     vdW  Elec       q    Type
REMARK                         _______ _______ _______ _____ _____    ______ ____
ROOT
ATOM      1  C   UNL     1       0.863  10.628  20.139  0.00  0.00    +0.000 A 
ATOM      2  C   UNL     1       1.101  11.509  19.059  0.00  0.00    +0.000 A 
ATOM      3  N   UNL     1       1.731  10.934  18.041  0.00  0.00    +0.000 NA
ATOM      4  N   UNL     1       1.898   9.655  18.440  0.00  0.00    +0.000 N 
ATOM      5  C   UNL     1       2.485   8.643  17.707  0.00  0.00    +0.000 A 
ATOM      6  C   UNL     1       2.572   7.411  18.213  0.00  0.00    +0.000 A 
ATOM      7  C   UNL     1       2.025   7.190  19.601  0.00  0.00    +0.000 A 
ATOM      8  N   UNL     1       2.115   5.936  20.182  0.00  0.00    +0.000 N 
ATOM      9  N   UNL     1       1.487   8.164  20.313  0.00  0.00    +0.000 NA
ATOM     10  C   UNL     1       1.396   9.413  19.729  0.00  0.00    +0.000 A 
ATOM     11  H   UNL     1       1.757   5.920  21.134  0.00  0.00    +0.000 HD
ENDROOT
BRANCH   8  12
ATOM     12  C   UNL     1       1.998   4.654  19.452  0.00  0.00    +0.000 C 
ATOM     13  C   UNL     1       0.890   3.764  20.022  0.00  0.00    +0.000 C 
ATOM     14  C   UNL     1       1.213   3.159  21.388  0.00  0.00    +0.000 C 
ATOM     15  C   UNL     1       2.596   2.514  21.472  0.00  0.00    +0.000 C 
ATOM     16  C   UNL     1       3.707   3.346  20.840  0.00  0.00    +0.000 C 
ATOM     17  C   UNL     1       3.333   3.879  19.458  0.00  0.00    +0.000 C 
BRANCH  17  18
ATOM     18  O   UNL     1       4.387   4.701  18.959  0.00  0.00    +0.000 OA
ATOM     19  H   UNL     1       4.097   5.622  19.103  0.00  0.00    +0.000 HD
ENDBRANCH  17  18
ENDBRANCH   8  12
BRANCH   1  21
ATOM     20  N   UNL     1      -0.722  12.069  21.220  0.00  0.00    +0.000 N 
ATOM     21  C   UNL     1       0.193  11.038  21.354  0.00  0.00    +0.000 C 
ATOM     22  O   UNL     1       0.461  10.460  22.404  0.00  0.00    +0.000 OA
ATOM     23  H   UNL     1      -0.841  12.469  20.292  0.00  0.00    +0.000 HD
BRANCH  20  27
ATOM     24  C   UNL     1      -4.181  12.480  24.673  0.00  0.00    +0.000 C 
ATOM     25  N   UNL     1      -3.039  12.735  23.827  0.00  0.00    +0.000 N 
ATOM     26  C   UNL     1      -2.554  11.903  22.871  0.00  0.00    +0.000 A 
ATOM     27  C   UNL     1      -1.497  12.547  22.273  0.00  0.00    +0.000 A 
ATOM     28  C   UNL     1      -1.402  13.791  22.968  0.00  0.00    +0.000 A 
ATOM     29  N   UNL     1      -2.359  13.888  23.923  0.00  0.00    +0.000 NA
BRANCH  28  30
ATOM     30  C   UNL     1      -0.411  14.890  22.731  0.00  0.00    +0.000 C 
ATOM     31  F   UNL     1      -0.235  15.669  23.839  0.00  0.00    +0.000 F 
ATOM     32  F   UNL     1       0.824  14.424  22.401  0.00  0.00    +0.000 F 
ATOM     33  F   UNL     1      -0.793  15.736  21.736  0.00  0.00    +0.000 F 
ENDBRANCH  28  30
ENDBRANCH  20  27
ENDBRANCH   1  21
TORSDOF 5
ENDMDL
