MODEL 1
REMARK VINA RESULT:      -8.2      0.000      0.000
REMARK  Name = 
REMARK  5 active torsions:
REMARK  status: ('A' for Active; 'I' for Inactive)
REMARK    1  A    between atoms: C_1  and  O_2
REMARK    2  A    between atoms: O_2  and  C_3
REMARK    3  A    between atoms: C_12  and  C_13
REMARK    4  A    between atoms: C_14  and  C_15
REMARK    5  A    between atoms: C_18  and  C_19
REMARK                            x       y       z     vdW  Elec       q    Type
REMARK                         _______ _______ _______ _____ _____    ______ ____
ROOT
ATOM      1  C   UNL     1       7.070   5.449  16.405  0.00  0.00    +0.000 A 
ATOM      2  N   UNL     1       7.632   5.661  15.190  0.00  0.00    +0.000 NA
ATOM      3  C   UNL     1       7.153   4.985  14.139  0.00  0.00    +0.000 A 
ATOM      4  C   UNL     1       7.725   5.184  12.889  0.00  0.00    +0.000 A 
ATOM      5  C   UNL     1       7.289   4.483  11.762  0.00  0.00    +0.000 A 
ATOM      6  C   UNL     1       6.254   3.564  11.880  0.00  0.00    +0.000 A 
ATOM      7  C   UNL     1       5.651   3.357  13.123  0.00  0.00    +0.000 A 
ATOM      8  C   UNL     1       6.095   4.064  14.256  0.00  0.00    +0.000 A 
ATOM      9  C   UNL     1       5.518   3.879  15.528  0.00  0.00    +0.000 A 
ATOM     10  C   UNL     1       5.993   4.583  16.639  0.00  0.00    +0.000 A 
ENDROOT
BRANCH   1  12
ATOM     11  C   UNL     1       7.460   7.496  17.463  0.00  0.00    +0.000 C 
ATOM     12  O   UNL     1       7.646   6.086  17.487  0.00  0.00    +0.000 OA
ENDBRANCH   1  12
BRANCH  10  13
ATOM     13  C   UNL     1       5.363   4.325  17.954  0.00  0.00    +0.000 C 
ATOM     14  C   UNL     1       4.694   3.202  18.272  0.00  0.00    +0.000 C 
BRANCH  14  15
ATOM     15  C   UNL     1       4.050   2.907  19.511  0.00  0.00    +0.000 A 
ATOM     16  N   UNL     1       4.631   2.250  20.527  0.00  0.00    +0.000 NA
ATOM     17  O   UNL     1       3.622   2.164  21.481  0.00  0.00    +0.000 OA
ATOM     18  C   UNL     1       2.532   2.783  20.945  0.00  0.00    +0.000 A 
ATOM     19  C   UNL     1       1.311   2.792  21.773  0.00  0.00    +0.000 C 
ATOM     20  N   UNL     1       2.742   3.267  19.742  0.00  0.00    +0.000 NA
ENDBRANCH  14  15
ENDBRANCH  10  13
TORSDOF 3
ENDMDL
MODEL 2
REMARK VINA RESULT:      -8.1      1.203      1.451
REMARK  Name = 
REMARK  5 active torsions:
REMARK  status: ('A' for Active; 'I' for Inactive)
REMARK    1  A    between atoms: C_1  and  O_2
REMARK    2  A    between atoms: O_2  and  C_3
REMARK    3  A    between atoms: C_12  and  C_13
REMARK    4  A    between atoms: C_14  and  C_15
REMARK    5  A    between atoms: C_18  and  C_19
REMARK                            x       y       z     vdW  Elec       q    Type
REMARK                         _______ _______ _______ _____ _____    ______ ____
ROOT
ATOM      1  C   UNL     1       6.565   5.301  16.417  0.00  0.00    +0.000 A 
ATOM      2  N   UNL     1       7.373   5.574  15.365  0.00  0.00    +0.000 NA
ATOM      3  C   UNL     1       7.114   4.984  14.191  0.00  0.00    +0.000 A 
ATOM      4  C   UNL     1       7.939   5.247  13.106  0.00  0.00    +0.000 A 
ATOM      5  C   UNL     1       7.736   4.636  11.865  0.00  0.00    +0.000 A 
ATOM      6  C   UNL     1       6.684   3.746  11.700  0.00  0.00    +0.000 A 
ATOM      7  C   UNL     1       5.829   3.477  12.771  0.00  0.00    +0.000 A 
ATOM      8  C   UNL     1       6.038   4.093  14.019  0.00  0.00    +0.000 A 
ATOM      9  C   UNL     1       5.204   3.843  15.126  0.00  0.00    +0.000 A 
ATOM     10  C   UNL     1       5.447   4.457  16.360  0.00  0.00    +0.000 A 
ENDROOT
BRANCH   1  12
ATOM     11  C   UNL     1       7.337   7.200  17.540  0.00  0.00    +0.000 C 
ATOM     12  O   UNL     1       6.913   5.845  17.638  0.00  0.00    +0.000 OA
ENDBRANCH   1  12
BRANCH  10  13
ATOM     13  C   UNL     1       4.550   4.133  17.493  0.00  0.00    +0.000 C 
ATOM     14  C   UNL     1       3.359   3.521  17.372  0.00  0.00    +0.000 C 
BRANCH  14  15
ATOM     15  C   UNL     1       2.446   3.202  18.421  0.00  0.00    +0.000 A 
ATOM     16  N   UNL     1       1.129   3.018  18.247  0.00  0.00    +0.000 NA
ATOM     17  O   UNL     1       0.658   2.778  19.535  0.00  0.00    +0.000 OA
ATOM     18  C   UNL     1       1.743   2.838  20.358  0.00  0.00    +0.000 A 
ATOM     19  C   UNL     1       1.485   2.642  21.797  0.00  0.00    +0.000 C 
ATOM     20  N   UNL     1       2.868   3.085  19.725  0.00  0.00    +0.000 NA
ENDBRANCH  14  15
ENDBRANCH  10  13
TORSDOF 3
ENDMDL
MODEL 3
REMARK VINA RESULT:      -7.8      2.002      7.302
REMARK  Name = 
REMARK  5 active torsions:
REMARK  status: ('A' for Active; 'I' for Inactive)
REMARK    1  A    between atoms: C_1  and  O_2
REMARK    2  A    between atoms: O_2  and  C_3
REMARK    3  A    between atoms: C_12  and  C_13
REMARK    4  A    between atoms: C_14  and  C_15
REMARK    5  A    between atoms: C_18  and  C_19
REMARK                            x       y       z     vdW  Elec       q    Type
REMARK                         _______ _______ _______ _____ _____    ______ ____
ROOT
ATOM      1  C   UNL     1       5.168   3.929  18.610  0.00  0.00    +0.000 A 
ATOM      2  N   UNL     1       4.652   3.545  19.803  0.00  0.00    +0.000 NA
ATOM      3  C   UNL     1       3.337   3.306  19.880  0.00  0.00    +0.000 A 
ATOM      4  C   UNL     1       2.791   2.921  21.098  0.00  0.00    +0.000 A 
ATOM      5  C   UNL     1       1.421   2.689  21.247  0.00  0.00    +0.000 A 
ATOM      6  C   UNL     1       0.575   2.838  20.157  0.00  0.00    +0.000 A 
ATOM      7  C   UNL     1       1.100   3.209  18.918  0.00  0.00    +0.000 A 
ATOM      8  C   UNL     1       2.481   3.444  18.772  0.00  0.00    +0.000 A 
ATOM      9  C   UNL     1       3.049   3.826  17.542  0.00  0.00    +0.000 A 
ATOM     10  C   UNL     1       4.423   4.069  17.432  0.00  0.00    +0.000 A 
ENDROOT
BRANCH   1  12
ATOM     11  C   UNL     1       6.780   5.514  19.204  0.00  0.00    +0.000 C 
ATOM     12  O   UNL     1       6.508   4.264  18.581  0.00  0.00    +0.000 OA
ENDBRANCH   1  12
BRANCH  10  13
ATOM     13  C   UNL     1       4.956   4.494  16.117  0.00  0.00    +0.000 C 
ATOM     14  C   UNL     1       5.971   3.890  15.474  0.00  0.00    +0.000 C 
BRANCH  14  15
ATOM     15  C   UNL     1       6.538   4.265  14.219  0.00  0.00    +0.000 A 
ATOM     16  N   UNL     1       6.283   3.644  13.058  0.00  0.00    +0.000 NA
ATOM     17  O   UNL     1       7.080   4.322  12.141  0.00  0.00    +0.000 OA
ATOM     18  C   UNL     1       7.735   5.290  12.843  0.00  0.00    +0.000 A 
ATOM     19  C   UNL     1       8.675   6.131  12.078  0.00  0.00    +0.000 C 
ATOM     20  N   UNL     1       7.431   5.307  14.121  0.00  0.00    +0.000 NA
ENDBRANCH  14  15
ENDBRANCH  10  13
TORSDOF 3
ENDMDL
MODEL 4
REMARK VINA RESULT:      -7.8      5.032      6.808
REMARK  Name = 
REMARK  5 active torsions:
REMARK  status: ('A' for Active; 'I' for Inactive)
REMARK    1  A    between atoms: C_1  and  O_2
REMARK    2  A    between atoms: O_2  and  C_3
REMARK    3  A    between atoms: C_12  and  C_13
REMARK    4  A    between atoms: C_14  and  C_15
REMARK    5  A    between atoms: C_18  and  C_19
REMARK                            x       y       z     vdW  Elec       q    Type
REMARK                         _______ _______ _______ _____ _____    ______ ____
ROOT
ATOM      1  C   UNL     1       1.911   4.803  19.713  0.00  0.00    +0.000 A 
ATOM      2  N   UNL     1       2.546   4.048  18.784  0.00  0.00    +0.000 NA
ATOM      3  C   UNL     1       3.402   4.650  17.950  0.00  0.00    +0.000 A 
ATOM      4  C   UNL     1       4.053   3.891  16.986  0.00  0.00    +0.000 A 
ATOM      5  C   UNL     1       4.932   4.470  16.067  0.00  0.00    +0.000 A 
ATOM      6  C   UNL     1       5.174   5.837  16.112  0.00  0.00    +0.000 A 
ATOM      7  C   UNL     1       4.545   6.620  17.082  0.00  0.00    +0.000 A 
ATOM      8  C   UNL     1       3.658   6.033  18.004  0.00  0.00    +0.000 A 
ATOM      9  C   UNL     1       2.998   6.789  18.993  0.00  0.00    +0.000 A 
ATOM     10  C   UNL     1       2.108   6.180  19.885  0.00  0.00    +0.000 A 
ENDROOT
BRANCH   1  12
ATOM     11  C   UNL     1       1.465   3.020  21.158  0.00  0.00    +0.000 C 
ATOM     12  O   UNL     1       0.962   4.175  20.496  0.00  0.00    +0.000 OA
ENDBRANCH   1  12
BRANCH  10  13
ATOM     13  C   UNL     1       1.425   7.033  20.884  0.00  0.00    +0.000 C 
ATOM     14  C   UNL     1       1.308   8.370  20.794  0.00  0.00    +0.000 C 
BRANCH  14  15
ATOM     15  C   UNL     1       0.681   9.243  21.733  0.00  0.00    +0.000 A 
ATOM     16  N   UNL     1       1.005   9.313  23.033  0.00  0.00    +0.000 NA
ATOM     17  O   UNL     1       0.113  10.251  23.543  0.00  0.00    +0.000 OA
ATOM     18  C   UNL     1      -0.659  10.657  22.496  0.00  0.00    +0.000 A 
ATOM     19  C   UNL     1      -1.713  11.642  22.802  0.00  0.00    +0.000 C 
ATOM     20  N   UNL     1      -0.346  10.078  21.358  0.00  0.00    +0.000 NA
ENDBRANCH  14  15
ENDBRANCH  10  13
TORSDOF 3
ENDMDL
MODEL 5
REMARK VINA RESULT:      -7.7      4.179      7.797
REMARK  Name = 
REMARK  5 active torsions:
REMARK  status: ('A' for Active; 'I' for Inactive)
REMARK    1  A    between atoms: C_1  and  O_2
REMARK    2  A    between atoms: O_2  and  C_3
REMARK    3  A    between atoms: C_12  and  C_13
REMARK    4  A    between atoms: C_14  and  C_15
REMARK    5  A    between atoms: C_18  and  C_19
REMARK                            x       y       z     vdW  Elec       q    Type
REMARK                         _______ _______ _______ _____ _____    ______ ____
ROOT
ATOM      1  C   UNL     1       2.866   6.142  19.595  0.00  0.00    +0.000 A 
ATOM      2  N   UNL     1       2.093   6.827  20.473  0.00  0.00    +0.000 NA
ATOM      3  C   UNL     1       1.592   8.009  20.095  0.00  0.00    +0.000 A 
ATOM      4  C   UNL     1       0.806   8.726  20.988  0.00  0.00    +0.000 A 
ATOM      5  C   UNL     1       0.283   9.980  20.661  0.00  0.00    +0.000 A 
ATOM      6  C   UNL     1       0.545  10.532  19.413  0.00  0.00    +0.000 A 
ATOM      7  C   UNL     1       1.319   9.823  18.492  0.00  0.00    +0.000 A 
ATOM      8  C   UNL     1       1.845   8.562  18.826  0.00  0.00    +0.000 A 
ATOM      9  C   UNL     1       2.636   7.819  17.928  0.00  0.00    +0.000 A 
ATOM     10  C   UNL     1       3.161   6.574  18.295  0.00  0.00    +0.000 A 
ENDROOT
BRANCH   1  12
ATOM     11  C   UNL     1       2.496   3.963  20.353  0.00  0.00    +0.000 C 
ATOM     12  O   UNL     1       3.449   4.973  20.045  0.00  0.00    +0.000 OA
ENDBRANCH   1  12
BRANCH  10  13
ATOM     13  C   UNL     1       4.007   5.855  17.316  0.00  0.00    +0.000 C 
ATOM     14  C   UNL     1       5.101   6.370  16.728  0.00  0.00    +0.000 C 
BRANCH  14  15
ATOM     15  C   UNL     1       5.940   5.733  15.766  0.00  0.00    +0.000 A 
ATOM     16  N   UNL     1       7.269   5.900  15.693  0.00  0.00    +0.000 NA
ATOM     17  O   UNL     1       7.637   5.130  14.594  0.00  0.00    +0.000 OA
ATOM     18  C   UNL     1       6.490   4.571  14.115  0.00  0.00    +0.000 A 
ATOM     19  C   UNL     1       6.626   3.724  12.915  0.00  0.00    +0.000 C 
ATOM     20  N   UNL     1       5.419   4.899  14.803  0.00  0.00    +0.000 NA
ENDBRANCH  14  15
ENDBRANCH  10  13
TORSDOF 3
ENDMDL
MODEL 6
REMARK VINA RESULT:      -7.7      1.809      7.266
REMARK  Name = 
REMARK  5 active torsions:
REMARK  status: ('A' for Active; 'I' for Inactive)
REMARK    1  A    between atoms: C_1  and  O_2
REMARK    2  A    between atoms: O_2  and  C_3
REMARK    3  A    between atoms: C_12  and  C_13
REMARK    4  A    between atoms: C_14  and  C_15
REMARK    5  A    between atoms: C_18  and  C_19
REMARK                            x       y       z     vdW  Elec       q    Type
REMARK                         _______ _______ _______ _____ _____    ______ ____
ROOT
ATOM      1  C   UNL     1       5.254   3.984  18.824  0.00  0.00    +0.000 A 
ATOM      2  N   UNL     1       4.672   3.552  19.968  0.00  0.00    +0.000 NA
ATOM      3  C   UNL     1       3.345   3.373  19.980  0.00  0.00    +0.000 A 
ATOM      4  C   UNL     1       2.732   2.940  21.149  0.00  0.00    +0.000 A 
ATOM      5  C   UNL     1       1.348   2.766  21.230  0.00  0.00    +0.000 A 
ATOM      6  C   UNL     1       0.555   3.025  20.120  0.00  0.00    +0.000 A 
ATOM      7  C   UNL     1       1.148   3.446  18.928  0.00  0.00    +0.000 A 
ATOM      8  C   UNL     1       2.542   3.622  18.851  0.00  0.00    +0.000 A 
ATOM      9  C   UNL     1       3.179   4.052  17.670  0.00  0.00    +0.000 A 
ATOM     10  C   UNL     1       4.566   4.235  17.629  0.00  0.00    +0.000 A 
ENDROOT
BRANCH   1  12
ATOM     11  C   UNL     1       6.897   5.561  19.351  0.00  0.00    +0.000 C 
ATOM     12  O   UNL     1       6.609   4.254  18.867  0.00  0.00    +0.000 OA
ENDBRANCH   1  12
BRANCH  10  13
ATOM     13  C   UNL     1       5.171   4.714  16.366  0.00  0.00    +0.000 C 
ATOM     14  C   UNL     1       6.121   4.056  15.677  0.00  0.00    +0.000 C 
BRANCH  14  15
ATOM     15  C   UNL     1       6.753   4.478  14.469  0.00  0.00    +0.000 A 
ATOM     16  N   UNL     1       7.661   5.463  14.396  0.00  0.00    +0.000 NA
ATOM     17  O   UNL     1       7.952   5.539  13.037  0.00  0.00    +0.000 OA
ATOM     18  C   UNL     1       7.192   4.588  12.426  0.00  0.00    +0.000 A 
ATOM     19  C   UNL     1       7.308   4.498  10.959  0.00  0.00    +0.000 C 
ATOM     20  N   UNL     1       6.444   3.899  13.260  0.00  0.00    +0.000 NA
ENDBRANCH  14  15
ENDBRANCH  10  13
TORSDOF 3
ENDMDL
MODEL 7
REMARK VINA RESULT:      -7.6      2.419      2.574
REMARK  Name = 
REMARK  5 active torsions:
REMARK  status: ('A' for Active; 'I' for Inactive)
REMARK    1  A    between atoms: C_1  and  O_2
REMARK    2  A    between atoms: O_2  and  C_3
REMARK    3  A    between atoms: C_12  and  C_13
REMARK    4  A    between atoms: C_14  and  C_15
REMARK    5  A    between atoms: C_18  and  C_19
REMARK                            x       y       z     vdW  Elec       q    Type
REMARK                         _______ _______ _______ _____ _____    ______ ____
ROOT
ATOM      1  C   UNL     1       6.829   5.652  16.438  0.00  0.00    +0.000 A 
ATOM      2  N   UNL     1       7.546   5.493  15.299  0.00  0.00    +0.000 NA
ATOM      3  C   UNL     1       6.978   4.849  14.273  0.00  0.00    +0.000 A 
ATOM      4  C   UNL     1       7.704   4.669  13.103  0.00  0.00    +0.000 A 
ATOM      5  C   UNL     1       7.175   3.976  12.010  0.00  0.00    +0.000 A 
ATOM      6  C   UNL     1       5.890   3.454  12.082  0.00  0.00    +0.000 A 
ATOM      7  C   UNL     1       5.133   3.635  13.241  0.00  0.00    +0.000 A 
ATOM      8  C   UNL     1       5.670   4.332  14.340  0.00  0.00    +0.000 A 
ATOM      9  C   UNL     1       4.943   4.529  15.530  0.00  0.00    +0.000 A 
ATOM     10  C   UNL     1       5.510   5.211  16.613  0.00  0.00    +0.000 A 
ENDROOT
BRANCH   1  12
ATOM     11  C   UNL     1       7.534   7.652  17.421  0.00  0.00    +0.000 C 
ATOM     12  O   UNL     1       7.472   6.234  17.513  0.00  0.00    +0.000 OA
ENDBRANCH   1  12
BRANCH  10  13
ATOM     13  C   UNL     1       4.704   5.363  17.845  0.00  0.00    +0.000 C 
ATOM     14  C   UNL     1       3.606   6.134  17.949  0.00  0.00    +0.000 C 
BRANCH  14  15
ATOM     15  C   UNL     1       2.804   6.334  19.112  0.00  0.00    +0.000 A 
ATOM     16  N   UNL     1       2.406   5.351  19.934  0.00  0.00    +0.000 NA
ATOM     17  O   UNL     1       1.626   6.010  20.879  0.00  0.00    +0.000 OA
ATOM     18  C   UNL     1       1.634   7.328  20.533  0.00  0.00    +0.000 A 
ATOM     19  C   UNL     1       0.838   8.234  21.383  0.00  0.00    +0.000 C 
ATOM     20  N   UNL     1       2.351   7.585  19.461  0.00  0.00    +0.000 NA
ENDBRANCH  14  15
ENDBRANCH  10  13
TORSDOF 3
ENDMDL
MODEL 8
REMARK VINA RESULT:      -7.4      2.477      7.371
REMARK  Name = 
REMARK  5 active torsions:
REMARK  status: ('A' for Active; 'I' for Inactive)
REMARK    1  A    between atoms: C_1  and  O_2
REMARK    2  A    between atoms: O_2  and  C_3
REMARK    3  A    between atoms: C_12  and  C_13
REMARK    4  A    between atoms: C_14  and  C_15
REMARK    5  A    between atoms: C_18  and  C_19
REMARK                            x       y       z     vdW  Elec       q    Type
REMARK                         _______ _______ _______ _____ _____    ______ ____
ROOT
ATOM      1  C   UNL     1       3.290   6.374  18.321  0.00  0.00    +0.000 A 
ATOM      2  N   UNL     1       2.470   6.148  19.376  0.00  0.00    +0.000 NA
ATOM      3  C   UNL     1       2.310   4.889  19.801  0.00  0.00    +0.000 A 
ATOM      4  C   UNL     1       1.466   4.640  20.875  0.00  0.00    +0.000 A 
ATOM      5  C   UNL     1       1.235   3.343  21.341  0.00  0.00    +0.000 A 
ATOM      6  C   UNL     1       1.864   2.268  20.727  0.00  0.00    +0.000 A 
ATOM      7  C   UNL     1       2.731   2.493  19.656  0.00  0.00    +0.000 A 
ATOM      8  C   UNL     1       2.959   3.800  19.187  0.00  0.00    +0.000 A 
ATOM      9  C   UNL     1       3.819   4.069  18.105  0.00  0.00    +0.000 A 
ATOM     10  C   UNL     1       4.012   5.378  17.651  0.00  0.00    +0.000 A 
ENDROOT
BRANCH   1  12
ATOM     11  C   UNL     1       2.125   8.367  17.951  0.00  0.00    +0.000 C 
ATOM     12  O   UNL     1       3.360   7.669  17.843  0.00  0.00    +0.000 OA
ENDBRANCH   1  12
BRANCH  10  13
ATOM     13  C   UNL     1       4.909   5.592  16.492  0.00  0.00    +0.000 C 
ATOM     14  C   UNL     1       5.539   4.611  15.823  0.00  0.00    +0.000 C 
BRANCH  14  15
ATOM     15  C   UNL     1       6.427   4.758  14.716  0.00  0.00    +0.000 A 
ATOM     16  N   UNL     1       7.515   5.543  14.719  0.00  0.00    +0.000 NA
ATOM     17  O   UNL     1       8.027   5.399  13.434  0.00  0.00    +0.000 OA
ATOM     18  C   UNL     1       7.197   4.536  12.784  0.00  0.00    +0.000 A 
ATOM     19  C   UNL     1       7.525   4.248  11.374  0.00  0.00    +0.000 C 
ATOM     20  N   UNL     1       6.204   4.103  13.527  0.00  0.00    +0.000 NA
ENDBRANCH  14  15
ENDBRANCH  10  13
TORSDOF 3
ENDMDL
MODEL 9
REMARK VINA RESULT:      -7.4      2.239      7.152
REMARK  Name = 
REMARK  5 active torsions:
REMARK  status: ('A' for Active; 'I' for Inactive)
REMARK    1  A    between atoms: C_1  and  O_2
REMARK    2  A    between atoms: O_2  and  C_3
REMARK    3  A    between atoms: C_12  and  C_13
REMARK    4  A    between atoms: C_14  and  C_15
REMARK    5  A    between atoms: C_18  and  C_19
REMARK                            x       y       z     vdW  Elec       q    Type
REMARK                         _______ _______ _______ _____ _____    ______ ____
ROOT
ATOM      1  C   UNL     1       5.040   5.282  18.301  0.00  0.00    +0.000 A 
ATOM      2  N   UNL     1       4.224   5.512  19.359  0.00  0.00    +0.000 NA
ATOM      3  C   UNL     1       3.104   4.788  19.470  0.00  0.00    +0.000 A 
ATOM      4  C   UNL     1       2.254   5.019  20.543  0.00  0.00    +0.000 A 
ATOM      5  C   UNL     1       1.055   4.316  20.694  0.00  0.00    +0.000 A 
ATOM      6  C   UNL     1       0.696   3.357  19.756  0.00  0.00    +0.000 A 
ATOM      7  C   UNL     1       1.542   3.095  18.676  0.00  0.00    +0.000 A 
ATOM      8  C   UNL     1       2.747   3.806  18.527  0.00  0.00    +0.000 A 
ATOM      9  C   UNL     1       3.624   3.576  17.449  0.00  0.00    +0.000 A 
ATOM     10  C   UNL     1       4.807   4.311  17.318  0.00  0.00    +0.000 A 
ENDROOT
BRANCH   1  12
ATOM     11  C   UNL     1       7.236   5.717  18.974  0.00  0.00    +0.000 C 
ATOM     12  O   UNL     1       6.137   6.109  18.159  0.00  0.00    +0.000 OA
ENDBRANCH   1  12
BRANCH  10  13
ATOM     13  C   UNL     1       5.673   4.042  16.148  0.00  0.00    +0.000 C 
ATOM     14  C   UNL     1       5.520   4.608  14.938  0.00  0.00    +0.000 C 
BRANCH  14  15
ATOM     15  C   UNL     1       6.309   4.372  13.772  0.00  0.00    +0.000 A 
ATOM     16  N   UNL     1       7.193   5.246  13.268  0.00  0.00    +0.000 NA
ATOM     17  O   UNL     1       7.674   4.606  12.130  0.00  0.00    +0.000 OA
ATOM     18  C   UNL     1       7.033   3.405  12.064  0.00  0.00    +0.000 A 
ATOM     19  C   UNL     1       7.361   2.549  10.908  0.00  0.00    +0.000 C 
ATOM     20  N   UNL     1       6.192   3.205  13.054  0.00  0.00    +0.000 NA
ENDBRANCH  14  15
ENDBRANCH  10  13
TORSDOF 3
ENDMDL
