MODEL 1
REMARK VINA RESULT:      -8.1      0.000      0.000
REMARK  Name = 
REMARK  6 active torsions:
REMARK  status: ('A' for Active; 'I' for Inactive)
REMARK    1  A    between atoms: C_1  and  O_2
REMARK    2  A    between atoms: O_2  and  C_3
REMARK    3  A    between atoms: C_7  and  C_8
REMARK    4  A    between atoms: C_8  and  N_9
REMARK    5  A    between atoms: N_12  and  C_13
REMARK    6  A    between atoms: C_16  and  C_17
REMARK                            x       y       z     vdW  Elec       q    Type
REMARK                         _______ _______ _______ _____ _____    ______ ____
ROOT
ATOM      1  N   UNL     1       5.178   4.806  16.343  0.00  0.00    +0.000 N 
ATOM      2  C   UNL     1       4.812   5.625  17.381  0.00  0.00    +0.000 C 
ATOM      3  O   UNL     1       5.633   6.326  17.964  0.00  0.00    +0.000 OA
ATOM      4  N   UNL     1       3.475   5.518  17.687  0.00  0.00    +0.000 N 
ATOM      5  H   UNL     1       4.486   4.630  15.631  0.00  0.00    +0.000 HD
ATOM      6  H   UNL     1       2.988   4.703  17.336  0.00  0.00    +0.000 HD
ENDROOT
BRANCH   4   7
ATOM      7  C   UNL     1       2.821   6.247  18.707  0.00  0.00    +0.000 A 
ATOM      8  C   UNL     1       2.393   5.661  19.896  0.00  0.00    +0.000 A 
ATOM      9  C   UNL     1       1.712   6.412  20.857  0.00  0.00    +0.000 A 
ATOM     10  C   UNL     1       1.458   7.774  20.659  0.00  0.00    +0.000 A 
ATOM     11  C   UNL     1       1.913   8.377  19.481  0.00  0.00    +0.000 A 
ATOM     12  C   UNL     1       2.588   7.615  18.523  0.00  0.00    +0.000 A 
ATOM     13  F   UNL     1       2.997   8.211  17.390  0.00  0.00    +0.000 F 
BRANCH  10  14
ATOM     14  C   UNL     1       0.755   8.538  21.672  0.00  0.00    +0.000 A 
ATOM     15  C   UNL     1       1.228   9.416  22.671  0.00  0.00    +0.000 A 
ATOM     16  N   UNL     1       0.249   9.911  23.433  0.00  0.00    +0.000 NA
ATOM     17  N   UNL     1      -0.859   9.352  22.922  0.00  0.00    +0.000 N 
ATOM     18  C   UNL     1      -0.613   8.526  21.864  0.00  0.00    +0.000 A 
ATOM     19  H   UNL     1      -1.753   9.576  23.347  0.00  0.00    +0.000 HD
ENDBRANCH  10  14
ENDBRANCH   4   7
BRANCH   1  20
ATOM     20  C   UNL     1       6.563   4.815  15.922  0.00  0.00    +0.000 C 
BRANCH  20  25
ATOM     21  C   UNL     1       5.940   3.442  12.428  0.00  0.00    +0.000 A 
ATOM     22  C   UNL     1       6.905   4.142  11.698  0.00  0.00    +0.000 A 
ATOM     23  C   UNL     1       7.752   5.053  12.326  0.00  0.00    +0.000 A 
ATOM     24  C   UNL     1       7.643   5.264  13.698  0.00  0.00    +0.000 A 
ATOM     25  C   UNL     1       6.688   4.562  14.448  0.00  0.00    +0.000 A 
ATOM     26  C   UNL     1       5.828   3.663  13.801  0.00  0.00    +0.000 A 
BRANCH  21  28
ATOM     27  C   UNL     1       3.996   3.097  11.104  0.00  0.00    +0.000 C 
ATOM     28  O   UNL     1       5.181   2.576  11.691  0.00  0.00    +0.000 OA
ENDBRANCH  21  28
ENDBRANCH  20  25
ENDBRANCH   1  20
TORSDOF 5
ENDMDL
MODEL 2
REMARK VINA RESULT:      -7.9      1.202      1.553
REMARK  Name = 
REMARK  6 active torsions:
REMARK  status: ('A' for Active; 'I' for Inactive)
REMARK    1  A    between atoms: C_1  and  O_2
REMARK    2  A    between atoms: O_2  and  C_3
REMARK    3  A    between atoms: C_7  and  C_8
REMARK    4  A    between atoms: C_8  and  N_9
REMARK    5  A    between atoms: N_12  and  C_13
REMARK    6  A    between atoms: C_16  and  C_17
REMARK                            x       y       z     vdW  Elec       q    Type
REMARK                         _______ _______ _______ _____ _____    ______ ____
ROOT
ATOM      1  N   UNL     1       5.192   4.802  16.465  0.00  0.00    +0.000 N 
ATOM      2  C   UNL     1       4.786   5.796  17.319  0.00  0.00    +0.000 C 
ATOM      3  O   UNL     1       5.577   6.620  17.766  0.00  0.00    +0.000 OA
ATOM      4  N   UNL     1       3.446   5.713  17.620  0.00  0.00    +0.000 N 
ATOM      5  H   UNL     1       4.519   4.472  15.792  0.00  0.00    +0.000 HD
ATOM      6  H   UNL     1       2.986   4.832  17.427  0.00  0.00    +0.000 HD
ENDROOT
BRANCH   4   7
ATOM      7  C   UNL     1       2.753   6.608  18.469  0.00  0.00    +0.000 A 
ATOM      8  C   UNL     1       2.353   7.878  18.058  0.00  0.00    +0.000 A 
ATOM      9  C   UNL     1       1.709   8.744  18.945  0.00  0.00    +0.000 A 
ATOM     10  C   UNL     1       1.435   8.354  20.261  0.00  0.00    +0.000 A 
ATOM     11  C   UNL     1       1.805   7.068  20.670  0.00  0.00    +0.000 A 
ATOM     12  C   UNL     1       2.454   6.211  19.777  0.00  0.00    +0.000 A 
ATOM     13  F   UNL     1       2.819   4.989  20.200  0.00  0.00    +0.000 F 
BRANCH  10  14
ATOM     14  C   UNL     1       0.759   9.266  21.164  0.00  0.00    +0.000 A 
ATOM     15  C   UNL     1       0.704   9.308  22.575  0.00  0.00    +0.000 A 
ATOM     16  N   UNL     1      -0.055  10.306  23.034  0.00  0.00    +0.000 NA
ATOM     17  N   UNL     1      -0.489  10.911  21.916  0.00  0.00    +0.000 N 
ATOM     18  C   UNL     1      -0.027  10.330  20.771  0.00  0.00    +0.000 A 
ATOM     19  H   UNL     1      -1.103  11.714  22.009  0.00  0.00    +0.000 HD
ENDBRANCH  10  14
ENDBRANCH   4   7
BRANCH   1  20
ATOM     20  C   UNL     1       6.585   4.768  16.072  0.00  0.00    +0.000 C 
BRANCH  20  25
ATOM     21  C   UNL     1       6.049   3.446  12.544  0.00  0.00    +0.000 A 
ATOM     22  C   UNL     1       6.981   4.209  11.836  0.00  0.00    +0.000 A 
ATOM     23  C   UNL     1       7.779   5.147  12.490  0.00  0.00    +0.000 A 
ATOM     24  C   UNL     1       7.653   5.320  13.865  0.00  0.00    +0.000 A 
ATOM     25  C   UNL     1       6.730   4.556  14.593  0.00  0.00    +0.000 A 
ATOM     26  C   UNL     1       5.919   3.630  13.920  0.00  0.00    +0.000 A 
BRANCH  21  28
ATOM     27  C   UNL     1       6.049   1.454  11.246  0.00  0.00    +0.000 C 
ATOM     28  O   UNL     1       5.337   2.561  11.782  0.00  0.00    +0.000 OA
ENDBRANCH  21  28
ENDBRANCH  20  25
ENDBRANCH   1  20
TORSDOF 5
ENDMDL
MODEL 3
REMARK VINA RESULT:      -7.6      1.004      1.566
REMARK  Name = 
REMARK  6 active torsions:
REMARK  status: ('A' for Active; 'I' for Inactive)
REMARK    1  A    between atoms: C_1  and  O_2
REMARK    2  A    between atoms: O_2  and  C_3
REMARK    3  A    between atoms: C_7  and  C_8
REMARK    4  A    between atoms: C_8  and  N_9
REMARK    5  A    between atoms: N_12  and  C_13
REMARK    6  A    between atoms: C_16  and  C_17
REMARK                            x       y       z     vdW  Elec       q    Type
REMARK                         _______ _______ _______ _____ _____    ______ ____
ROOT
ATOM      1  N   UNL     1       5.463   4.547  16.378  0.00  0.00    +0.000 N 
ATOM      2  C   UNL     1       5.000   5.482  17.268  0.00  0.00    +0.000 C 
ATOM      3  O   UNL     1       5.713   6.401  17.661  0.00  0.00    +0.000 OA
ATOM      4  N   UNL     1       3.709   5.230  17.671  0.00  0.00    +0.000 N 
ATOM      5  H   UNL     1       4.788   4.132  15.755  0.00  0.00    +0.000 HD
ATOM      6  H   UNL     1       3.351   4.297  17.506  0.00  0.00    +0.000 HD
ENDROOT
BRANCH   4   7
ATOM      7  C   UNL     1       2.976   6.030  18.577  0.00  0.00    +0.000 A 
ATOM      8  C   UNL     1       2.667   7.365  18.324  0.00  0.00    +0.000 A 
ATOM      9  C   UNL     1       1.978   8.129  19.268  0.00  0.00    +0.000 A 
ATOM     10  C   UNL     1       1.564   7.570  20.483  0.00  0.00    +0.000 A 
ATOM     11  C   UNL     1       1.842   6.221  20.730  0.00  0.00    +0.000 A 
ATOM     12  C   UNL     1       2.537   5.467  19.781  0.00  0.00    +0.000 A 
ATOM     13  F   UNL     1       2.811   4.180  20.051  0.00  0.00    +0.000 F 
BRANCH  10  14
ATOM     14  C   UNL     1       0.843   8.379  21.447  0.00  0.00    +0.000 A 
ATOM     15  C   UNL     1      -0.540   8.590  21.637  0.00  0.00    +0.000 A 
ATOM     16  N   UNL     1      -0.804   9.438  22.634  0.00  0.00    +0.000 NA
ATOM     17  N   UNL     1       0.413   9.773  23.092  0.00  0.00    +0.000 N 
ATOM     18  C   UNL     1       1.432   9.164  22.419  0.00  0.00    +0.000 A 
ATOM     19  H   UNL     1       0.475  10.427  23.865  0.00  0.00    +0.000 HD
ENDBRANCH  10  14
ENDBRANCH   4   7
BRANCH   1  20
ATOM     20  C   UNL     1       6.815   4.690  15.879  0.00  0.00    +0.000 C 
BRANCH  20  25
ATOM     21  C   UNL     1       6.064   3.440  12.364  0.00  0.00    +0.000 A 
ATOM     22  C   UNL     1       6.952   4.218  11.616  0.00  0.00    +0.000 A 
ATOM     23  C   UNL     1       7.789   5.143  12.240  0.00  0.00    +0.000 A 
ATOM     24  C   UNL     1       7.746   5.288  13.624  0.00  0.00    +0.000 A 
ATOM     25  C   UNL     1       6.869   4.508  14.390  0.00  0.00    +0.000 A 
ATOM     26  C   UNL     1       6.018   3.595  13.749  0.00  0.00    +0.000 A 
BRANCH  21  28
ATOM     27  C   UNL     1       4.076   3.062  11.116  0.00  0.00    +0.000 C 
ATOM     28  O   UNL     1       5.307   2.570  11.629  0.00  0.00    +0.000 OA
ENDBRANCH  21  28
ENDBRANCH  20  25
ENDBRANCH   1  20
TORSDOF 5
ENDMDL
MODEL 4
REMARK VINA RESULT:      -7.6      2.838      3.829
REMARK  Name = 
REMARK  6 active torsions:
REMARK  status: ('A' for Active; 'I' for Inactive)
REMARK    1  A    between atoms: C_1  and  O_2
REMARK    2  A    between atoms: O_2  and  C_3
REMARK    3  A    between atoms: C_7  and  C_8
REMARK    4  A    between atoms: C_8  and  N_9
REMARK    5  A    between atoms: N_12  and  C_13
REMARK    6  A    between atoms: C_16  and  C_17
REMARK                            x       y       z     vdW  Elec       q    Type
REMARK                         _______ _______ _______ _____ _____    ______ ____
ROOT
ATOM      1  N   UNL     1       3.988   5.253  19.591  0.00  0.00    +0.000 N 
ATOM      2  C   UNL     1       2.916   6.026  19.224  0.00  0.00    +0.000 C 
ATOM      3  O   UNL     1       2.176   5.699  18.301  0.00  0.00    +0.000 OA
ATOM      4  N   UNL     1       2.823   7.180  19.967  0.00  0.00    +0.000 N 
ATOM      5  H   UNL     1       4.263   5.280  20.560  0.00  0.00    +0.000 HD
ATOM      6  H   UNL     1       3.649   7.465  20.479  0.00  0.00    +0.000 HD
ENDROOT
BRANCH   4   7
ATOM      7  C   UNL     1       1.815   8.160  19.811  0.00  0.00    +0.000 A 
ATOM      8  C   UNL     1       1.627   8.866  18.625  0.00  0.00    +0.000 A 
ATOM      9  C   UNL     1       0.647   9.856  18.532  0.00  0.00    +0.000 A 
ATOM     10  C   UNL     1      -0.184  10.152  19.619  0.00  0.00    +0.000 A 
ATOM     11  C   UNL     1      -0.022   9.424  20.803  0.00  0.00    +0.000 A 
ATOM     12  C   UNL     1       0.966   8.440  20.889  0.00  0.00    +0.000 A 
ATOM     13  F   UNL     1       1.117   7.770  22.043  0.00  0.00    +0.000 F 
BRANCH  10  14
ATOM     14  C   UNL     1      -1.201  11.179  19.500  0.00  0.00    +0.000 A 
ATOM     15  C   UNL     1      -1.456  12.330  20.276  0.00  0.00    +0.000 A 
ATOM     16  N   UNL     1      -2.517  13.020  19.848  0.00  0.00    +0.000 NA
ATOM     17  N   UNL     1      -2.945  12.312  18.790  0.00  0.00    +0.000 N 
ATOM     18  C   UNL     1      -2.190  11.204  18.537  0.00  0.00    +0.000 A 
ATOM     19  H   UNL     1      -3.763  12.641  18.288  0.00  0.00    +0.000 HD
ENDBRANCH  10  14
ENDBRANCH   4   7
BRANCH   1  20
ATOM     20  C   UNL     1       4.208   4.011  18.881  0.00  0.00    +0.000 C 
BRANCH  20  25
ATOM     21  C   UNL     1       5.604   4.269  15.349  0.00  0.00    +0.000 A 
ATOM     22  C   UNL     1       6.936   4.596  15.620  0.00  0.00    +0.000 A 
ATOM     23  C   UNL     1       7.383   4.734  16.933  0.00  0.00    +0.000 A 
ATOM     24  C   UNL     1       6.497   4.536  17.988  0.00  0.00    +0.000 A 
ATOM     25  C   UNL     1       5.161   4.198  17.735  0.00  0.00    +0.000 A 
ATOM     26  C   UNL     1       4.718   4.081  16.410  0.00  0.00    +0.000 A 
BRANCH  21  28
ATOM     27  C   UNL     1       6.355   3.780  13.147  0.00  0.00    +0.000 C 
ATOM     28  O   UNL     1       5.299   4.159  14.021  0.00  0.00    +0.000 OA
ENDBRANCH  21  28
ENDBRANCH  20  25
ENDBRANCH   1  20
TORSDOF 5
ENDMDL
MODEL 5
REMARK VINA RESULT:      -7.4      3.046      4.500
REMARK  Name = 
REMARK  6 active torsions:
REMARK  status: ('A' for Active; 'I' for Inactive)
REMARK    1  A    between atoms: C_1  and  O_2
REMARK    2  A    between atoms: O_2  and  C_3
REMARK    3  A    between atoms: C_7  and  C_8
REMARK    4  A    between atoms: C_8  and  N_9
REMARK    5  A    between atoms: N_12  and  C_13
REMARK    6  A    between atoms: C_16  and  C_17
REMARK                            x       y       z     vdW  Elec       q    Type
REMARK                         _______ _______ _______ _____ _____    ______ ____
ROOT
ATOM      1  N   UNL     1       3.963   5.360  19.537  0.00  0.00    +0.000 N 
ATOM      2  C   UNL     1       2.912   6.143  19.133  0.00  0.00    +0.000 C 
ATOM      3  O   UNL     1       2.261   5.873  18.129  0.00  0.00    +0.000 OA
ATOM      4  N   UNL     1       2.732   7.239  19.945  0.00  0.00    +0.000 N 
ATOM      5  H   UNL     1       4.153   5.321  20.527  0.00  0.00    +0.000 HD
ATOM      6  H   UNL     1       3.505   7.498  20.545  0.00  0.00    +0.000 HD
ENDROOT
BRANCH   4   7
ATOM      7  C   UNL     1       1.722   8.214  19.771  0.00  0.00    +0.000 A 
ATOM      8  C   UNL     1       1.521   8.884  18.566  0.00  0.00    +0.000 A 
ATOM      9  C   UNL     1       0.539   9.871  18.454  0.00  0.00    +0.000 A 
ATOM     10  C   UNL     1      -0.280  10.199  19.541  0.00  0.00    +0.000 A 
ATOM     11  C   UNL     1      -0.106   9.506  20.744  0.00  0.00    +0.000 A 
ATOM     12  C   UNL     1       0.884   8.525  20.848  0.00  0.00    +0.000 A 
ATOM     13  F   UNL     1       1.047   7.890  22.021  0.00  0.00    +0.000 F 
BRANCH  10  14
ATOM     14  C   UNL     1      -1.299  11.222  19.402  0.00  0.00    +0.000 A 
ATOM     15  C   UNL     1      -2.554  11.203  18.755  0.00  0.00    +0.000 A 
ATOM     16  N   UNL     1      -3.195  12.372  18.834  0.00  0.00    +0.000 NA
ATOM     17  N   UNL     1      -2.352  13.146  19.537  0.00  0.00    +0.000 N 
ATOM     18  C   UNL     1      -1.205  12.504  19.904  0.00  0.00    +0.000 A 
ATOM     19  H   UNL     1      -2.622  14.106  19.726  0.00  0.00    +0.000 HD
ENDBRANCH  10  14
ENDBRANCH   4   7
BRANCH   1  20
ATOM     20  C   UNL     1       4.268   4.175  18.764  0.00  0.00    +0.000 C 
BRANCH  20  25
ATOM     21  C   UNL     1       6.911   5.851  16.598  0.00  0.00    +0.000 A 
ATOM     22  C   UNL     1       6.857   5.049  15.454  0.00  0.00    +0.000 A 
ATOM     23  C   UNL     1       5.974   3.973  15.380  0.00  0.00    +0.000 A 
ATOM     24  C   UNL     1       5.131   3.697  16.453  0.00  0.00    +0.000 A 
ATOM     25  C   UNL     1       5.165   4.497  17.604  0.00  0.00    +0.000 A 
ATOM     26  C   UNL     1       6.072   5.564  17.674  0.00  0.00    +0.000 A 
BRANCH  21  28
ATOM     27  C   UNL     1       7.703   7.893  17.522  0.00  0.00    +0.000 C 
ATOM     28  O   UNL     1       7.816   6.875  16.537  0.00  0.00    +0.000 OA
ENDBRANCH  21  28
ENDBRANCH  20  25
ENDBRANCH   1  20
TORSDOF 5
ENDMDL
MODEL 6
REMARK VINA RESULT:      -7.3      7.182      8.661
REMARK  Name = 
REMARK  6 active torsions:
REMARK  status: ('A' for Active; 'I' for Inactive)
REMARK    1  A    between atoms: C_1  and  O_2
REMARK    2  A    between atoms: O_2  and  C_3
REMARK    3  A    between atoms: C_7  and  C_8
REMARK    4  A    between atoms: C_8  and  N_9
REMARK    5  A    between atoms: N_12  and  C_13
REMARK    6  A    between atoms: C_16  and  C_17
REMARK                            x       y       z     vdW  Elec       q    Type
REMARK                         _______ _______ _______ _____ _____    ______ ____
ROOT
ATOM      1  N   UNL     1       7.966   6.896  18.540  0.00  0.00    +0.000 N 
ATOM      2  C   UNL     1       8.220   8.205  18.219  0.00  0.00    +0.000 C 
ATOM      3  O   UNL     1       7.889   8.675  17.135  0.00  0.00    +0.000 OA
ATOM      4  N   UNL     1       8.904   8.866  19.213  0.00  0.00    +0.000 N 
ATOM      5  H   UNL     1       7.817   6.683  19.514  0.00  0.00    +0.000 HD
ATOM      6  H   UNL     1       9.367   8.295  19.910  0.00  0.00    +0.000 HD
ENDROOT
BRANCH   4   7
ATOM      7  C   UNL     1       9.294  10.224  19.158  0.00  0.00    +0.000 A 
ATOM      8  C   UNL     1       9.593  10.874  17.962  0.00  0.00    +0.000 A 
ATOM      9  C   UNL     1      10.017  12.205  17.961  0.00  0.00    +0.000 A 
ATOM     10  C   UNL     1      10.135  12.925  19.155  0.00  0.00    +0.000 A 
ATOM     11  C   UNL     1       9.805  12.288  20.357  0.00  0.00    +0.000 A 
ATOM     12  C   UNL     1       9.388  10.955  20.349  0.00  0.00    +0.000 A 
ATOM     13  F   UNL     1       9.098  10.358  21.517  0.00  0.00    +0.000 F 
BRANCH  10  14
ATOM     14  C   UNL     1      10.570  14.308  19.131  0.00  0.00    +0.000 A 
ATOM     15  C   UNL     1      11.743  14.924  19.621  0.00  0.00    +0.000 A 
ATOM     16  N   UNL     1      11.758  16.244  19.421  0.00  0.00    +0.000 NA
ATOM     17  N   UNL     1      10.592  16.480  18.798  0.00  0.00    +0.000 N 
ATOM     18  C   UNL     1       9.846  15.356  18.597  0.00  0.00    +0.000 A 
ATOM     19  H   UNL     1      10.367  17.436  18.541  0.00  0.00    +0.000 HD
ENDBRANCH  10  14
ENDBRANCH   4   7
BRANCH   1  20
ATOM     20  C   UNL     1       7.258   6.082  17.575  0.00  0.00    +0.000 C 
BRANCH  20  25
ATOM     21  C   UNL     1       4.081   4.755  19.198  0.00  0.00    +0.000 A 
ATOM     22  C   UNL     1       3.136   5.649  18.689  0.00  0.00    +0.000 A 
ATOM     23  C   UNL     1       3.518   6.676  17.827  0.00  0.00    +0.000 A 
ATOM     24  C   UNL     1       4.855   6.809  17.462  0.00  0.00    +0.000 A 
ATOM     25  C   UNL     1       5.815   5.915  17.956  0.00  0.00    +0.000 A 
ATOM     26  C   UNL     1       5.421   4.898  18.838  0.00  0.00    +0.000 A 
BRANCH  21  28
ATOM     27  C   UNL     1       4.173   2.506  19.964  0.00  0.00    +0.000 C 
ATOM     28  O   UNL     1       3.572   3.793  20.026  0.00  0.00    +0.000 OA
ENDBRANCH  21  28
ENDBRANCH  20  25
ENDBRANCH   1  20
TORSDOF 5
ENDMDL
MODEL 7
REMARK VINA RESULT:      -7.3      2.457      3.344
REMARK  Name = 
REMARK  6 active torsions:
REMARK  status: ('A' for Active; 'I' for Inactive)
REMARK    1  A    between atoms: C_1  and  O_2
REMARK    2  A    between atoms: O_2  and  C_3
REMARK    3  A    between atoms: C_7  and  C_8
REMARK    4  A    between atoms: C_8  and  N_9
REMARK    5  A    between atoms: N_12  and  C_13
REMARK    6  A    between atoms: C_16  and  C_17
REMARK                            x       y       z     vdW  Elec       q    Type
REMARK                         _______ _______ _______ _____ _____    ______ ____
ROOT
ATOM      1  N   UNL     1       4.077   5.126  19.091  0.00  0.00    +0.000 N 
ATOM      2  C   UNL     1       2.981   5.923  18.883  0.00  0.00    +0.000 C 
ATOM      3  O   UNL     1       2.160   5.669  18.007  0.00  0.00    +0.000 OA
ATOM      4  N   UNL     1       2.959   7.015  19.720  0.00  0.00    +0.000 N 
ATOM      5  H   UNL     1       4.437   5.077  20.032  0.00  0.00    +0.000 HD
ATOM      6  H   UNL     1       3.829   7.260  20.177  0.00  0.00    +0.000 HD
ENDROOT
BRANCH   4   7
ATOM      7  C   UNL     1       1.946   8.002  19.733  0.00  0.00    +0.000 A 
ATOM      8  C   UNL     1       1.086   8.184  20.814  0.00  0.00    +0.000 A 
ATOM      9  C   UNL     1       0.072   9.143  20.763  0.00  0.00    +0.000 A 
ATOM     10  C   UNL     1      -0.095   9.957  19.637  0.00  0.00    +0.000 A 
ATOM     11  C   UNL     1       0.786   9.801  18.561  0.00  0.00    +0.000 A 
ATOM     12  C   UNL     1       1.794   8.835  18.618  0.00  0.00    +0.000 A 
ATOM     13  F   UNL     1       2.614   8.690  17.564  0.00  0.00    +0.000 F 
BRANCH  10  14
ATOM     14  C   UNL     1      -1.150  10.951  19.608  0.00  0.00    +0.000 A 
ATOM     15  C   UNL     1      -2.182  11.188  18.672  0.00  0.00    +0.000 A 
ATOM     16  N   UNL     1      -2.949  12.231  18.998  0.00  0.00    +0.000 NA
ATOM     17  N   UNL     1      -2.412  12.668  20.149  0.00  0.00    +0.000 N 
ATOM     18  C   UNL     1      -1.337  11.934  20.560  0.00  0.00    +0.000 A 
ATOM     19  H   UNL     1      -2.829  13.476  20.600  0.00  0.00    +0.000 HD
ENDBRANCH  10  14
ENDBRANCH   4   7
BRANCH   1  20
ATOM     20  C   UNL     1       4.227   3.944  18.269  0.00  0.00    +0.000 C 
BRANCH  20  25
ATOM     21  C   UNL     1       5.742   4.222  14.788  0.00  0.00    +0.000 A 
ATOM     22  C   UNL     1       7.034   4.653  15.101  0.00  0.00    +0.000 A 
ATOM     23  C   UNL     1       7.417   4.854  16.426  0.00  0.00    +0.000 A 
ATOM     24  C   UNL     1       6.506   4.617  17.451  0.00  0.00    +0.000 A 
ATOM     25  C   UNL     1       5.209   4.174  17.156  0.00  0.00    +0.000 A 
ATOM     26  C   UNL     1       4.829   3.995  15.818  0.00  0.00    +0.000 A 
BRANCH  21  28
ATOM     27  C   UNL     1       6.590   3.629  12.648  0.00  0.00    +0.000 C 
ATOM     28  O   UNL     1       5.500   4.059  13.452  0.00  0.00    +0.000 OA
ENDBRANCH  21  28
ENDBRANCH  20  25
ENDBRANCH   1  20
TORSDOF 5
ENDMDL
MODEL 8
REMARK VINA RESULT:      -7.2      3.074      9.907
REMARK  Name = 
REMARK  6 active torsions:
REMARK  status: ('A' for Active; 'I' for Inactive)
REMARK    1  A    between atoms: C_1  and  O_2
REMARK    2  A    between atoms: O_2  and  C_3
REMARK    3  A    between atoms: C_7  and  C_8
REMARK    4  A    between atoms: C_8  and  N_9
REMARK    5  A    between atoms: N_12  and  C_13
REMARK    6  A    between atoms: C_16  and  C_17
REMARK                            x       y       z     vdW  Elec       q    Type
REMARK                         _______ _______ _______ _____ _____    ______ ____
ROOT
ATOM      1  N   UNL     1       2.530   6.746  20.465  0.00  0.00    +0.000 N 
ATOM      2  C   UNL     1       2.761   6.278  19.196  0.00  0.00    +0.000 C 
ATOM      3  O   UNL     1       1.840   5.931  18.463  0.00  0.00    +0.000 OA
ATOM      4  N   UNL     1       4.102   6.214  18.896  0.00  0.00    +0.000 N 
ATOM      5  H   UNL     1       3.185   7.418  20.833  0.00  0.00    +0.000 HD
ATOM      6  H   UNL     1       4.748   6.245  19.675  0.00  0.00    +0.000 HD
ENDROOT
BRANCH   4   7
ATOM      7  C   UNL     1       4.633   5.776  17.661  0.00  0.00    +0.000 A 
ATOM      8  C   UNL     1       4.881   6.643  16.598  0.00  0.00    +0.000 A 
ATOM      9  C   UNL     1       5.364   6.158  15.381  0.00  0.00    +0.000 A 
ATOM     10  C   UNL     1       5.630   4.795  15.203  0.00  0.00    +0.000 A 
ATOM     11  C   UNL     1       5.414   3.924  16.277  0.00  0.00    +0.000 A 
ATOM     12  C   UNL     1       4.924   4.418  17.488  0.00  0.00    +0.000 A 
ATOM     13  F   UNL     1       4.704   3.559  18.497  0.00  0.00    +0.000 F 
BRANCH  10  14
ATOM     14  C   UNL     1       6.138   4.313  13.933  0.00  0.00    +0.000 A 
ATOM     15  C   UNL     1       7.221   4.750  13.137  0.00  0.00    +0.000 A 
ATOM     16  N   UNL     1       7.351   4.048  12.009  0.00  0.00    +0.000 NA
ATOM     17  N   UNL     1       6.351   3.155  12.078  0.00  0.00    +0.000 N 
ATOM     18  C   UNL     1       5.599   3.267  13.210  0.00  0.00    +0.000 A 
ATOM     19  H   UNL     1       6.237   2.497  11.312  0.00  0.00    +0.000 HD
ENDBRANCH  10  14
ENDBRANCH   4   7
BRANCH   1  20
ATOM     20  C   UNL     1       1.157   6.856  20.912  0.00  0.00    +0.000 C 
BRANCH  20  25
ATOM     21  C   UNL     1      -0.413  10.072  22.208  0.00  0.00    +0.000 A 
ATOM     22  C   UNL     1      -0.012  10.973  21.218  0.00  0.00    +0.000 A 
ATOM     23  C   UNL     1       0.762  10.550  20.138  0.00  0.00    +0.000 A 
ATOM     24  C   UNL     1       1.133   9.212  20.039  0.00  0.00    +0.000 A 
ATOM     25  C   UNL     1       0.731   8.291  21.017  0.00  0.00    +0.000 A 
ATOM     26  C   UNL     1      -0.030   8.734  22.108  0.00  0.00    +0.000 A 
BRANCH  21  28
ATOM     27  C   UNL     1      -1.436  12.011  23.126  0.00  0.00    +0.000 C 
ATOM     28  O   UNL     1      -1.172  10.617  23.206  0.00  0.00    +0.000 OA
ENDBRANCH  21  28
ENDBRANCH  20  25
ENDBRANCH   1  20
TORSDOF 5
ENDMDL
MODEL 9
REMARK VINA RESULT:      -7.2      4.372      6.092
REMARK  Name = 
REMARK  6 active torsions:
REMARK  status: ('A' for Active; 'I' for Inactive)
REMARK    1  A    between atoms: C_1  and  O_2
REMARK    2  A    between atoms: O_2  and  C_3
REMARK    3  A    between atoms: C_7  and  C_8
REMARK    4  A    between atoms: C_8  and  N_9
REMARK    5  A    between atoms: N_12  and  C_13
REMARK    6  A    between atoms: C_16  and  C_17
REMARK                            x       y       z     vdW  Elec       q    Type
REMARK                         _______ _______ _______ _____ _____    ______ ____
ROOT
ATOM      1  N   UNL     1       2.324   8.434  17.612  0.00  0.00    +0.000 N 
ATOM      2  C   UNL     1       1.396   9.064  18.402  0.00  0.00    +0.000 C 
ATOM      3  O   UNL     1       1.419   8.957  19.625  0.00  0.00    +0.000 OA
ATOM      4  N   UNL     1       0.463   9.756  17.667  0.00  0.00    +0.000 N 
ATOM      5  H   UNL     1       2.564   8.882  16.741  0.00  0.00    +0.000 HD
ATOM      6  H   UNL     1       0.386   9.521  16.685  0.00  0.00    +0.000 HD
ENDROOT
BRANCH   4   7
ATOM      7  C   UNL     1      -0.605  10.503  18.217  0.00  0.00    +0.000 A 
ATOM      8  C   UNL     1      -0.430  11.412  19.258  0.00  0.00    +0.000 A 
ATOM      9  C   UNL     1      -1.522  12.095  19.798  0.00  0.00    +0.000 A 
ATOM     10  C   UNL     1      -2.814  11.899  19.298  0.00  0.00    +0.000 A 
ATOM     11  C   UNL     1      -2.992  11.012  18.230  0.00  0.00    +0.000 A 
ATOM     12  C   UNL     1      -1.894  10.329  17.701  0.00  0.00    +0.000 A 
ATOM     13  F   UNL     1      -2.094   9.465  16.691  0.00  0.00    +0.000 F 
BRANCH  10  14
ATOM     14  C   UNL     1      -3.933  12.624  19.869  0.00  0.00    +0.000 A 
ATOM     15  C   UNL     1      -3.978  13.684  20.800  0.00  0.00    +0.000 A 
ATOM     16  N   UNL     1      -5.224  14.065  21.093  0.00  0.00    +0.000 NA
ATOM     17  N   UNL     1      -5.985  13.250  20.346  0.00  0.00    +0.000 N 
ATOM     18  C   UNL     1      -5.263  12.372  19.592  0.00  0.00    +0.000 A 
ATOM     19  H   UNL     1      -6.994  13.345  20.403  0.00  0.00    +0.000 HD
ENDBRANCH  10  14
ENDBRANCH   4   7
BRANCH   1  20
ATOM     20  C   UNL     1       3.361   7.661  18.260  0.00  0.00    +0.000 C 
BRANCH  20  25
ATOM     21  C   UNL     1       2.065   4.127  17.696  0.00  0.00    +0.000 A 
ATOM     22  C   UNL     1       3.171   3.541  17.075  0.00  0.00    +0.000 A 
ATOM     23  C   UNL     1       4.329   4.279  16.837  0.00  0.00    +0.000 A 
ATOM     24  C   UNL     1       4.390   5.613  17.229  0.00  0.00    +0.000 A 
ATOM     25  C   UNL     1       3.293   6.214  17.863  0.00  0.00    +0.000 A 
ATOM     26  C   UNL     1       2.127   5.467  18.079  0.00  0.00    +0.000 A 
BRANCH  21  28
ATOM     27  C   UNL     1       1.163   2.223  18.799  0.00  0.00    +0.000 C 
ATOM     28  O   UNL     1       0.998   3.291  17.875  0.00  0.00    +0.000 OA
ENDBRANCH  21  28
ENDBRANCH  20  25
ENDBRANCH   1  20
TORSDOF 5
ENDMDL
