MODEL 1
REMARK VINA RESULT:      -8.3      0.000      0.000
REMARK  Name = 
REMARK  4 active torsions:
REMARK  status: ('A' for Active; 'I' for Inactive)
REMARK    1  A    between atoms: C_1  and  C_2
REMARK    2  A    between atoms: C_4  and  C_5
REMARK    3  A    between atoms: C_8  and  N_9
REMARK    4  A    between atoms: C_12  and  C_13
REMARK                            x       y       z     vdW  Elec       q    Type
REMARK                         _______ _______ _______ _____ _____    ______ ____
ROOT
ATOM      1  N   UNL     1       5.238   4.709  17.901  0.00  0.00    +0.000 N 
ATOM      2  N   UNL     1       6.522   4.557  18.288  0.00  0.00    +0.000 NA
ATOM      3  N   UNL     1       7.213   4.415  17.164  0.00  0.00    +0.000 NA
ATOM      4  C   UNL     1       6.310   4.477  16.130  0.00  0.00    +0.000 A 
ATOM      5  N   UNL     1       5.043   4.605  16.566  0.00  0.00    +0.000 NA
ENDROOT
BRANCH   1  11
ATOM      6  C   UNL     1       1.856   7.950  19.545  0.00  0.00    +0.000 C 
ATOM      7  C   UNL     1       2.515   6.601  19.609  0.00  0.00    +0.000 A 
ATOM      8  C   UNL     1       2.019   5.606  20.462  0.00  0.00    +0.000 A 
ATOM      9  C   UNL     1       2.597   4.333  20.486  0.00  0.00    +0.000 A 
ATOM     10  C   UNL     1       3.675   4.043  19.643  0.00  0.00    +0.000 A 
ATOM     11  C   UNL     1       4.181   5.033  18.786  0.00  0.00    +0.000 A 
ATOM     12  C   UNL     1       3.611   6.315  18.780  0.00  0.00    +0.000 A 
BRANCH   9  13
ATOM     13  C   UNL     1       2.081   3.323  21.362  0.00  0.00    +0.000 C 
ATOM     14  N   UNL     1       1.667   2.501  22.067  0.00  0.00    +0.000 NA
ENDBRANCH   9  13
ENDBRANCH   1  11
BRANCH   4  15
ATOM     15  C   UNL     1       6.692   4.471  14.717  0.00  0.00    +0.000 A 
ATOM     16  C   UNL     1       6.025   3.644  13.811  0.00  0.00    +0.000 A 
ATOM     17  C   UNL     1       6.367   3.705  12.462  0.00  0.00    +0.000 A 
ATOM     18  C   UNL     1       7.361   4.585  12.054  0.00  0.00    +0.000 A 
ATOM     19  C   UNL     1       7.979   5.366  13.016  0.00  0.00    +0.000 A 
ATOM     20  N   UNL     1       7.669   5.330  14.331  0.00  0.00    +0.000 NA
ENDBRANCH   4  15
TORSDOF 3
ENDMDL
MODEL 2
REMARK VINA RESULT:      -8.0      1.381      2.407
REMARK  Name = 
REMARK  4 active torsions:
REMARK  status: ('A' for Active; 'I' for Inactive)
REMARK    1  A    between atoms: C_1  and  C_2
REMARK    2  A    between atoms: C_4  and  C_5
REMARK    3  A    between atoms: C_8  and  N_9
REMARK    4  A    between atoms: C_12  and  C_13
REMARK                            x       y       z     vdW  Elec       q    Type
REMARK                         _______ _______ _______ _____ _____    ______ ____
ROOT
ATOM      1  N   UNL     1       5.097   4.542  18.042  0.00  0.00    +0.000 N 
ATOM      2  N   UNL     1       6.387   4.604  18.437  0.00  0.00    +0.000 NA
ATOM      3  N   UNL     1       7.099   4.531  17.320  0.00  0.00    +0.000 NA
ATOM      4  C   UNL     1       6.205   4.419  16.282  0.00  0.00    +0.000 A 
ATOM      5  N   UNL     1       4.931   4.364  16.711  0.00  0.00    +0.000 NA
ENDROOT
BRANCH   1  11
ATOM      6  C   UNL     1       1.929   2.734  21.409  0.00  0.00    +0.000 C 
ATOM      7  C   UNL     1       2.435   3.870  20.566  0.00  0.00    +0.000 A 
ATOM      8  C   UNL     1       1.902   5.158  20.714  0.00  0.00    +0.000 A 
ATOM      9  C   UNL     1       2.406   6.228  19.968  0.00  0.00    +0.000 A 
ATOM     10  C   UNL     1       3.459   6.017  19.072  0.00  0.00    +0.000 A 
ATOM     11  C   UNL     1       3.997   4.730  18.913  0.00  0.00    +0.000 A 
ATOM     12  C   UNL     1       3.476   3.656  19.649  0.00  0.00    +0.000 A 
BRANCH   9  13
ATOM     13  C   UNL     1       1.854   7.541  20.129  0.00  0.00    +0.000 C 
ATOM     14  N   UNL     1       1.406   8.602  20.265  0.00  0.00    +0.000 NA
ENDBRANCH   9  13
ENDBRANCH   1  11
BRANCH   4  15
ATOM     15  C   UNL     1       6.594   4.423  14.871  0.00  0.00    +0.000 A 
ATOM     16  C   UNL     1       5.951   3.582  13.961  0.00  0.00    +0.000 A 
ATOM     17  C   UNL     1       6.297   3.652  12.613  0.00  0.00    +0.000 A 
ATOM     18  C   UNL     1       7.273   4.555  12.211  0.00  0.00    +0.000 A 
ATOM     19  C   UNL     1       7.868   5.350  13.177  0.00  0.00    +0.000 A 
ATOM     20  N   UNL     1       7.553   5.304  14.491  0.00  0.00    +0.000 NA
ENDBRANCH   4  15
TORSDOF 3
ENDMDL
MODEL 3
REMARK VINA RESULT:      -7.8      1.727      2.497
REMARK  Name = 
REMARK  4 active torsions:
REMARK  status: ('A' for Active; 'I' for Inactive)
REMARK    1  A    between atoms: C_1  and  C_2
REMARK    2  A    between atoms: C_4  and  C_5
REMARK    3  A    between atoms: C_8  and  N_9
REMARK    4  A    between atoms: C_12  and  C_13
REMARK                            x       y       z     vdW  Elec       q    Type
REMARK                         _______ _______ _______ _____ _____    ______ ____
ROOT
ATOM      1  N   UNL     1       4.605   5.607  17.547  0.00  0.00    +0.000 N 
ATOM      2  N   UNL     1       5.385   6.707  17.494  0.00  0.00    +0.000 NA
ATOM      3  N   UNL     1       6.126   6.560  16.404  0.00  0.00    +0.000 NA
ATOM      4  C   UNL     1       5.770   5.360  15.838  0.00  0.00    +0.000 A 
ATOM      5  N   UNL     1       4.850   4.704  16.569  0.00  0.00    +0.000 NA
ENDROOT
BRANCH   1  11
ATOM      6  C   UNL     1       1.602   2.593  20.105  0.00  0.00    +0.000 C 
ATOM      7  C   UNL     1       2.077   3.973  19.750  0.00  0.00    +0.000 A 
ATOM      8  C   UNL     1       1.574   5.094  20.424  0.00  0.00    +0.000 A 
ATOM      9  C   UNL     1       2.052   6.376  20.132  0.00  0.00    +0.000 A 
ATOM     10  C   UNL     1       3.050   6.543  19.167  0.00  0.00    +0.000 A 
ATOM     11  C   UNL     1       3.558   5.427  18.484  0.00  0.00    +0.000 A 
ATOM     12  C   UNL     1       3.062   4.146  18.765  0.00  0.00    +0.000 A 
BRANCH   9  13
ATOM     13  C   UNL     1       1.531   7.515  20.829  0.00  0.00    +0.000 C 
ATOM     14  N   UNL     1       1.106   8.439  21.387  0.00  0.00    +0.000 NA
ENDBRANCH   9  13
ENDBRANCH   1  11
BRANCH   4  15
ATOM     15  C   UNL     1       6.284   4.882  14.553  0.00  0.00    +0.000 A 
ATOM     16  C   UNL     1       5.592   3.905  13.836  0.00  0.00    +0.000 A 
ATOM     17  C   UNL     1       6.071   3.515  12.587  0.00  0.00    +0.000 A 
ATOM     18  C   UNL     1       7.225   4.106  12.090  0.00  0.00    +0.000 A 
ATOM     19  C   UNL     1       7.858   5.063  12.866  0.00  0.00    +0.000 A 
ATOM     20  N   UNL     1       7.416   5.462  14.081  0.00  0.00    +0.000 NA
ENDBRANCH   4  15
TORSDOF 3
ENDMDL
MODEL 4
REMARK VINA RESULT:      -7.6      0.677      1.087
REMARK  Name = 
REMARK  4 active torsions:
REMARK  status: ('A' for Active; 'I' for Inactive)
REMARK    1  A    between atoms: C_1  and  C_2
REMARK    2  A    between atoms: C_4  and  C_5
REMARK    3  A    between atoms: C_8  and  N_9
REMARK    4  A    between atoms: C_12  and  C_13
REMARK                            x       y       z     vdW  Elec       q    Type
REMARK                         _______ _______ _______ _____ _____    ______ ____
ROOT
ATOM      1  N   UNL     1       5.137   4.665  17.843  0.00  0.00    +0.000 N 
ATOM      2  N   UNL     1       6.436   4.524  18.183  0.00  0.00    +0.000 NA
ATOM      3  N   UNL     1       7.085   4.374  17.035  0.00  0.00    +0.000 NA
ATOM      4  C   UNL     1       6.144   4.420  16.035  0.00  0.00    +0.000 A 
ATOM      5  N   UNL     1       4.893   4.545  16.518  0.00  0.00    +0.000 NA
ENDROOT
BRANCH   1  11
ATOM      6  C   UNL     1       1.860   7.935  19.635  0.00  0.00    +0.000 C 
ATOM      7  C   UNL     1       2.498   6.575  19.659  0.00  0.00    +0.000 A 
ATOM      8  C   UNL     1       2.011   5.575  20.512  0.00  0.00    +0.000 A 
ATOM      9  C   UNL     1       2.569   4.293  20.500  0.00  0.00    +0.000 A 
ATOM     10  C   UNL     1       3.615   3.998  19.620  0.00  0.00    +0.000 A 
ATOM     11  C   UNL     1       4.113   4.993  18.764  0.00  0.00    +0.000 A 
ATOM     12  C   UNL     1       3.564   6.284  18.794  0.00  0.00    +0.000 A 
BRANCH   9  13
ATOM     13  C   UNL     1       2.062   3.278  21.376  0.00  0.00    +0.000 C 
ATOM     14  N   UNL     1       1.650   2.461  22.089  0.00  0.00    +0.000 NA
ENDBRANCH   9  13
ENDBRANCH   1  11
BRANCH   4  15
ATOM     15  C   UNL     1       6.472   4.401  14.609  0.00  0.00    +0.000 A 
ATOM     16  C   UNL     1       7.482   5.224  14.107  0.00  0.00    +0.000 A 
ATOM     17  C   UNL     1       7.815   5.140  12.757  0.00  0.00    +0.000 A 
ATOM     18  C   UNL     1       7.135   4.241  11.946  0.00  0.00    +0.000 A 
ATOM     19  C   UNL     1       6.141   3.465  12.519  0.00  0.00    +0.000 A 
ATOM     20  N   UNL     1       5.795   3.524  13.825  0.00  0.00    +0.000 NA
ENDBRANCH   4  15
TORSDOF 3
ENDMDL
MODEL 5
REMARK VINA RESULT:      -7.5      1.521      2.680
REMARK  Name = 
REMARK  4 active torsions:
REMARK  status: ('A' for Active; 'I' for Inactive)
REMARK    1  A    between atoms: C_1  and  C_2
REMARK    2  A    between atoms: C_4  and  C_5
REMARK    3  A    between atoms: C_8  and  N_9
REMARK    4  A    between atoms: C_12  and  C_13
REMARK                            x       y       z     vdW  Elec       q    Type
REMARK                         _______ _______ _______ _____ _____    ______ ____
ROOT
ATOM      1  N   UNL     1       5.043   4.989  17.474  0.00  0.00    +0.000 N 
ATOM      2  N   UNL     1       6.257   4.634  17.947  0.00  0.00    +0.000 NA
ATOM      3  N   UNL     1       6.998   4.400  16.872  0.00  0.00    +0.000 NA
ATOM      4  C   UNL     1       6.194   4.615  15.778  0.00  0.00    +0.000 A 
ATOM      5  N   UNL     1       4.933   4.933  16.127  0.00  0.00    +0.000 NA
ENDROOT
BRANCH   1  11
ATOM      6  C   UNL     1       2.074   4.421  21.412  0.00  0.00    +0.000 C 
ATOM      7  C   UNL     1       2.522   5.210  20.214  0.00  0.00    +0.000 A 
ATOM      8  C   UNL     1       1.984   6.477  19.954  0.00  0.00    +0.000 A 
ATOM      9  C   UNL     1       2.436   7.236  18.870  0.00  0.00    +0.000 A 
ATOM     10  C   UNL     1       3.444   6.732  18.041  0.00  0.00    +0.000 A 
ATOM     11  C   UNL     1       3.988   5.462  18.290  0.00  0.00    +0.000 A 
ATOM     12  C   UNL     1       3.517   4.697  19.367  0.00  0.00    +0.000 A 
BRANCH   9  13
ATOM     13  C   UNL     1       1.879   8.532  18.614  0.00  0.00    +0.000 C 
ATOM     14  N   UNL     1       1.434   9.583  18.411  0.00  0.00    +0.000 NA
ENDBRANCH   9  13
ENDBRANCH   1  11
BRANCH   4  15
ATOM     15  C   UNL     1       6.673   4.567  14.396  0.00  0.00    +0.000 A 
ATOM     16  C   UNL     1       6.086   3.695  13.477  0.00  0.00    +0.000 A 
ATOM     17  C   UNL     1       6.519   3.716  12.153  0.00  0.00    +0.000 A 
ATOM     18  C   UNL     1       7.523   4.601  11.783  0.00  0.00    +0.000 A 
ATOM     19  C   UNL     1       8.059   5.428  12.756  0.00  0.00    +0.000 A 
ATOM     20  N   UNL     1       7.659   5.432  14.047  0.00  0.00    +0.000 NA
ENDBRANCH   4  15
TORSDOF 3
ENDMDL
MODEL 6
REMARK VINA RESULT:      -7.5      1.492      1.559
REMARK  Name = 
REMARK  4 active torsions:
REMARK  status: ('A' for Active; 'I' for Inactive)
REMARK    1  A    between atoms: C_1  and  C_2
REMARK    2  A    between atoms: C_4  and  C_5
REMARK    3  A    between atoms: C_8  and  N_9
REMARK    4  A    between atoms: C_12  and  C_13
REMARK                            x       y       z     vdW  Elec       q    Type
REMARK                         _______ _______ _______ _____ _____    ______ ____
ROOT
ATOM      1  N   UNL     1       4.611   5.609  17.308  0.00  0.00    +0.000 N 
ATOM      2  N   UNL     1       5.383   6.716  17.275  0.00  0.00    +0.000 NA
ATOM      3  N   UNL     1       6.157   6.572  16.206  0.00  0.00    +0.000 NA
ATOM      4  C   UNL     1       5.827   5.367  15.634  0.00  0.00    +0.000 A 
ATOM      5  N   UNL     1       4.891   4.706  16.341  0.00  0.00    +0.000 NA
ENDROOT
BRANCH   1  11
ATOM      6  C   UNL     1       1.678   7.369  20.906  0.00  0.00    +0.000 C 
ATOM      7  C   UNL     1       2.087   6.263  19.975  0.00  0.00    +0.000 A 
ATOM      8  C   UNL     1       1.342   5.078  19.908  0.00  0.00    +0.000 A 
ATOM      9  C   UNL     1       1.690   4.067  19.006  0.00  0.00    +0.000 A 
ATOM     10  C   UNL     1       2.783   4.243  18.153  0.00  0.00    +0.000 A 
ATOM     11  C   UNL     1       3.538   5.424  18.214  0.00  0.00    +0.000 A 
ATOM     12  C   UNL     1       3.198   6.427  19.135  0.00  0.00    +0.000 A 
BRANCH   9  13
ATOM     13  C   UNL     1       0.920   2.859  18.945  0.00  0.00    +0.000 C 
ATOM     14  N   UNL     1       0.292   1.885  18.898  0.00  0.00    +0.000 NA
ENDBRANCH   9  13
ENDBRANCH   1  11
BRANCH   4  15
ATOM     15  C   UNL     1       6.383   4.890  14.367  0.00  0.00    +0.000 A 
ATOM     16  C   UNL     1       5.728   3.893  13.641  0.00  0.00    +0.000 A 
ATOM     17  C   UNL     1       6.246   3.503  12.408  0.00  0.00    +0.000 A 
ATOM     18  C   UNL     1       7.400   4.114  11.934  0.00  0.00    +0.000 A 
ATOM     19  C   UNL     1       7.994   5.089  12.718  0.00  0.00    +0.000 A 
ATOM     20  N   UNL     1       7.514   5.489  13.918  0.00  0.00    +0.000 NA
ENDBRANCH   4  15
TORSDOF 3
ENDMDL
MODEL 7
REMARK VINA RESULT:      -7.4      3.605      8.141
REMARK  Name = 
REMARK  4 active torsions:
REMARK  status: ('A' for Active; 'I' for Inactive)
REMARK    1  A    between atoms: C_1  and  C_2
REMARK    2  A    between atoms: C_4  and  C_5
REMARK    3  A    between atoms: C_8  and  N_9
REMARK    4  A    between atoms: C_12  and  C_13
REMARK                            x       y       z     vdW  Elec       q    Type
REMARK                         _______ _______ _______ _____ _____    ______ ____
ROOT
ATOM      1  N   UNL     1       2.482   7.528  18.153  0.00  0.00    +0.000 N 
ATOM      2  N   UNL     1       2.498   8.689  17.465  0.00  0.00    +0.000 NA
ATOM      3  N   UNL     1       1.823   9.551  18.215  0.00  0.00    +0.000 NA
ATOM      4  C   UNL     1       1.412   8.869  19.335  0.00  0.00    +0.000 A 
ATOM      5  N   UNL     1       1.764   7.570  19.299  0.00  0.00    +0.000 NA
ENDROOT
BRANCH   1  11
ATOM      6  C   UNL     1       2.769   2.599  17.635  0.00  0.00    +0.000 C 
ATOM      7  C   UNL     1       3.379   3.966  17.507  0.00  0.00    +0.000 A 
ATOM      8  C   UNL     1       4.633   4.131  16.903  0.00  0.00    +0.000 A 
ATOM      9  C   UNL     1       5.181   5.407  16.736  0.00  0.00    +0.000 A 
ATOM     10  C   UNL     1       4.469   6.532  17.163  0.00  0.00    +0.000 A 
ATOM     11  C   UNL     1       3.214   6.377  17.773  0.00  0.00    +0.000 A 
ATOM     12  C   UNL     1       2.677   5.094  17.957  0.00  0.00    +0.000 A 
BRANCH   9  13
ATOM     13  C   UNL     1       6.464   5.565  16.115  0.00  0.00    +0.000 C 
ATOM     14  N   UNL     1       7.504   5.689  15.618  0.00  0.00    +0.000 NA
ENDBRANCH   9  13
ENDBRANCH   1  11
BRANCH   4  15
ATOM     15  C   UNL     1       0.728   9.499  20.465  0.00  0.00    +0.000 A 
ATOM     16  C   UNL     1       0.266   8.724  21.531  0.00  0.00    +0.000 A 
ATOM     17  C   UNL     1      -0.325   9.358  22.622  0.00  0.00    +0.000 A 
ATOM     18  C   UNL     1      -0.440  10.742  22.621  0.00  0.00    +0.000 A 
ATOM     19  C   UNL     1       0.037  11.438  21.523  0.00  0.00    +0.000 A 
ATOM     20  N   UNL     1       0.616  10.851  20.451  0.00  0.00    +0.000 NA
ENDBRANCH   4  15
TORSDOF 3
ENDMDL
MODEL 8
REMARK VINA RESULT:      -7.4      1.771      2.249
REMARK  Name = 
REMARK  4 active torsions:
REMARK  status: ('A' for Active; 'I' for Inactive)
REMARK    1  A    between atoms: C_1  and  C_2
REMARK    2  A    between atoms: C_4  and  C_5
REMARK    3  A    between atoms: C_8  and  N_9
REMARK    4  A    between atoms: C_12  and  C_13
REMARK                            x       y       z     vdW  Elec       q    Type
REMARK                         _______ _______ _______ _____ _____    ______ ____
ROOT
ATOM      1  N   UNL     1       4.734   4.722  17.450  0.00  0.00    +0.000 N 
ATOM      2  N   UNL     1       4.537   6.018  17.128  0.00  0.00    +0.000 NA
ATOM      3  N   UNL     1       5.128   6.180  15.951  0.00  0.00    +0.000 NA
ATOM      4  C   UNL     1       5.674   4.967  15.608  0.00  0.00    +0.000 A 
ATOM      5  N   UNL     1       5.492   4.037  16.563  0.00  0.00    +0.000 NA
ENDROOT
BRANCH   1  11
ATOM      6  C   UNL     1       0.754   3.879  20.295  0.00  0.00    +0.000 C 
ATOM      7  C   UNL     1       2.205   3.658  19.977  0.00  0.00    +0.000 A 
ATOM      8  C   UNL     1       2.962   2.735  20.712  0.00  0.00    +0.000 A 
ATOM      9  C   UNL     1       4.299   2.489  20.387  0.00  0.00    +0.000 A 
ATOM     10  C   UNL     1       4.888   3.160  19.310  0.00  0.00    +0.000 A 
ATOM     11  C   UNL     1       4.140   4.089  18.569  0.00  0.00    +0.000 A 
ATOM     12  C   UNL     1       2.805   4.348  18.912  0.00  0.00    +0.000 A 
BRANCH   9  13
ATOM     13  C   UNL     1       5.064   1.542  21.144  0.00  0.00    +0.000 C 
ATOM     14  N   UNL     1       5.680   0.771  21.753  0.00  0.00    +0.000 NA
ENDBRANCH   9  13
ENDBRANCH   1  11
BRANCH   4  15
ATOM     15  C   UNL     1       6.321   4.702  14.322  0.00  0.00    +0.000 A 
ATOM     16  C   UNL     1       5.787   3.755  13.445  0.00  0.00    +0.000 A 
ATOM     17  C   UNL     1       6.388   3.569  12.203  0.00  0.00    +0.000 A 
ATOM     18  C   UNL     1       7.501   4.329  11.868  0.00  0.00    +0.000 A 
ATOM     19  C   UNL     1       7.974   5.242  12.795  0.00  0.00    +0.000 A 
ATOM     20  N   UNL     1       7.412   5.446  14.008  0.00  0.00    +0.000 NA
ENDBRANCH   4  15
TORSDOF 3
ENDMDL
MODEL 9
REMARK VINA RESULT:      -7.4      1.562      2.645
REMARK  Name = 
REMARK  4 active torsions:
REMARK  status: ('A' for Active; 'I' for Inactive)
REMARK    1  A    between atoms: C_1  and  C_2
REMARK    2  A    between atoms: C_4  and  C_5
REMARK    3  A    between atoms: C_8  and  N_9
REMARK    4  A    between atoms: C_12  and  C_13
REMARK                            x       y       z     vdW  Elec       q    Type
REMARK                         _______ _______ _______ _____ _____    ______ ____
ROOT
ATOM      1  N   UNL     1       4.956   4.436  18.023  0.00  0.00    +0.000 N 
ATOM      2  N   UNL     1       6.259   4.458  18.377  0.00  0.00    +0.000 NA
ATOM      3  N   UNL     1       6.934   4.388  17.236  0.00  0.00    +0.000 NA
ATOM      4  C   UNL     1       6.005   4.315  16.227  0.00  0.00    +0.000 A 
ATOM      5  N   UNL     1       4.743   4.285  16.695  0.00  0.00    +0.000 NA
ENDROOT
BRANCH   1  11
ATOM      6  C   UNL     1       1.893   2.664  21.503  0.00  0.00    +0.000 C 
ATOM      7  C   UNL     1       2.378   3.793  20.640  0.00  0.00    +0.000 A 
ATOM      8  C   UNL     1       1.863   5.086  20.804  0.00  0.00    +0.000 A 
ATOM      9  C   UNL     1       2.350   6.150  20.038  0.00  0.00    +0.000 A 
ATOM     10  C   UNL     1       3.369   5.928  19.106  0.00  0.00    +0.000 A 
ATOM     11  C   UNL     1       3.889   4.636  18.931  0.00  0.00    +0.000 A 
ATOM     12  C   UNL     1       3.384   3.568  19.688  0.00  0.00    +0.000 A 
BRANCH   9  13
ATOM     13  C   UNL     1       1.816   7.469  20.214  0.00  0.00    +0.000 C 
ATOM     14  N   UNL     1       1.388   8.537  20.363  0.00  0.00    +0.000 NA
ENDBRANCH   9  13
ENDBRANCH   1  11
BRANCH   4  15
ATOM     15  C   UNL     1       6.349   4.335  14.804  0.00  0.00    +0.000 A 
ATOM     16  C   UNL     1       7.415   5.112  14.347  0.00  0.00    +0.000 A 
ATOM     17  C   UNL     1       7.759   5.063  12.998  0.00  0.00    +0.000 A 
ATOM     18  C   UNL     1       7.033   4.243  12.143  0.00  0.00    +0.000 A 
ATOM     19  C   UNL     1       5.985   3.509  12.673  0.00  0.00    +0.000 A 
ATOM     20  N   UNL     1       5.628   3.536  13.977  0.00  0.00    +0.000 NA
ENDBRANCH   4  15
TORSDOF 3
ENDMDL
