MODEL 1
REMARK VINA RESULT:      -8.5      0.000      0.000
REMARK  Name = 
REMARK  4 active torsions:
REMARK  status: ('A' for Active; 'I' for Inactive)
REMARK    1  A    between atoms: C_5  and  C_6
REMARK    2  A    between atoms: N_18  and  C_19
REMARK    3  A    between atoms: C_22  and  N_23
REMARK    4  A    between atoms: N_26  and  C_27
REMARK                            x       y       z     vdW  Elec       q    Type
REMARK                         _______ _______ _______ _____ _____    ______ ____
ROOT
ATOM      1  C   UNL     1       3.441   1.593  18.827  0.00  0.00    +0.000 A 
ATOM      2  C   UNL     1       2.322   2.280  19.252  0.00  0.00    +0.000 A 
ATOM      3  N   UNL     1       2.677   3.600  19.198  0.00  0.00    +0.000 N 
ATOM      4  C   UNL     1       1.992   4.756  19.514  0.00  0.00    +0.000 A 
ATOM      5  C   UNL     1       2.635   5.933  19.379  0.00  0.00    +0.000 A 
ATOM      6  N   UNL     1       3.932   6.015  18.911  0.00  0.00    +0.000 NA
ATOM      7  C   UNL     1       4.625   4.938  18.622  0.00  0.00    +0.000 A 
ATOM      8  N   UNL     1       5.933   5.004  18.183  0.00  0.00    +0.000 N 
ATOM      9  C   UNL     1       3.969   3.649  18.757  0.00  0.00    +0.000 A 
ATOM     10  N   UNL     1       4.466   2.454  18.510  0.00  0.00    +0.000 NA
ATOM     11  H   UNL     1       6.330   4.134  17.851  0.00  0.00    +0.000 HD
ENDROOT
BRANCH   5  12
ATOM     12  C   UNL     1       1.987   7.211  19.750  0.00  0.00    +0.000 A 
ATOM     13  C   UNL     1       1.388   7.377  21.002  0.00  0.00    +0.000 A 
ATOM     14  N   UNL     1       0.753   8.503  21.415  0.00  0.00    +0.000 NA
ATOM     15  C   UNL     1       0.681   9.509  20.521  0.00  0.00    +0.000 A 
ATOM     16  C   UNL     1       1.202   9.445  19.217  0.00  0.00    +0.000 A 
ATOM     17  C   UNL     1       1.862   8.272  18.848  0.00  0.00    +0.000 A 
ATOM     18  N   UNL     1       1.022  10.456  18.250  0.00  0.00    +0.000 N 
ATOM     19  C   UNL     1       0.228  11.579  18.744  0.00  0.00    +0.000 C 
ATOM     20  C   UNL     1       0.448  11.800  20.240  0.00  0.00    +0.000 C 
ATOM     21  O   UNL     1       0.064  10.646  20.996  0.00  0.00    +0.000 OA
ATOM     22  H   UNL     1       1.892  10.704  17.788  0.00  0.00    +0.000 HD
ENDBRANCH   5  12
BRANCH   8  23
ATOM     23  C   UNL     1       6.768   6.132  18.155  0.00  0.00    +0.000 A 
ATOM     24  C   UNL     1       7.857   6.298  19.014  0.00  0.00    +0.000 A 
ATOM     25  C   UNL     1       8.563   7.502  19.074  0.00  0.00    +0.000 A 
ATOM     26  C   UNL     1       8.216   8.591  18.271  0.00  0.00    +0.000 A 
ATOM     27  C   UNL     1       7.164   8.399  17.367  0.00  0.00    +0.000 A 
ATOM     28  C   UNL     1       6.446   7.196  17.314  0.00  0.00    +0.000 A 
BRANCH  26  29
ATOM     29  N   UNL     1       8.838   9.812  18.407  0.00  0.00    +0.000 N 
ATOM     30  C   UNL     1       8.784  10.836  17.364  0.00  0.00    +0.000 C 
ATOM     31  C   UNL     1       8.484  12.219  17.980  0.00  0.00    +0.000 C 
ATOM     32  N   UNL     1       9.355  12.622  19.113  0.00  0.00    +0.000 NA
ATOM     33  C   UNL     1       9.335  11.531  20.120  0.00  0.00    +0.000 C 
ATOM     34  C   UNL     1       9.650  10.109  19.594  0.00  0.00    +0.000 C 
BRANCH  32  35
ATOM     35  C   UNL     1      10.735  12.861  18.640  0.00  0.00    +0.000 C 
ATOM     36  C   UNL     1      10.812  14.167  17.827  0.00  0.00    +0.000 C 
ATOM     37  O   UNL     1      11.938  14.621  18.630  0.00  0.00    +0.000 OA
ATOM     38  C   UNL     1      11.549  13.672  19.667  0.00  0.00    +0.000 C 
ENDBRANCH  32  35
ENDBRANCH  26  29
ENDBRANCH   8  23
TORSDOF 4
ENDMDL
MODEL 2
REMARK VINA RESULT:      -8.4      0.628      1.142
REMARK  Name = 
REMARK  4 active torsions:
REMARK  status: ('A' for Active; 'I' for Inactive)
REMARK    1  A    between atoms: C_5  and  C_6
REMARK    2  A    between atoms: N_18  and  C_19
REMARK    3  A    between atoms: C_22  and  N_23
REMARK    4  A    between atoms: N_26  and  C_27
REMARK                            x       y       z     vdW  Elec       q    Type
REMARK                         _______ _______ _______ _____ _____    ______ ____
ROOT
ATOM      1  C   UNL     1       3.435   1.827  18.448  0.00  0.00    +0.000 A 
ATOM      2  C   UNL     1       2.315   2.499  18.892  0.00  0.00    +0.000 A 
ATOM      3  N   UNL     1       2.679   3.818  18.912  0.00  0.00    +0.000 N 
ATOM      4  C   UNL     1       1.999   4.961  19.278  0.00  0.00    +0.000 A 
ATOM      5  C   UNL     1       2.652   6.138  19.213  0.00  0.00    +0.000 A 
ATOM      6  N   UNL     1       3.956   6.234  18.769  0.00  0.00    +0.000 NA
ATOM      7  C   UNL     1       4.646   5.168  18.435  0.00  0.00    +0.000 A 
ATOM      8  N   UNL     1       5.961   5.247  18.019  0.00  0.00    +0.000 N 
ATOM      9  C   UNL     1       3.978   3.880  18.493  0.00  0.00    +0.000 A 
ATOM     10  N   UNL     1       4.470   2.695  18.192  0.00  0.00    +0.000 NA
ATOM     11  H   UNL     1       6.356   4.392  17.649  0.00  0.00    +0.000 HD
ENDROOT
BRANCH   5  12
ATOM     12  C   UNL     1       2.007   7.400  19.641  0.00  0.00    +0.000 A 
ATOM     13  C   UNL     1       1.492   7.544  20.933  0.00  0.00    +0.000 A 
ATOM     14  N   UNL     1       0.867   8.653  21.400  0.00  0.00    +0.000 NA
ATOM     15  C   UNL     1       0.715   9.666  20.524  0.00  0.00    +0.000 A 
ATOM     16  C   UNL     1       1.147   9.623  19.186  0.00  0.00    +0.000 A 
ATOM     17  C   UNL     1       1.801   8.467  18.761  0.00  0.00    +0.000 A 
ATOM     18  N   UNL     1       0.883  10.640  18.245  0.00  0.00    +0.000 N 
ATOM     19  C   UNL     1       0.104  11.743  18.803  0.00  0.00    +0.000 C 
ATOM     20  C   UNL     1       0.422  11.954  20.283  0.00  0.00    +0.000 C 
ATOM     21  O   UNL     1       0.111  10.787  21.052  0.00  0.00    +0.000 OA
ATOM     22  H   UNL     1       1.714  10.909  17.727  0.00  0.00    +0.000 HD
ENDBRANCH   5  12
BRANCH   8  23
ATOM     23  C   UNL     1       6.804   6.368  18.062  0.00  0.00    +0.000 A 
ATOM     24  C   UNL     1       7.924   6.450  18.892  0.00  0.00    +0.000 A 
ATOM     25  C   UNL     1       8.643   7.640  19.035  0.00  0.00    +0.000 A 
ATOM     26  C   UNL     1       8.277   8.798  18.346  0.00  0.00    +0.000 A 
ATOM     27  C   UNL     1       7.192   8.694  17.468  0.00  0.00    +0.000 A 
ATOM     28  C   UNL     1       6.461   7.506  17.333  0.00  0.00    +0.000 A 
BRANCH  26  29
ATOM     29  N   UNL     1       8.914   9.998  18.569  0.00  0.00    +0.000 N 
ATOM     30  C   UNL     1       9.216  10.484  19.915  0.00  0.00    +0.000 C 
ATOM     31  C   UNL     1      10.659  11.027  19.983  0.00  0.00    +0.000 C 
ATOM     32  N   UNL     1      11.026  12.015  18.938  0.00  0.00    +0.000 NA
ATOM     33  C   UNL     1      10.697  11.429  17.614  0.00  0.00    +0.000 C 
ATOM     34  C   UNL     1       9.259  10.881  17.447  0.00  0.00    +0.000 C 
BRANCH  32  35
ATOM     35  C   UNL     1      10.283  13.276  19.141  0.00  0.00    +0.000 C 
ATOM     36  C   UNL     1      11.065  14.224  20.072  0.00  0.00    +0.000 C 
ATOM     37  O   UNL     1      10.922  15.310  19.114  0.00  0.00    +0.000 OA
ATOM     38  C   UNL     1      10.652  14.325  18.073  0.00  0.00    +0.000 C 
ENDBRANCH  32  35
ENDBRANCH  26  29
ENDBRANCH   8  23
TORSDOF 4
ENDMDL
MODEL 3
REMARK VINA RESULT:      -8.2      2.961      7.046
REMARK  Name = 
REMARK  4 active torsions:
REMARK  status: ('A' for Active; 'I' for Inactive)
REMARK    1  A    between atoms: C_5  and  C_6
REMARK    2  A    between atoms: N_18  and  C_19
REMARK    3  A    between atoms: C_22  and  N_23
REMARK    4  A    between atoms: N_26  and  C_27
REMARK                            x       y       z     vdW  Elec       q    Type
REMARK                         _______ _______ _______ _____ _____    ______ ____
ROOT
ATOM      1  C   UNL     1      -2.906  13.573  20.440  0.00  0.00    +0.000 A 
ATOM      2  C   UNL     1      -2.843  12.215  20.204  0.00  0.00    +0.000 A 
ATOM      3  N   UNL     1      -1.515  11.953  19.999  0.00  0.00    +0.000 N 
ATOM      4  C   UNL     1      -0.836  10.789  19.705  0.00  0.00    +0.000 A 
ATOM      5  C   UNL     1       0.499  10.858  19.530  0.00  0.00    +0.000 A 
ATOM      6  N   UNL     1       1.199  12.041  19.664  0.00  0.00    +0.000 NA
ATOM      7  C   UNL     1       0.587  13.174  19.920  0.00  0.00    +0.000 A 
ATOM      8  N   UNL     1       1.272  14.369  20.027  0.00  0.00    +0.000 N 
ATOM      9  C   UNL     1      -0.852  13.142  20.113  0.00  0.00    +0.000 A 
ATOM     10  N   UNL     1      -1.657  14.147  20.391  0.00  0.00    +0.000 NA
ATOM     11  H   UNL     1       0.733  15.156  20.366  0.00  0.00    +0.000 HD
ENDROOT
BRANCH   5  12
ATOM     12  C   UNL     1       1.289   9.664  19.157  0.00  0.00    +0.000 A 
ATOM     13  C   UNL     1       1.825   9.527  17.873  0.00  0.00    +0.000 A 
ATOM     14  N   UNL     1       2.540   8.458  17.441  0.00  0.00    +0.000 NA
ATOM     15  C   UNL     1       2.704   7.453  18.324  0.00  0.00    +0.000 A 
ATOM     16  C   UNL     1       2.173   7.453  19.626  0.00  0.00    +0.000 A 
ATOM     17  C   UNL     1       1.462   8.584  20.028  0.00  0.00    +0.000 A 
ATOM     18  N   UNL     1       2.250   6.351  20.503  0.00  0.00    +0.000 N 
ATOM     19  C   UNL     1       2.935   5.202  19.914  0.00  0.00    +0.000 C 
ATOM     20  C   UNL     1       4.022   5.645  18.936  0.00  0.00    +0.000 C 
ATOM     21  O   UNL     1       3.469   6.407  17.856  0.00  0.00    +0.000 OA
ATOM     22  H   UNL     1       2.565   6.620  21.431  0.00  0.00    +0.000 HD
ENDBRANCH   5  12
BRANCH   8  23
ATOM     23  C   UNL     1       2.617  14.614  19.709  0.00  0.00    +0.000 A 
ATOM     24  C   UNL     1       3.112  14.584  18.404  0.00  0.00    +0.000 A 
ATOM     25  C   UNL     1       4.481  14.664  18.139  0.00  0.00    +0.000 A 
ATOM     26  C   UNL     1       5.416  14.787  19.169  0.00  0.00    +0.000 A 
ATOM     27  C   UNL     1       4.912  14.879  20.472  0.00  0.00    +0.000 A 
ATOM     28  C   UNL     1       3.539  14.786  20.741  0.00  0.00    +0.000 A 
BRANCH  26  29
ATOM     29  N   UNL     1       6.770  14.755  18.919  0.00  0.00    +0.000 N 
ATOM     30  C   UNL     1       7.752  15.267  19.875  0.00  0.00    +0.000 C 
ATOM     31  C   UNL     1       8.928  14.278  20.022  0.00  0.00    +0.000 C 
ATOM     32  N   UNL     1       9.561  13.835  18.754  0.00  0.00    +0.000 NA
ATOM     33  C   UNL     1       8.492  13.322  17.861  0.00  0.00    +0.000 C 
ATOM     34  C   UNL     1       7.282  14.261  17.634  0.00  0.00    +0.000 C 
BRANCH  32  35
ATOM     35  C   UNL     1      10.271  14.962  18.114  0.00  0.00    +0.000 C 
ATOM     36  C   UNL     1      11.558  15.305  18.890  0.00  0.00    +0.000 C 
ATOM     37  O   UNL     1      12.333  15.255  17.659  0.00  0.00    +0.000 OA
ATOM     38  C   UNL     1      11.268  14.466  17.049  0.00  0.00    +0.000 C 
ENDBRANCH  32  35
ENDBRANCH  26  29
ENDBRANCH   8  23
TORSDOF 4
ENDMDL
MODEL 4
REMARK VINA RESULT:      -8.1      3.690      8.843
REMARK  Name = 
REMARK  4 active torsions:
REMARK  status: ('A' for Active; 'I' for Inactive)
REMARK    1  A    between atoms: C_5  and  C_6
REMARK    2  A    between atoms: N_18  and  C_19
REMARK    3  A    between atoms: C_22  and  N_23
REMARK    4  A    between atoms: N_26  and  C_27
REMARK                            x       y       z     vdW  Elec       q    Type
REMARK                         _______ _______ _______ _____ _____    ______ ____
ROOT
ATOM      1  C   UNL     1      -1.728  13.669  23.478  0.00  0.00    +0.000 A 
ATOM      2  C   UNL     1      -0.808  14.656  23.186  0.00  0.00    +0.000 A 
ATOM      3  N   UNL     1       0.039  14.090  22.272  0.00  0.00    +0.000 N 
ATOM      4  C   UNL     1       1.158  14.572  21.625  0.00  0.00    +0.000 A 
ATOM      5  C   UNL     1       1.811  13.746  20.783  0.00  0.00    +0.000 A 
ATOM      6  N   UNL     1       1.379  12.458  20.532  0.00  0.00    +0.000 NA
ATOM      7  C   UNL     1       0.334  11.954  21.146  0.00  0.00    +0.000 A 
ATOM      8  N   UNL     1      -0.090  10.658  20.927  0.00  0.00    +0.000 N 
ATOM      9  C   UNL     1      -0.396  12.812  22.063  0.00  0.00    +0.000 A 
ATOM     10  N   UNL     1      -1.471  12.521  22.767  0.00  0.00    +0.000 NA
ATOM     11  H   UNL     1      -0.983  10.413  21.335  0.00  0.00    +0.000 HD
ENDROOT
BRANCH   5  12
ATOM     12  C   UNL     1       3.050  14.172  20.094  0.00  0.00    +0.000 A 
ATOM     13  C   UNL     1       3.146  14.138  18.700  0.00  0.00    +0.000 A 
ATOM     14  N   UNL     1       4.248  14.486  17.989  0.00  0.00    +0.000 NA
ATOM     15  C   UNL     1       5.327  14.858  18.706  0.00  0.00    +0.000 A 
ATOM     16  C   UNL     1       5.369  14.886  20.112  0.00  0.00    +0.000 A 
ATOM     17  C   UNL     1       4.203  14.538  20.794  0.00  0.00    +0.000 A 
ATOM     18  N   UNL     1       6.534  15.166  20.855  0.00  0.00    +0.000 N 
ATOM     19  C   UNL     1       7.701  15.414  20.011  0.00  0.00    +0.000 C 
ATOM     20  C   UNL     1       7.301  16.075  18.693  0.00  0.00    +0.000 C 
ATOM     21  O   UNL     1       6.409  15.242  17.944  0.00  0.00    +0.000 OA
ATOM     22  H   UNL     1       6.368  15.851  21.586  0.00  0.00    +0.000 HD
ENDBRANCH   5  12
BRANCH   8  23
ATOM     23  C   UNL     1       0.580   9.649  20.218  0.00  0.00    +0.000 A 
ATOM     24  C   UNL     1       1.143   8.528  20.831  0.00  0.00    +0.000 A 
ATOM     25  C   UNL     1       1.945   7.632  20.120  0.00  0.00    +0.000 A 
ATOM     26  C   UNL     1       2.213   7.814  18.762  0.00  0.00    +0.000 A 
ATOM     27  C   UNL     1       1.596   8.904  18.137  0.00  0.00    +0.000 A 
ATOM     28  C   UNL     1       0.801   9.811  18.850  0.00  0.00    +0.000 A 
BRANCH  26  29
ATOM     29  N   UNL     1       3.091   6.995  18.086  0.00  0.00    +0.000 N 
ATOM     30  C   UNL     1       4.059   7.517  17.122  0.00  0.00    +0.000 C 
ATOM     31  C   UNL     1       5.446   6.878  17.349  0.00  0.00    +0.000 C 
ATOM     32  N   UNL     1       5.469   5.395  17.417  0.00  0.00    +0.000 NA
ATOM     33  C   UNL     1       4.469   4.965  18.426  0.00  0.00    +0.000 C 
ATOM     34  C   UNL     1       3.040   5.538  18.260  0.00  0.00    +0.000 C 
BRANCH  32  35
ATOM     35  C   UNL     1       5.149   4.816  16.095  0.00  0.00    +0.000 C 
ATOM     36  C   UNL     1       6.065   5.409  15.006  0.00  0.00    +0.000 C 
ATOM     37  O   UNL     1       6.403   4.072  14.540  0.00  0.00    +0.000 OA
ATOM     38  C   UNL     1       5.969   3.539  15.827  0.00  0.00    +0.000 C 
ENDBRANCH  32  35
ENDBRANCH  26  29
ENDBRANCH   8  23
TORSDOF 4
ENDMDL
MODEL 5
REMARK VINA RESULT:      -8.1      1.214      1.963
REMARK  Name = 
REMARK  4 active torsions:
REMARK  status: ('A' for Active; 'I' for Inactive)
REMARK    1  A    between atoms: C_5  and  C_6
REMARK    2  A    between atoms: N_18  and  C_19
REMARK    3  A    between atoms: C_22  and  N_23
REMARK    4  A    between atoms: N_26  and  C_27
REMARK                            x       y       z     vdW  Elec       q    Type
REMARK                         _______ _______ _______ _____ _____    ______ ____
ROOT
ATOM      1  C   UNL     1       3.936   2.275  17.550  0.00  0.00    +0.000 A 
ATOM      2  C   UNL     1       2.744   2.894  17.870  0.00  0.00    +0.000 A 
ATOM      3  N   UNL     1       3.058   4.221  17.994  0.00  0.00    +0.000 N 
ATOM      4  C   UNL     1       2.296   5.325  18.314  0.00  0.00    +0.000 A 
ATOM      5  C   UNL     1       2.911   6.523  18.386  0.00  0.00    +0.000 A 
ATOM      6  N   UNL     1       4.259   6.676  18.123  0.00  0.00    +0.000 NA
ATOM      7  C   UNL     1       5.022   5.647  17.839  0.00  0.00    +0.000 A 
ATOM      8  N   UNL     1       6.377   5.782  17.603  0.00  0.00    +0.000 N 
ATOM      9  C   UNL     1       4.397   4.339  17.753  0.00  0.00    +0.000 A 
ATOM     10  N   UNL     1       4.965   3.184  17.470  0.00  0.00    +0.000 NA
ATOM     11  H   UNL     1       6.846   4.957  17.253  0.00  0.00    +0.000 HD
ENDROOT
BRANCH   5  12
ATOM     12  C   UNL     1       2.174   7.745  18.778  0.00  0.00    +0.000 A 
ATOM     13  C   UNL     1       2.040   8.819  17.893  0.00  0.00    +0.000 A 
ATOM     14  N   UNL     1       1.403   9.983  18.177  0.00  0.00    +0.000 NA
ATOM     15  C   UNL     1       0.898  10.099  19.421  0.00  0.00    +0.000 A 
ATOM     16  C   UNL     1       1.011   9.109  20.414  0.00  0.00    +0.000 A 
ATOM     17  C   UNL     1       1.658   7.924  20.065  0.00  0.00    +0.000 A 
ATOM     18  N   UNL     1       0.582   9.283  21.746  0.00  0.00    +0.000 N 
ATOM     19  C   UNL     1       0.015  10.607  21.993  0.00  0.00    +0.000 C 
ATOM     20  C   UNL     1      -0.687  11.150  20.749  0.00  0.00    +0.000 C 
ATOM     21  O   UNL     1       0.225  11.279  19.653  0.00  0.00    +0.000 OA
ATOM     22  H   UNL     1       0.026   8.500  22.076  0.00  0.00    +0.000 HD
ENDBRANCH   5  12
BRANCH   8  23
ATOM     23  C   UNL     1       7.168   6.923  17.805  0.00  0.00    +0.000 A 
ATOM     24  C   UNL     1       8.155   7.005  18.790  0.00  0.00    +0.000 A 
ATOM     25  C   UNL     1       8.807   8.208  19.073  0.00  0.00    +0.000 A 
ATOM     26  C   UNL     1       8.505   9.381  18.379  0.00  0.00    +0.000 A 
ATOM     27  C   UNL     1       7.561   9.281  17.351  0.00  0.00    +0.000 A 
ATOM     28  C   UNL     1       6.896   8.078  17.072  0.00  0.00    +0.000 A 
BRANCH  26  29
ATOM     29  N   UNL     1       9.065  10.589  18.731  0.00  0.00    +0.000 N 
ATOM     30  C   UNL     1       9.682  10.812  20.038  0.00  0.00    +0.000 C 
ATOM     31  C   UNL     1      11.030  11.546  19.881  0.00  0.00    +0.000 C 
ATOM     32  N   UNL     1      10.998  12.783  19.060  0.00  0.00    +0.000 NA
ATOM     33  C   UNL     1      10.371  12.454  17.755  0.00  0.00    +0.000 C 
ATOM     34  C   UNL     1       9.000  11.737  17.817  0.00  0.00    +0.000 C 
BRANCH  32  35
ATOM     35  C   UNL     1      10.228  13.838  19.750  0.00  0.00    +0.000 C 
ATOM     36  C   UNL     1      11.167  14.937  20.283  0.00  0.00    +0.000 C 
ATOM     37  O   UNL     1      10.348  15.964  19.657  0.00  0.00    +0.000 OA
ATOM     38  C   UNL     1       9.790  14.947  18.773  0.00  0.00    +0.000 C 
ENDBRANCH  32  35
ENDBRANCH  26  29
ENDBRANCH   8  23
TORSDOF 4
ENDMDL
MODEL 6
REMARK VINA RESULT:      -7.9      3.525     10.214
REMARK  Name = 
REMARK  4 active torsions:
REMARK  status: ('A' for Active; 'I' for Inactive)
REMARK    1  A    between atoms: C_5  and  C_6
REMARK    2  A    between atoms: N_18  and  C_19
REMARK    3  A    between atoms: C_22  and  N_23
REMARK    4  A    between atoms: N_26  and  C_27
REMARK                            x       y       z     vdW  Elec       q    Type
REMARK                         _______ _______ _______ _____ _____    ______ ____
ROOT
ATOM      1  C   UNL     1      -0.747  16.592  18.740  0.00  0.00    +0.000 A 
ATOM      2  C   UNL     1       0.471  17.222  18.896  0.00  0.00    +0.000 A 
ATOM      3  N   UNL     1       1.390  16.209  18.936  0.00  0.00    +0.000 N 
ATOM      4  C   UNL     1       2.761  16.209  19.091  0.00  0.00    +0.000 A 
ATOM      5  C   UNL     1       3.398  15.021  19.118  0.00  0.00    +0.000 A 
ATOM      6  N   UNL     1       2.728  13.822  18.968  0.00  0.00    +0.000 NA
ATOM      7  C   UNL     1       1.422  13.778  18.842  0.00  0.00    +0.000 A 
ATOM      8  N   UNL     1       0.737  12.585  18.721  0.00  0.00    +0.000 N 
ATOM      9  C   UNL     1       0.699  15.038  18.810  0.00  0.00    +0.000 A 
ATOM     10  N   UNL     1      -0.599  15.226  18.678  0.00  0.00    +0.000 NA
ATOM     11  H   UNL     1      -0.244  12.663  18.486  0.00  0.00    +0.000 HD
ENDROOT
BRANCH   5  12
ATOM     12  C   UNL     1       4.859  14.936  19.336  0.00  0.00    +0.000 A 
ATOM     13  C   UNL     1       5.396  14.947  20.627  0.00  0.00    +0.000 A 
ATOM     14  N   UNL     1       6.721  14.898  20.917  0.00  0.00    +0.000 NA
ATOM     15  C   UNL     1       7.561  14.867  19.863  0.00  0.00    +0.000 A 
ATOM     16  C   UNL     1       7.145  14.900  18.520  0.00  0.00    +0.000 A 
ATOM     17  C   UNL     1       5.772  14.932  18.276  0.00  0.00    +0.000 A 
ATOM     18  N   UNL     1       8.031  14.984  17.427  0.00  0.00    +0.000 N 
ATOM     19  C   UNL     1       9.434  15.043  17.835  0.00  0.00    +0.000 C 
ATOM     20  C   UNL     1       9.671  14.252  19.120  0.00  0.00    +0.000 C 
ATOM     21  O   UNL     1       8.893  14.776  20.203  0.00  0.00    +0.000 OA
ATOM     22  H   UNL     1       7.814  14.306  16.703  0.00  0.00    +0.000 HD
ENDBRANCH   5  12
BRANCH   8  23
ATOM     23  C   UNL     1       1.244  11.289  18.898  0.00  0.00    +0.000 A 
ATOM     24  C   UNL     1       1.986  10.618  17.923  0.00  0.00    +0.000 A 
ATOM     25  C   UNL     1       2.330   9.272  18.064  0.00  0.00    +0.000 A 
ATOM     26  C   UNL     1       1.955   8.538  19.191  0.00  0.00    +0.000 A 
ATOM     27  C   UNL     1       1.265   9.230  20.194  0.00  0.00    +0.000 A 
ATOM     28  C   UNL     1       0.908  10.577  20.049  0.00  0.00    +0.000 A 
BRANCH  26  29
ATOM     29  N   UNL     1       2.196   7.185  19.282  0.00  0.00    +0.000 N 
ATOM     30  C   UNL     1       2.031   6.445  20.533  0.00  0.00    +0.000 C 
ATOM     31  C   UNL     1       1.279   5.121  20.282  0.00  0.00    +0.000 C 
ATOM     32  N   UNL     1       1.822   4.267  19.195  0.00  0.00    +0.000 NA
ATOM     33  C   UNL     1       1.939   5.099  17.971  0.00  0.00    +0.000 C 
ATOM     34  C   UNL     1       2.703   6.437  18.124  0.00  0.00    +0.000 C 
BRANCH  32  35
ATOM     35  C   UNL     1       3.142   3.726  19.579  0.00  0.00    +0.000 C 
ATOM     36  C   UNL     1       2.989   2.355  20.267  0.00  0.00    +0.000 C 
ATOM     37  O   UNL     1       3.983   1.778  19.374  0.00  0.00    +0.000 OA
ATOM     38  C   UNL     1       3.755   2.880  18.446  0.00  0.00    +0.000 C 
ENDBRANCH  32  35
ENDBRANCH  26  29
ENDBRANCH   8  23
TORSDOF 4
ENDMDL
MODEL 7
REMARK VINA RESULT:      -7.8      0.776      1.351
REMARK  Name = 
REMARK  4 active torsions:
REMARK  status: ('A' for Active; 'I' for Inactive)
REMARK    1  A    between atoms: C_5  and  C_6
REMARK    2  A    between atoms: N_18  and  C_19
REMARK    3  A    between atoms: C_22  and  N_23
REMARK    4  A    between atoms: N_26  and  C_27
REMARK                            x       y       z     vdW  Elec       q    Type
REMARK                         _______ _______ _______ _____ _____    ______ ____
ROOT
ATOM      1  C   UNL     1       3.824   2.009  18.991  0.00  0.00    +0.000 A 
ATOM      2  C   UNL     1       2.641   2.679  19.229  0.00  0.00    +0.000 A 
ATOM      3  N   UNL     1       2.948   4.003  19.073  0.00  0.00    +0.000 N 
ATOM      4  C   UNL     1       2.190   5.150  19.196  0.00  0.00    +0.000 A 
ATOM      5  C   UNL     1       2.797   6.338  19.003  0.00  0.00    +0.000 A 
ATOM      6  N   UNL     1       4.132   6.436  18.660  0.00  0.00    +0.000 NA
ATOM      7  C   UNL     1       4.893   5.371  18.557  0.00  0.00    +0.000 A 
ATOM      8  N   UNL     1       6.235   5.457  18.245  0.00  0.00    +0.000 N 
ATOM      9  C   UNL     1       4.276   4.071  18.759  0.00  0.00    +0.000 A 
ATOM     10  N   UNL     1       4.842   2.883  18.690  0.00  0.00    +0.000 NA
ATOM     11  H   UNL     1       6.698   4.579  18.047  0.00  0.00    +0.000 HD
ENDROOT
BRANCH   5  12
ATOM     12  C   UNL     1       2.066   7.613  19.172  0.00  0.00    +0.000 A 
ATOM     13  C   UNL     1       1.922   8.507  18.107  0.00  0.00    +0.000 A 
ATOM     14  N   UNL     1       1.290   9.705  18.179  0.00  0.00    +0.000 NA
ATOM     15  C   UNL     1       0.799  10.049  19.387  0.00  0.00    +0.000 A 
ATOM     16  C   UNL     1       0.923   9.257  20.543  0.00  0.00    +0.000 A 
ATOM     17  C   UNL     1       1.565   8.026  20.410  0.00  0.00    +0.000 A 
ATOM     18  N   UNL     1       0.510   9.673  21.825  0.00  0.00    +0.000 N 
ATOM     19  C   UNL     1      -0.054  11.022  21.831  0.00  0.00    +0.000 C 
ATOM     20  C   UNL     1      -0.770  11.330  20.517  0.00  0.00    +0.000 C 
ATOM     21  O   UNL     1       0.131  11.253  19.406  0.00  0.00    +0.000 OA
ATOM     22  H   UNL     1      -0.043   8.966  22.300  0.00  0.00    +0.000 HD
ENDBRANCH   5  12
BRANCH   8  23
ATOM     23  C   UNL     1       7.025   6.615  18.183  0.00  0.00    +0.000 A 
ATOM     24  C   UNL     1       8.150   6.818  18.984  0.00  0.00    +0.000 A 
ATOM     25  C   UNL     1       8.812   8.048  19.017  0.00  0.00    +0.000 A 
ATOM     26  C   UNL     1       8.382   9.127  18.243  0.00  0.00    +0.000 A 
ATOM     27  C   UNL     1       7.293   8.901  17.394  0.00  0.00    +0.000 A 
ATOM     28  C   UNL     1       6.619   7.673  17.368  0.00  0.00    +0.000 A 
BRANCH  26  29
ATOM     29  N   UNL     1       8.964  10.370  18.356  0.00  0.00    +0.000 N 
ATOM     30  C   UNL     1       8.723  11.436  17.384  0.00  0.00    +0.000 C 
ATOM     31  C   UNL     1       8.452  12.774  18.105  0.00  0.00    +0.000 C 
ATOM     32  N   UNL     1       9.452  13.168  19.129  0.00  0.00    +0.000 NA
ATOM     33  C   UNL     1       9.617  12.033  20.073  0.00  0.00    +0.000 C 
ATOM     34  C   UNL     1       9.918  10.654  19.437  0.00  0.00    +0.000 C 
BRANCH  32  35
ATOM     35  C   UNL     1      10.742  13.496  18.488  0.00  0.00    +0.000 C 
ATOM     36  C   UNL     1      10.653  14.843  17.745  0.00  0.00    +0.000 C 
ATOM     37  O   UNL     1      11.860  15.310  18.411  0.00  0.00    +0.000 OA
ATOM     38  C   UNL     1      11.657  14.294  19.438  0.00  0.00    +0.000 C 
ENDBRANCH  32  35
ENDBRANCH  26  29
ENDBRANCH   8  23
TORSDOF 4
ENDMDL
MODEL 8
REMARK VINA RESULT:      -7.7      3.155      7.241
REMARK  Name = 
REMARK  4 active torsions:
REMARK  status: ('A' for Active; 'I' for Inactive)
REMARK    1  A    between atoms: C_5  and  C_6
REMARK    2  A    between atoms: N_18  and  C_19
REMARK    3  A    between atoms: C_22  and  N_23
REMARK    4  A    between atoms: N_26  and  C_27
REMARK                            x       y       z     vdW  Elec       q    Type
REMARK                         _______ _______ _______ _____ _____    ______ ____
ROOT
ATOM      1  C   UNL     1      -2.613  13.941  22.340  0.00  0.00    +0.000 A 
ATOM      2  C   UNL     1      -2.675  12.616  21.960  0.00  0.00    +0.000 A 
ATOM      3  N   UNL     1      -1.413  12.315  21.524  0.00  0.00    +0.000 N 
ATOM      4  C   UNL     1      -0.863  11.159  21.010  0.00  0.00    +0.000 A 
ATOM      5  C   UNL     1       0.432  11.182  20.635  0.00  0.00    +0.000 A 
ATOM      6  N   UNL     1       1.219  12.308  20.777  0.00  0.00    +0.000 NA
ATOM      7  C   UNL     1       0.728  13.434  21.240  0.00  0.00    +0.000 A 
ATOM      8  N   UNL     1       1.497  14.575  21.359  0.00  0.00    +0.000 N 
ATOM      9  C   UNL     1      -0.665  13.450  21.653  0.00  0.00    +0.000 A 
ATOM     10  N   UNL     1      -1.352  14.457  22.154  0.00  0.00    +0.000 NA
ATOM     11  H   UNL     1       1.068  15.344  21.857  0.00  0.00    +0.000 HD
ENDROOT
BRANCH   5  12
ATOM     12  C   UNL     1       1.077   9.999  20.024  0.00  0.00    +0.000 A 
ATOM     13  C   UNL     1       1.449   9.998  18.676  0.00  0.00    +0.000 A 
ATOM     14  N   UNL     1       2.022   8.952  18.030  0.00  0.00    +0.000 NA
ATOM     15  C   UNL     1       2.209   7.832  18.757  0.00  0.00    +0.000 A 
ATOM     16  C   UNL     1       1.833   7.695  20.105  0.00  0.00    +0.000 A 
ATOM     17  C   UNL     1       1.265   8.806  20.727  0.00  0.00    +0.000 A 
ATOM     18  N   UNL     1       1.926   6.485  20.824  0.00  0.00    +0.000 N 
ATOM     19  C   UNL     1       2.445   5.382  20.018  0.00  0.00    +0.000 C 
ATOM     20  C   UNL     1       3.443   5.880  18.974  0.00  0.00    +0.000 C 
ATOM     21  O   UNL     1       2.830   6.810  18.073  0.00  0.00    +0.000 OA
ATOM     22  H   UNL     1       2.366   6.610  21.731  0.00  0.00    +0.000 HD
ENDBRANCH   5  12
BRANCH   8  23
ATOM     23  C   UNL     1       2.791  14.788  20.860  0.00  0.00    +0.000 A 
ATOM     24  C   UNL     1       3.069  14.965  19.503  0.00  0.00    +0.000 A 
ATOM     25  C   UNL     1       4.381  15.006  19.024  0.00  0.00    +0.000 A 
ATOM     26  C   UNL     1       5.474  14.879  19.884  0.00  0.00    +0.000 A 
ATOM     27  C   UNL     1       5.193  14.764  21.250  0.00  0.00    +0.000 A 
ATOM     28  C   UNL     1       3.878  14.710  21.732  0.00  0.00    +0.000 A 
BRANCH  26  29
ATOM     29  N   UNL     1       6.762  14.808  19.402  0.00  0.00    +0.000 N 
ATOM     30  C   UNL     1       7.927  15.062  20.250  0.00  0.00    +0.000 C 
ATOM     31  C   UNL     1       9.011  13.989  20.015  0.00  0.00    +0.000 C 
ATOM     32  N   UNL     1       9.391  13.757  18.598  0.00  0.00    +0.000 NA
ATOM     33  C   UNL     1       8.150  13.495  17.825  0.00  0.00    +0.000 C 
ATOM     34  C   UNL     1       7.016  14.537  17.981  0.00  0.00    +0.000 C 
BRANCH  32  35
ATOM     35  C   UNL     1      10.096  14.937  18.056  0.00  0.00    +0.000 C 
ATOM     36  C   UNL     1      11.304  15.302  18.941  0.00  0.00    +0.000 C 
ATOM     37  O   UNL     1      12.172  15.333  17.773  0.00  0.00    +0.000 OA
ATOM     38  C   UNL     1      11.193  14.526  17.054  0.00  0.00    +0.000 C 
ENDBRANCH  32  35
ENDBRANCH  26  29
ENDBRANCH   8  23
TORSDOF 4
ENDMDL
MODEL 9
REMARK VINA RESULT:      -7.7      3.176      7.214
REMARK  Name = 
REMARK  4 active torsions:
REMARK  status: ('A' for Active; 'I' for Inactive)
REMARK    1  A    between atoms: C_5  and  C_6
REMARK    2  A    between atoms: N_18  and  C_19
REMARK    3  A    between atoms: C_22  and  N_23
REMARK    4  A    between atoms: N_26  and  C_27
REMARK                            x       y       z     vdW  Elec       q    Type
REMARK                         _______ _______ _______ _____ _____    ______ ____
ROOT
ATOM      1  C   UNL     1      -2.863  13.882  21.330  0.00  0.00    +0.000 A 
ATOM      2  C   UNL     1      -2.859  12.553  20.956  0.00  0.00    +0.000 A 
ATOM      3  N   UNL     1      -1.553  12.274  20.656  0.00  0.00    +0.000 N 
ATOM      4  C   UNL     1      -0.930  11.127  20.212  0.00  0.00    +0.000 A 
ATOM      5  C   UNL     1       0.396  11.173  19.974  0.00  0.00    +0.000 A 
ATOM      6  N   UNL     1       1.143  12.315  20.189  0.00  0.00    +0.000 NA
ATOM      7  C   UNL     1       0.584  13.434  20.589  0.00  0.00    +0.000 A 
ATOM      8  N   UNL     1       1.314  14.591  20.778  0.00  0.00    +0.000 N 
ATOM      9  C   UNL     1      -0.844  13.425  20.854  0.00  0.00    +0.000 A 
ATOM     10  N   UNL     1      -1.599  14.421  21.272  0.00  0.00    +0.000 NA
ATOM     11  H   UNL     1       0.821  15.355  21.222  0.00  0.00    +0.000 HD
ENDROOT
BRANCH   5  12
ATOM     12  C   UNL     1       1.125  10.000  19.443  0.00  0.00    +0.000 A 
ATOM     13  C   UNL     1       1.569   9.968  18.118  0.00  0.00    +0.000 A 
ATOM     14  N   UNL     1       2.222   8.927  17.543  0.00  0.00    +0.000 NA
ATOM     15  C   UNL     1       2.416   7.842  18.321  0.00  0.00    +0.000 A 
ATOM     16  C   UNL     1       1.973   7.736  19.651  0.00  0.00    +0.000 A 
ATOM     17  C   UNL     1       1.324   8.841  20.200  0.00  0.00    +0.000 A 
ATOM     18  N   UNL     1       2.077   6.558  20.420  0.00  0.00    +0.000 N 
ATOM     19  C   UNL     1       2.687   5.451  19.684  0.00  0.00    +0.000 C 
ATOM     20  C   UNL     1       3.719   5.957  18.677  0.00  0.00    +0.000 C 
ATOM     21  O   UNL     1       3.117   6.825  17.710  0.00  0.00    +0.000 OA
ATOM     22  H   UNL     1       2.461   6.734  21.343  0.00  0.00    +0.000 HD
ENDBRANCH   5  12
BRANCH   8  23
ATOM     23  C   UNL     1       2.650  14.826  20.416  0.00  0.00    +0.000 A 
ATOM     24  C   UNL     1       3.046  15.132  19.112  0.00  0.00    +0.000 A 
ATOM     25  C   UNL     1       4.395  15.194  18.753  0.00  0.00    +0.000 A 
ATOM     26  C   UNL     1       5.408  14.961  19.686  0.00  0.00    +0.000 A 
ATOM     27  C   UNL     1       5.008  14.717  21.005  0.00  0.00    +0.000 A 
ATOM     28  C   UNL     1       3.655  14.641  21.364  0.00  0.00    +0.000 A 
BRANCH  26  29
ATOM     29  N   UNL     1       6.732  14.912  19.312  0.00  0.00    +0.000 N 
ATOM     30  C   UNL     1       7.164  15.153  17.935  0.00  0.00    +0.000 C 
ATOM     31  C   UNL     1       8.389  16.092  17.909  0.00  0.00    +0.000 C 
ATOM     32  N   UNL     1       9.519  15.700  18.788  0.00  0.00    +0.000 NA
ATOM     33  C   UNL     1       8.987  15.493  20.159  0.00  0.00    +0.000 C 
ATOM     34  C   UNL     1       7.770  14.543  20.283  0.00  0.00    +0.000 C 
BRANCH  32  35
ATOM     35  C   UNL     1      10.153  14.462  18.289  0.00  0.00    +0.000 C 
ATOM     36  C   UNL     1      11.189  14.785  17.195  0.00  0.00    +0.000 C 
ATOM     37  O   UNL     1      12.190  13.983  17.884  0.00  0.00    +0.000 OA
ATOM     38  C   UNL     1      11.407  14.101  19.109  0.00  0.00    +0.000 C 
ENDBRANCH  32  35
ENDBRANCH  26  29
ENDBRANCH   8  23
TORSDOF 4
ENDMDL
