MODEL 1
REMARK VINA RESULT:      -8.3      0.000      0.000
REMARK  Name = 
REMARK  6 active torsions:
REMARK  status: ('A' for Active; 'I' for Inactive)
REMARK    1  A    between atoms: C_2  and  C_20
REMARK    2  A    between atoms: N_3  and  C_4
REMARK    3  A    between atoms: C_8  and  C_9
REMARK    4  A    between atoms: C_13  and  C_14
REMARK    5  A    between atoms: C_24  and  C_25
REMARK    6  A    between atoms: C_30  and  C_31
REMARK                            x       y       z     vdW  Elec       q    Type
REMARK                         _______ _______ _______ _____ _____    ______ ____
ROOT
ATOM      1  O   UNL     1       1.441   9.734  22.367  0.00  0.00    +0.000 OA
ATOM      2  C   UNL     1       1.073   9.872  21.201  0.00  0.00    +0.000 C 
ATOM      3  N   UNL     1       0.179  10.834  20.756  0.00  0.00    +0.000 N 
ATOM      4  H   UNL     1      -0.206  10.723  19.829  0.00  0.00    +0.000 HD
ENDROOT
BRANCH   3   5
ATOM      5  C   UNL     1      -0.477  11.756  21.615  0.00  0.00    +0.000 A 
ATOM      6  C   UNL     1      -1.508  11.264  22.434  0.00  0.00    +0.000 A 
ATOM      7  C   UNL     1      -2.178  12.088  23.323  0.00  0.00    +0.000 A 
ATOM      8  C   UNL     1      -1.827  13.424  23.400  0.00  0.00    +0.000 A 
ATOM      9  C   UNL     1      -0.799  13.966  22.592  0.00  0.00    +0.000 A 
ATOM     10  C   UNL     1      -0.079  13.127  21.683  0.00  0.00    +0.000 A 
BRANCH  10  11
ATOM     11  C   UNL     1       1.023  13.680  20.840  0.00  0.00    +0.000 A 
ATOM     12  C   UNL     1       0.842  14.257  19.580  0.00  0.00    +0.000 A 
ATOM     13  C   UNL     1       1.949  14.599  18.805  0.00  0.00    +0.000 A 
ATOM     14  C   UNL     1       3.220  14.465  19.340  0.00  0.00    +0.000 A 
ATOM     15  C   UNL     1       3.324  13.974  20.626  0.00  0.00    +0.000 A 
ATOM     16  N   UNL     1       2.266  13.548  21.355  0.00  0.00    +0.000 NA
ENDBRANCH  10  11
BRANCH   9  17
ATOM     17  C   UNL     1      -0.548  15.461  22.725  0.00  0.00    +0.000 C 
ATOM     18  F   UNL     1      -1.281  16.013  23.747  0.00  0.00    +0.000 F 
ATOM     19  F   UNL     1       0.736  15.798  23.025  0.00  0.00    +0.000 F 
ATOM     20  F   UNL     1      -0.917  16.180  21.627  0.00  0.00    +0.000 F 
ENDBRANCH   9  17
ENDBRANCH   3   5
BRANCH   2  21
ATOM     21  C   UNL     1       1.545   8.879  20.197  0.00  0.00    +0.000 A 
ATOM     22  C   UNL     1       1.697   9.310  18.875  0.00  0.00    +0.000 A 
ATOM     23  C   UNL     1       2.006   8.396  17.874  0.00  0.00    +0.000 A 
ATOM     24  C   UNL     1       2.169   7.044  18.187  0.00  0.00    +0.000 A 
ATOM     25  C   UNL     1       2.122   6.587  19.515  0.00  0.00    +0.000 A 
ATOM     26  C   UNL     1       1.785   7.535  20.509  0.00  0.00    +0.000 A 
BRANCH  25  27
ATOM     27  C   UNL     1       2.318   5.167  19.901  0.00  0.00    +0.000 A 
ATOM     28  N   UNL     1       1.248   4.675  20.595  0.00  0.00    +0.000 NA
ATOM     29  C   UNL     1       1.242   3.388  20.994  0.00  0.00    +0.000 A 
ATOM     30  C   UNL     1       2.267   2.515  20.722  0.00  0.00    +0.000 A 
ATOM     31  C   UNL     1       3.367   3.010  20.036  0.00  0.00    +0.000 A 
ATOM     32  C   UNL     1       3.430   4.363  19.640  0.00  0.00    +0.000 A 
BRANCH  32  33
ATOM     33  C   UNL     1       4.695   4.818  18.971  0.00  0.00    +0.000 C 
ATOM     34  F   UNL     1       5.314   5.890  19.531  0.00  0.00    +0.000 F 
ATOM     35  F   UNL     1       5.650   3.840  18.963  0.00  0.00    +0.000 F 
ATOM     36  F   UNL     1       4.494   5.136  17.662  0.00  0.00    +0.000 F 
ENDBRANCH  32  33
ENDBRANCH  25  27
ENDBRANCH   2  21
TORSDOF 6
ENDMDL
MODEL 2
REMARK VINA RESULT:      -8.1      2.402     10.097
REMARK  Name = 
REMARK  6 active torsions:
REMARK  status: ('A' for Active; 'I' for Inactive)
REMARK    1  A    between atoms: C_2  and  C_20
REMARK    2  A    between atoms: N_3  and  C_4
REMARK    3  A    between atoms: C_8  and  C_9
REMARK    4  A    between atoms: C_13  and  C_14
REMARK    5  A    between atoms: C_24  and  C_25
REMARK    6  A    between atoms: C_30  and  C_31
REMARK                            x       y       z     vdW  Elec       q    Type
REMARK                         _______ _______ _______ _____ _____    ______ ____
ROOT
ATOM      1  O   UNL     1       1.323   8.719  17.851  0.00  0.00    +0.000 OA
ATOM      2  C   UNL     1       1.720   8.470  18.988  0.00  0.00    +0.000 C 
ATOM      3  N   UNL     1       2.711   7.554  19.305  0.00  0.00    +0.000 N 
ATOM      4  H   UNL     1       2.808   7.282  20.272  0.00  0.00    +0.000 HD
ENDROOT
BRANCH   3   5
ATOM      5  C   UNL     1       3.361   6.735  18.343  0.00  0.00    +0.000 A 
ATOM      6  C   UNL     1       4.107   7.374  17.337  0.00  0.00    +0.000 A 
ATOM      7  C   UNL     1       4.797   6.650  16.380  0.00  0.00    +0.000 A 
ATOM      8  C   UNL     1       4.746   5.268  16.412  0.00  0.00    +0.000 A 
ATOM      9  C   UNL     1       4.004   4.579  17.403  0.00  0.00    +0.000 A 
ATOM     10  C   UNL     1       3.303   5.308  18.415  0.00  0.00    +0.000 A 
BRANCH  10  11
ATOM     11  C   UNL     1       2.534   4.595  19.479  0.00  0.00    +0.000 A 
ATOM     12  C   UNL     1       2.982   4.414  20.791  0.00  0.00    +0.000 A 
ATOM     13  C   UNL     1       2.264   3.599  21.665  0.00  0.00    +0.000 A 
ATOM     14  C   UNL     1       1.051   3.068  21.256  0.00  0.00    +0.000 A 
ATOM     15  C   UNL     1       0.623   3.361  19.977  0.00  0.00    +0.000 A 
ATOM     16  N   UNL     1       1.353   4.070  19.085  0.00  0.00    +0.000 NA
ENDBRANCH  10  11
BRANCH   9  17
ATOM     17  C   UNL     1       3.976   3.062  17.296  0.00  0.00    +0.000 C 
ATOM     18  F   UNL     1       2.754   2.602  16.868  0.00  0.00    +0.000 F 
ATOM     19  F   UNL     1       4.855   2.539  16.397  0.00  0.00    +0.000 F 
ATOM     20  F   UNL     1       4.172   2.422  18.484  0.00  0.00    +0.000 F 
ENDBRANCH   9  17
ENDBRANCH   3   5
BRANCH   2  21
ATOM     21  C   UNL     1       1.026   9.128  20.130  0.00  0.00    +0.000 A 
ATOM     22  C   UNL     1       0.482   8.308  21.123  0.00  0.00    +0.000 A 
ATOM     23  C   UNL     1      -0.289   8.860  22.140  0.00  0.00    +0.000 A 
ATOM     24  C   UNL     1      -0.519  10.238  22.174  0.00  0.00    +0.000 A 
ATOM     25  C   UNL     1       0.089  11.107  21.252  0.00  0.00    +0.000 A 
ATOM     26  C   UNL     1       0.850  10.514  20.217  0.00  0.00    +0.000 A 
BRANCH  25  27
ATOM     27  C   UNL     1      -0.101  12.579  21.265  0.00  0.00    +0.000 A 
ATOM     28  N   UNL     1       1.046  13.237  21.608  0.00  0.00    +0.000 NA
ATOM     29  C   UNL     1       1.063  14.584  21.636  0.00  0.00    +0.000 A 
ATOM     30  C   UNL     1      -0.028  15.354  21.315  0.00  0.00    +0.000 A 
ATOM     31  C   UNL     1      -1.204  14.695  20.985  0.00  0.00    +0.000 A 
ATOM     32  C   UNL     1      -1.274  13.285  20.988  0.00  0.00    +0.000 A 
BRANCH  32  33
ATOM     33  C   UNL     1      -2.611  12.671  20.691  0.00  0.00    +0.000 C 
ATOM     34  F   UNL     1      -2.621  11.691  19.749  0.00  0.00    +0.000 F 
ATOM     35  F   UNL     1      -3.162  12.085  21.796  0.00  0.00    +0.000 F 
ATOM     36  F   UNL     1      -3.521  13.599  20.284  0.00  0.00    +0.000 F 
ENDBRANCH  32  33
ENDBRANCH  25  27
ENDBRANCH   2  21
TORSDOF 6
ENDMDL
MODEL 3
REMARK VINA RESULT:      -8.1      2.280      4.079
REMARK  Name = 
REMARK  6 active torsions:
REMARK  status: ('A' for Active; 'I' for Inactive)
REMARK    1  A    between atoms: C_2  and  C_20
REMARK    2  A    between atoms: N_3  and  C_4
REMARK    3  A    between atoms: C_8  and  C_9
REMARK    4  A    between atoms: C_13  and  C_14
REMARK    5  A    between atoms: C_24  and  C_25
REMARK    6  A    between atoms: C_30  and  C_31
REMARK                            x       y       z     vdW  Elec       q    Type
REMARK                         _______ _______ _______ _____ _____    ______ ____
ROOT
ATOM      1  O   UNL     1       0.391  10.663  17.910  0.00  0.00    +0.000 OA
ATOM      2  C   UNL     1       1.151  10.446  18.853  0.00  0.00    +0.000 C 
ATOM      3  N   UNL     1       1.813  11.420  19.585  0.00  0.00    +0.000 N 
ATOM      4  H   UNL     1       2.563  11.123  20.191  0.00  0.00    +0.000 HD
ENDROOT
BRANCH   3   5
ATOM      5  C   UNL     1       1.739  12.808  19.293  0.00  0.00    +0.000 A 
ATOM      6  C   UNL     1       2.722  13.352  18.447  0.00  0.00    +0.000 A 
ATOM      7  C   UNL     1       2.706  14.688  18.087  0.00  0.00    +0.000 A 
ATOM      8  C   UNL     1       1.703  15.506  18.575  0.00  0.00    +0.000 A 
ATOM      9  C   UNL     1       0.693  15.006  19.434  0.00  0.00    +0.000 A 
ATOM     10  C   UNL     1       0.679  13.624  19.800  0.00  0.00    +0.000 A 
BRANCH  10  11
ATOM     11  C   UNL     1      -0.391  13.077  20.687  0.00  0.00    +0.000 A 
ATOM     12  C   UNL     1      -1.696  12.795  20.271  0.00  0.00    +0.000 A 
ATOM     13  C   UNL     1      -2.664  12.438  21.209  0.00  0.00    +0.000 A 
ATOM     14  C   UNL     1      -2.293  12.256  22.532  0.00  0.00    +0.000 A 
ATOM     15  C   UNL     1      -0.968  12.462  22.858  0.00  0.00    +0.000 A 
ATOM     16  N   UNL     1      -0.037  12.902  21.979  0.00  0.00    +0.000 NA
ENDBRANCH  10  11
BRANCH   9  17
ATOM     17  C   UNL     1      -0.318  16.018  19.953  0.00  0.00    +0.000 C 
ATOM     18  F   UNL     1       0.021  17.303  19.606  0.00  0.00    +0.000 F 
ATOM     19  F   UNL     1      -1.578  15.867  19.459  0.00  0.00    +0.000 F 
ATOM     20  F   UNL     1      -0.410  16.056  21.312  0.00  0.00    +0.000 F 
ENDBRANCH   9  17
ENDBRANCH   3   5
BRANCH   2  21
ATOM     21  C   UNL     1       1.465   9.029  19.186  0.00  0.00    +0.000 A 
ATOM     22  C   UNL     1       0.996   8.525  20.403  0.00  0.00    +0.000 A 
ATOM     23  C   UNL     1       1.371   7.253  20.824  0.00  0.00    +0.000 A 
ATOM     24  C   UNL     1       2.215   6.475  20.028  0.00  0.00    +0.000 A 
ATOM     25  C   UNL     1       2.630   6.905  18.756  0.00  0.00    +0.000 A 
ATOM     26  C   UNL     1       2.250   8.210  18.365  0.00  0.00    +0.000 A 
BRANCH  25  27
ATOM     27  C   UNL     1       3.502   6.101  17.863  0.00  0.00    +0.000 A 
ATOM     28  N   UNL     1       4.567   6.826  17.406  0.00  0.00    +0.000 NA
ATOM     29  C   UNL     1       5.482   6.240  16.609  0.00  0.00    +0.000 A 
ATOM     30  C   UNL     1       5.415   4.920  16.234  0.00  0.00    +0.000 A 
ATOM     31  C   UNL     1       4.326   4.182  16.676  0.00  0.00    +0.000 A 
ATOM     32  C   UNL     1       3.323   4.771  17.476  0.00  0.00    +0.000 A 
BRANCH  32  33
ATOM     33  C   UNL     1       2.150   3.909  17.839  0.00  0.00    +0.000 C 
ATOM     34  F   UNL     1       1.972   3.669  19.164  0.00  0.00    +0.000 F 
ATOM     35  F   UNL     1       0.966   4.457  17.431  0.00  0.00    +0.000 F 
ATOM     36  F   UNL     1       2.207   2.688  17.236  0.00  0.00    +0.000 F 
ENDBRANCH  32  33
ENDBRANCH  25  27
ENDBRANCH   2  21
TORSDOF 6
ENDMDL
MODEL 4
REMARK VINA RESULT:      -8.1      2.750     10.022
REMARK  Name = 
REMARK  6 active torsions:
REMARK  status: ('A' for Active; 'I' for Inactive)
REMARK    1  A    between atoms: C_2  and  C_20
REMARK    2  A    between atoms: N_3  and  C_4
REMARK    3  A    between atoms: C_8  and  C_9
REMARK    4  A    between atoms: C_13  and  C_14
REMARK    5  A    between atoms: C_24  and  C_25
REMARK    6  A    between atoms: C_30  and  C_31
REMARK                            x       y       z     vdW  Elec       q    Type
REMARK                         _______ _______ _______ _____ _____    ______ ____
ROOT
ATOM      1  O   UNL     1       1.571   8.915  17.942  0.00  0.00    +0.000 OA
ATOM      2  C   UNL     1       1.809   8.506  19.078  0.00  0.00    +0.000 C 
ATOM      3  N   UNL     1       2.658   7.454  19.386  0.00  0.00    +0.000 N 
ATOM      4  H   UNL     1       2.616   7.075  20.321  0.00  0.00    +0.000 HD
ENDROOT
BRANCH   3   5
ATOM      5  C   UNL     1       3.323   6.668  18.407  0.00  0.00    +0.000 A 
ATOM      6  C   UNL     1       4.059   7.342  17.417  0.00  0.00    +0.000 A 
ATOM      7  C   UNL     1       4.762   6.652  16.445  0.00  0.00    +0.000 A 
ATOM      8  C   UNL     1       4.735   5.269  16.447  0.00  0.00    +0.000 A 
ATOM      9  C   UNL     1       4.004   4.545  17.421  0.00  0.00    +0.000 A 
ATOM     10  C   UNL     1       3.289   5.239  18.447  0.00  0.00    +0.000 A 
BRANCH  10  11
ATOM     11  C   UNL     1       2.532   4.489  19.494  0.00  0.00    +0.000 A 
ATOM     12  C   UNL     1       3.000   4.250  20.789  0.00  0.00    +0.000 A 
ATOM     13  C   UNL     1       2.289   3.406  21.642  0.00  0.00    +0.000 A 
ATOM     14  C   UNL     1       1.064   2.902  21.232  0.00  0.00    +0.000 A 
ATOM     15  C   UNL     1       0.617   3.253  19.974  0.00  0.00    +0.000 A 
ATOM     16  N   UNL     1       1.339   3.992  19.099  0.00  0.00    +0.000 NA
ENDBRANCH  10  11
BRANCH   9  17
ATOM     17  C   UNL     1       4.002   3.030  17.279  0.00  0.00    +0.000 C 
ATOM     18  F   UNL     1       4.310   2.405  18.463  0.00  0.00    +0.000 F 
ATOM     19  F   UNL     1       2.800   2.494  16.929  0.00  0.00    +0.000 F 
ATOM     20  F   UNL     1       4.934   2.558  16.404  0.00  0.00    +0.000 F 
ENDBRANCH   9  17
ENDBRANCH   3   5
BRANCH   2  21
ATOM     21  C   UNL     1       1.064   9.120  20.212  0.00  0.00    +0.000 A 
ATOM     22  C   UNL     1       0.690   8.289  21.273  0.00  0.00    +0.000 A 
ATOM     23  C   UNL     1      -0.121   8.779  22.292  0.00  0.00    +0.000 A 
ATOM     24  C   UNL     1      -0.560  10.105  22.259  0.00  0.00    +0.000 A 
ATOM     25  C   UNL     1      -0.127  10.998  21.264  0.00  0.00    +0.000 A 
ATOM     26  C   UNL     1       0.679  10.466  20.230  0.00  0.00    +0.000 A 
BRANCH  25  27
ATOM     27  C   UNL     1      -0.542  12.422  21.204  0.00  0.00    +0.000 A 
ATOM     28  N   UNL     1       0.065  13.170  22.174  0.00  0.00    +0.000 NA
ATOM     29  C   UNL     1      -0.171  14.494  22.244  0.00  0.00    +0.000 A 
ATOM     30  C   UNL     1      -0.994  15.157  21.366  0.00  0.00    +0.000 A 
ATOM     31  C   UNL     1      -1.632  14.402  20.391  0.00  0.00    +0.000 A 
ATOM     32  C   UNL     1      -1.444  13.006  20.312  0.00  0.00    +0.000 A 
BRANCH  32  33
ATOM     33  C   UNL     1      -2.238  12.271  19.271  0.00  0.00    +0.000 C 
ATOM     34  F   UNL     1      -2.279  10.919  19.396  0.00  0.00    +0.000 F 
ATOM     35  F   UNL     1      -3.551  12.651  19.265  0.00  0.00    +0.000 F 
ATOM     36  F   UNL     1      -1.784  12.523  18.011  0.00  0.00    +0.000 F 
ENDBRANCH  32  33
ENDBRANCH  25  27
ENDBRANCH   2  21
TORSDOF 6
ENDMDL
MODEL 5
REMARK VINA RESULT:      -8.1      2.828      9.958
REMARK  Name = 
REMARK  6 active torsions:
REMARK  status: ('A' for Active; 'I' for Inactive)
REMARK    1  A    between atoms: C_2  and  C_20
REMARK    2  A    between atoms: N_3  and  C_4
REMARK    3  A    between atoms: C_8  and  C_9
REMARK    4  A    between atoms: C_13  and  C_14
REMARK    5  A    between atoms: C_24  and  C_25
REMARK    6  A    between atoms: C_30  and  C_31
REMARK                            x       y       z     vdW  Elec       q    Type
REMARK                         _______ _______ _______ _____ _____    ______ ____
ROOT
ATOM      1  O   UNL     1       1.818   9.141  18.072  0.00  0.00    +0.000 OA
ATOM      2  C   UNL     1       1.884   8.568  19.158  0.00  0.00    +0.000 C 
ATOM      3  N   UNL     1       2.602   7.407  19.404  0.00  0.00    +0.000 N 
ATOM      4  H   UNL     1       2.418   6.916  20.267  0.00  0.00    +0.000 HD
ENDROOT
BRANCH   3   5
ATOM      5  C   UNL     1       3.312   6.693  18.402  0.00  0.00    +0.000 A 
ATOM      6  C   UNL     1       4.058   7.439  17.473  0.00  0.00    +0.000 A 
ATOM      7  C   UNL     1       4.803   6.821  16.483  0.00  0.00    +0.000 A 
ATOM      8  C   UNL     1       4.808   5.440  16.406  0.00  0.00    +0.000 A 
ATOM      9  C   UNL     1       4.069   4.646  17.316  0.00  0.00    +0.000 A 
ATOM     10  C   UNL     1       3.310   5.264  18.359  0.00  0.00    +0.000 A 
BRANCH  10  11
ATOM     11  C   UNL     1       2.542   4.439  19.340  0.00  0.00    +0.000 A 
ATOM     12  C   UNL     1       1.316   3.825  19.069  0.00  0.00    +0.000 A 
ATOM     13  C   UNL     1       0.603   3.209  20.097  0.00  0.00    +0.000 A 
ATOM     14  C   UNL     1       1.174   3.115  21.356  0.00  0.00    +0.000 A 
ATOM     15  C   UNL     1       2.428   3.663  21.533  0.00  0.00    +0.000 A 
ATOM     16  N   UNL     1       3.091   4.347  20.572  0.00  0.00    +0.000 NA
ENDBRANCH  10  11
BRANCH   9  17
ATOM     17  C   UNL     1       4.106   3.142  17.088  0.00  0.00    +0.000 C 
ATOM     18  F   UNL     1       2.921   2.673  16.577  0.00  0.00    +0.000 F 
ATOM     19  F   UNL     1       5.038   2.727  16.187  0.00  0.00    +0.000 F 
ATOM     20  F   UNL     1       4.284   2.417  18.229  0.00  0.00    +0.000 F 
ENDBRANCH   9  17
ENDBRANCH   3   5
BRANCH   2  21
ATOM     21  C   UNL     1       1.063   9.099  20.280  0.00  0.00    +0.000 A 
ATOM     22  C   UNL     1       0.678   8.207  21.287  0.00  0.00    +0.000 A 
ATOM     23  C   UNL     1      -0.198   8.617  22.286  0.00  0.00    +0.000 A 
ATOM     24  C   UNL     1      -0.693   9.924  22.289  0.00  0.00    +0.000 A 
ATOM     25  C   UNL     1      -0.256  10.877  21.354  0.00  0.00    +0.000 A 
ATOM     26  C   UNL     1       0.618  10.426  20.337  0.00  0.00    +0.000 A 
BRANCH  25  27
ATOM     27  C   UNL     1      -0.730  12.284  21.335  0.00  0.00    +0.000 A 
ATOM     28  N   UNL     1      -0.242  12.999  22.392  0.00  0.00    +0.000 NA
ATOM     29  C   UNL     1      -0.545  14.307  22.513  0.00  0.00    +0.000 A 
ATOM     30  C   UNL     1      -1.320  14.984  21.603  0.00  0.00    +0.000 A 
ATOM     31  C   UNL     1      -1.837  14.261  20.537  0.00  0.00    +0.000 A 
ATOM     32  C   UNL     1      -1.579  12.880  20.400  0.00  0.00    +0.000 A 
BRANCH  32  33
ATOM     33  C   UNL     1      -2.246  12.174  19.255  0.00  0.00    +0.000 C 
ATOM     34  F   UNL     1      -2.223  10.816  19.297  0.00  0.00    +0.000 F 
ATOM     35  F   UNL     1      -3.573  12.489  19.163  0.00  0.00    +0.000 F 
ATOM     36  F   UNL     1      -1.708  12.527  18.054  0.00  0.00    +0.000 F 
ENDBRANCH  32  33
ENDBRANCH  25  27
ENDBRANCH   2  21
TORSDOF 6
ENDMDL
MODEL 6
REMARK VINA RESULT:      -8.0      2.422     10.065
REMARK  Name = 
REMARK  6 active torsions:
REMARK  status: ('A' for Active; 'I' for Inactive)
REMARK    1  A    between atoms: C_2  and  C_20
REMARK    2  A    between atoms: N_3  and  C_4
REMARK    3  A    between atoms: C_8  and  C_9
REMARK    4  A    between atoms: C_13  and  C_14
REMARK    5  A    between atoms: C_24  and  C_25
REMARK    6  A    between atoms: C_30  and  C_31
REMARK                            x       y       z     vdW  Elec       q    Type
REMARK                         _______ _______ _______ _____ _____    ______ ____
ROOT
ATOM      1  O   UNL     1       1.663   9.034  17.816  0.00  0.00    +0.000 OA
ATOM      2  C   UNL     1       1.868   8.595  18.947  0.00  0.00    +0.000 C 
ATOM      3  N   UNL     1       2.699   7.527  19.250  0.00  0.00    +0.000 N 
ATOM      4  H   UNL     1       2.630   7.126  20.174  0.00  0.00    +0.000 HD
ENDROOT
BRANCH   3   5
ATOM      5  C   UNL     1       3.379   6.757  18.269  0.00  0.00    +0.000 A 
ATOM      6  C   UNL     1       4.129   7.448  17.301  0.00  0.00    +0.000 A 
ATOM      7  C   UNL     1       4.847   6.773  16.328  0.00  0.00    +0.000 A 
ATOM      8  C   UNL     1       4.821   5.390  16.307  0.00  0.00    +0.000 A 
ATOM      9  C   UNL     1       4.076   4.650  17.258  0.00  0.00    +0.000 A 
ATOM     10  C   UNL     1       3.346   5.327  18.285  0.00  0.00    +0.000 A 
BRANCH  10  11
ATOM     11  C   UNL     1       2.573   4.560  19.308  0.00  0.00    +0.000 A 
ATOM     12  C   UNL     1       1.341   3.944  19.071  0.00  0.00    +0.000 A 
ATOM     13  C   UNL     1       0.625   3.389  20.131  0.00  0.00    +0.000 A 
ATOM     14  C   UNL     1       1.198   3.354  21.392  0.00  0.00    +0.000 A 
ATOM     15  C   UNL     1       2.458   3.899  21.538  0.00  0.00    +0.000 A 
ATOM     16  N   UNL     1       3.125   4.527  20.542  0.00  0.00    +0.000 NA
ENDBRANCH  10  11
BRANCH   9  17
ATOM     17  C   UNL     1       4.078   3.138  17.092  0.00  0.00    +0.000 C 
ATOM     18  F   UNL     1       4.334   2.493  18.277  0.00  0.00    +0.000 F 
ATOM     19  F   UNL     1       2.891   2.611  16.684  0.00  0.00    +0.000 F 
ATOM     20  F   UNL     1       5.045   2.678  16.249  0.00  0.00    +0.000 F 
ENDBRANCH   9  17
ENDBRANCH   3   5
BRANCH   2  21
ATOM     21  C   UNL     1       1.102   9.190  20.078  0.00  0.00    +0.000 A 
ATOM     22  C   UNL     1       0.514   8.316  20.998  0.00  0.00    +0.000 A 
ATOM     23  C   UNL     1      -0.321   8.811  21.994  0.00  0.00    +0.000 A 
ATOM     24  C   UNL     1      -0.571  10.183  22.080  0.00  0.00    +0.000 A 
ATOM     25  C   UNL     1       0.077  11.102  21.237  0.00  0.00    +0.000 A 
ATOM     26  C   UNL     1       0.903  10.568  20.220  0.00  0.00    +0.000 A 
BRANCH  25  27
ATOM     27  C   UNL     1      -0.134  12.569  21.309  0.00  0.00    +0.000 A 
ATOM     28  N   UNL     1       1.002  13.227  21.691  0.00  0.00    +0.000 NA
ATOM     29  C   UNL     1       1.000  14.572  21.775  0.00  0.00    +0.000 A 
ATOM     30  C   UNL     1      -0.099  15.341  21.476  0.00  0.00    +0.000 A 
ATOM     31  C   UNL     1      -1.262  14.680  21.108  0.00  0.00    +0.000 A 
ATOM     32  C   UNL     1      -1.313  13.271  21.051  0.00  0.00    +0.000 A 
BRANCH  32  33
ATOM     33  C   UNL     1      -2.639  12.652  20.716  0.00  0.00    +0.000 C 
ATOM     34  F   UNL     1      -3.277  12.022  21.736  0.00  0.00    +0.000 F 
ATOM     35  F   UNL     1      -3.540  13.579  20.272  0.00  0.00    +0.000 F 
ATOM     36  F   UNL     1      -2.537  11.739  19.709  0.00  0.00    +0.000 F 
ENDBRANCH  32  33
ENDBRANCH  25  27
ENDBRANCH   2  21
TORSDOF 6
ENDMDL
MODEL 7
REMARK VINA RESULT:      -8.0      2.846      9.171
REMARK  Name = 
REMARK  6 active torsions:
REMARK  status: ('A' for Active; 'I' for Inactive)
REMARK    1  A    between atoms: C_2  and  C_20
REMARK    2  A    between atoms: N_3  and  C_4
REMARK    3  A    between atoms: C_8  and  C_9
REMARK    4  A    between atoms: C_13  and  C_14
REMARK    5  A    between atoms: C_24  and  C_25
REMARK    6  A    between atoms: C_30  and  C_31
REMARK                            x       y       z     vdW  Elec       q    Type
REMARK                         _______ _______ _______ _____ _____    ______ ____
ROOT
ATOM      1  O   UNL     1       1.330   6.955  17.489  0.00  0.00    +0.000 OA
ATOM      2  C   UNL     1       1.670   7.448  18.564  0.00  0.00    +0.000 C 
ATOM      3  N   UNL     1       2.072   6.730  19.679  0.00  0.00    +0.000 N 
ATOM      4  H   UNL     1       2.126   7.221  20.559  0.00  0.00    +0.000 HD
ENDROOT
BRANCH   3   5
ATOM      5  C   UNL     1       2.085   5.310  19.737  0.00  0.00    +0.000 A 
ATOM      6  C   UNL     1       1.001   4.672  20.365  0.00  0.00    +0.000 A 
ATOM      7  C   UNL     1       0.919   3.292  20.437  0.00  0.00    +0.000 A 
ATOM      8  C   UNL     1       1.930   2.526  19.885  0.00  0.00    +0.000 A 
ATOM      9  C   UNL     1       3.045   3.123  19.247  0.00  0.00    +0.000 A 
ATOM     10  C   UNL     1       3.137   4.547  19.142  0.00  0.00    +0.000 A 
BRANCH  10  11
ATOM     11  C   UNL     1       4.296   5.191  18.453  0.00  0.00    +0.000 A 
ATOM     12  C   UNL     1       4.309   5.559  17.104  0.00  0.00    +0.000 A 
ATOM     13  C   UNL     1       5.492   6.007  16.517  0.00  0.00    +0.000 A 
ATOM     14  C   UNL     1       6.615   6.190  17.307  0.00  0.00    +0.000 A 
ATOM     15  C   UNL     1       6.508   5.893  18.650  0.00  0.00    +0.000 A 
ATOM     16  N   UNL     1       5.397   5.367  19.217  0.00  0.00    +0.000 NA
ENDBRANCH  10  11
BRANCH   9  17
ATOM     17  C   UNL     1       4.120   2.176  18.734  0.00  0.00    +0.000 C 
ATOM     18  F   UNL     1       3.683   0.875  18.703  0.00  0.00    +0.000 F 
ATOM     19  F   UNL     1       4.526   2.416  17.457  0.00  0.00    +0.000 F 
ATOM     20  F   UNL     1       5.234   2.132  19.519  0.00  0.00    +0.000 F 
ENDBRANCH   9  17
ENDBRANCH   3   5
BRANCH   2  21
ATOM     21  C   UNL     1       1.557   8.925  18.722  0.00  0.00    +0.000 A 
ATOM     22  C   UNL     1       2.335   9.732  17.886  0.00  0.00    +0.000 A 
ATOM     23  C   UNL     1       2.370  11.109  18.079  0.00  0.00    +0.000 A 
ATOM     24  C   UNL     1       1.623  11.689  19.108  0.00  0.00    +0.000 A 
ATOM     25  C   UNL     1       0.754  10.926  19.906  0.00  0.00    +0.000 A 
ATOM     26  C   UNL     1       0.757   9.526  19.701  0.00  0.00    +0.000 A 
BRANCH  25  27
ATOM     27  C   UNL     1      -0.080  11.501  20.991  0.00  0.00    +0.000 A 
ATOM     28  N   UNL     1      -0.541  12.748  20.671  0.00  0.00    +0.000 NA
ATOM     29  C   UNL     1      -1.345  13.405  21.529  0.00  0.00    +0.000 A 
ATOM     30  C   UNL     1      -1.753  12.875  22.729  0.00  0.00    +0.000 A 
ATOM     31  C   UNL     1      -1.274  11.620  23.072  0.00  0.00    +0.000 A 
ATOM     32  C   UNL     1      -0.394  10.918  22.220  0.00  0.00    +0.000 A 
BRANCH  32  33
ATOM     33  C   UNL     1       0.127   9.601  22.717  0.00  0.00    +0.000 C 
ATOM     34  F   UNL     1       1.450   9.369  22.515  0.00  0.00    +0.000 F 
ATOM     35  F   UNL     1      -0.041   9.459  24.066  0.00  0.00    +0.000 F 
ATOM     36  F   UNL     1      -0.533   8.547  22.159  0.00  0.00    +0.000 F 
ENDBRANCH  32  33
ENDBRANCH  25  27
ENDBRANCH   2  21
TORSDOF 6
ENDMDL
MODEL 8
REMARK VINA RESULT:      -7.9      1.788      2.197
REMARK  Name = 
REMARK  6 active torsions:
REMARK  status: ('A' for Active; 'I' for Inactive)
REMARK    1  A    between atoms: C_2  and  C_20
REMARK    2  A    between atoms: N_3  and  C_4
REMARK    3  A    between atoms: C_8  and  C_9
REMARK    4  A    between atoms: C_13  and  C_14
REMARK    5  A    between atoms: C_24  and  C_25
REMARK    6  A    between atoms: C_30  and  C_31
REMARK                            x       y       z     vdW  Elec       q    Type
REMARK                         _______ _______ _______ _____ _____    ______ ____
ROOT
ATOM      1  O   UNL     1       0.203   8.214  21.543  0.00  0.00    +0.000 OA
ATOM      2  C   UNL     1       0.915   8.886  20.798  0.00  0.00    +0.000 C 
ATOM      3  N   UNL     1       0.950  10.272  20.763  0.00  0.00    +0.000 N 
ATOM      4  H   UNL     1       1.409  10.710  19.978  0.00  0.00    +0.000 HD
ENDROOT
BRANCH   3   5
ATOM      5  C   UNL     1       0.112  11.100  21.556  0.00  0.00    +0.000 A 
ATOM      6  C   UNL     1      -0.798  10.469  22.423  0.00  0.00    +0.000 A 
ATOM      7  C   UNL     1      -1.630  11.201  23.254  0.00  0.00    +0.000 A 
ATOM      8  C   UNL     1      -1.566  12.583  23.224  0.00  0.00    +0.000 A 
ATOM      9  C   UNL     1      -0.669  13.264  22.364  0.00  0.00    +0.000 A 
ATOM     10  C   UNL     1       0.214  12.525  21.515  0.00  0.00    +0.000 A 
BRANCH  10  11
ATOM     11  C   UNL     1       1.181  13.228  20.619  0.00  0.00    +0.000 A 
ATOM     12  C   UNL     1       0.899  13.627  19.309  0.00  0.00    +0.000 A 
ATOM     13  C   UNL     1       1.917  14.133  18.501  0.00  0.00    +0.000 A 
ATOM     14  C   UNL     1       3.174  14.341  19.044  0.00  0.00    +0.000 A 
ATOM     15  C   UNL     1       3.360  14.012  20.372  0.00  0.00    +0.000 A 
ATOM     16  N   UNL     1       2.411  13.430  21.141  0.00  0.00    +0.000 NA
ENDBRANCH  10  11
BRANCH   9  17
ATOM     17  C   UNL     1      -0.737  14.783  22.380  0.00  0.00    +0.000 C 
ATOM     18  F   UNL     1      -1.099  15.292  21.156  0.00  0.00    +0.000 F 
ATOM     19  F   UNL     1      -1.661  15.302  23.235  0.00  0.00    +0.000 F 
ATOM     20  F   UNL     1       0.457  15.385  22.648  0.00  0.00    +0.000 F 
ENDBRANCH   9  17
ENDBRANCH   3   5
BRANCH   2  21
ATOM     21  C   UNL     1       1.739   8.169  19.786  0.00  0.00    +0.000 A 
ATOM     22  C   UNL     1       1.990   8.816  18.572  0.00  0.00    +0.000 A 
ATOM     23  C   UNL     1       2.640   8.142  17.543  0.00  0.00    +0.000 A 
ATOM     24  C   UNL     1       3.047   6.818  17.722  0.00  0.00    +0.000 A 
ATOM     25  C   UNL     1       2.901   6.165  18.958  0.00  0.00    +0.000 A 
ATOM     26  C   UNL     1       2.218   6.867  19.978  0.00  0.00    +0.000 A 
BRANCH  25  27
ATOM     27  C   UNL     1       3.345   4.770  19.205  0.00  0.00    +0.000 A 
ATOM     28  N   UNL     1       4.692   4.695  19.421  0.00  0.00    +0.000 NA
ATOM     29  C   UNL     1       5.261   3.505  19.697  0.00  0.00    +0.000 A 
ATOM     30  C   UNL     1       4.545   2.337  19.793  0.00  0.00    +0.000 A 
ATOM     31  C   UNL     1       3.180   2.399  19.554  0.00  0.00    +0.000 A 
ATOM     32  C   UNL     1       2.554   3.619  19.219  0.00  0.00    +0.000 A 
BRANCH  32  33
ATOM     33  C   UNL     1       1.087   3.566  18.906  0.00  0.00    +0.000 C 
ATOM     34  F   UNL     1       0.697   4.200  17.769  0.00  0.00    +0.000 F 
ATOM     35  F   UNL     1       0.642   2.283  18.749  0.00  0.00    +0.000 F 
ATOM     36  F   UNL     1       0.331   4.089  19.912  0.00  0.00    +0.000 F 
ENDBRANCH  32  33
ENDBRANCH  25  27
ENDBRANCH   2  21
TORSDOF 6
ENDMDL
MODEL 9
REMARK VINA RESULT:      -7.9      0.562      1.213
REMARK  Name = 
REMARK  6 active torsions:
REMARK  status: ('A' for Active; 'I' for Inactive)
REMARK    1  A    between atoms: C_2  and  C_20
REMARK    2  A    between atoms: N_3  and  C_4
REMARK    3  A    between atoms: C_8  and  C_9
REMARK    4  A    between atoms: C_13  and  C_14
REMARK    5  A    between atoms: C_24  and  C_25
REMARK    6  A    between atoms: C_30  and  C_31
REMARK                            x       y       z     vdW  Elec       q    Type
REMARK                         _______ _______ _______ _____ _____    ______ ____
ROOT
ATOM      1  O   UNL     1       1.391   9.584  22.352  0.00  0.00    +0.000 OA
ATOM      2  C   UNL     1       1.153   9.803  21.164  0.00  0.00    +0.000 C 
ATOM      3  N   UNL     1       0.427  10.881  20.682  0.00  0.00    +0.000 N 
ATOM      4  H   UNL     1       0.119  10.847  19.721  0.00  0.00    +0.000 HD
ENDROOT
BRANCH   3   5
ATOM      5  C   UNL     1      -0.191  11.850  21.517  0.00  0.00    +0.000 A 
ATOM      6  C   UNL     1      -1.224  11.417  22.367  0.00  0.00    +0.000 A 
ATOM      7  C   UNL     1      -1.857  12.289  23.235  0.00  0.00    +0.000 A 
ATOM      8  C   UNL     1      -1.468  13.616  23.261  0.00  0.00    +0.000 A 
ATOM      9  C   UNL     1      -0.437  14.101  22.420  0.00  0.00    +0.000 A 
ATOM     10  C   UNL     1       0.246  13.211  21.532  0.00  0.00    +0.000 A 
BRANCH  10  11
ATOM     11  C   UNL     1       1.350  13.703  20.655  0.00  0.00    +0.000 A 
ATOM     12  C   UNL     1       2.665  13.911  21.080  0.00  0.00    +0.000 A 
ATOM     13  C   UNL     1       3.585  14.522  20.228  0.00  0.00    +0.000 A 
ATOM     14  C   UNL     1       3.213  14.813  18.925  0.00  0.00    +0.000 A 
ATOM     15  C   UNL     1       1.925  14.497  18.542  0.00  0.00    +0.000 A 
ATOM     16  N   UNL     1       0.993  13.993  19.384  0.00  0.00    +0.000 NA
ENDBRANCH  10  11
BRANCH   9  17
ATOM     17  C   UNL     1      -0.144  15.592  22.497  0.00  0.00    +0.000 C 
ATOM     18  F   UNL     1       1.107  15.841  23.006  0.00  0.00    +0.000 F 
ATOM     19  F   UNL     1      -0.142  16.234  21.297  0.00  0.00    +0.000 F 
ATOM     20  F   UNL     1      -0.981  16.275  23.329  0.00  0.00    +0.000 F 
ENDBRANCH   9  17
ENDBRANCH   3   5
BRANCH   2  21
ATOM     21  C   UNL     1       1.594   8.790  20.165  0.00  0.00    +0.000 A 
ATOM     22  C   UNL     1       1.723   9.200  18.835  0.00  0.00    +0.000 A 
ATOM     23  C   UNL     1       2.001   8.268  17.841  0.00  0.00    +0.000 A 
ATOM     24  C   UNL     1       2.157   6.919  18.171  0.00  0.00    +0.000 A 
ATOM     25  C   UNL     1       2.132   6.482  19.506  0.00  0.00    +0.000 A 
ATOM     26  C   UNL     1       1.826   7.449  20.493  0.00  0.00    +0.000 A 
BRANCH  25  27
ATOM     27  C   UNL     1       2.322   5.066  19.909  0.00  0.00    +0.000 A 
ATOM     28  N   UNL     1       1.246   4.585  20.602  0.00  0.00    +0.000 NA
ATOM     29  C   UNL     1       1.234   3.303  21.015  0.00  0.00    +0.000 A 
ATOM     30  C   UNL     1       2.258   2.423  20.759  0.00  0.00    +0.000 A 
ATOM     31  C   UNL     1       3.364   2.908  20.075  0.00  0.00    +0.000 A 
ATOM     32  C   UNL     1       3.433   4.256  19.664  0.00  0.00    +0.000 A 
BRANCH  32  33
ATOM     33  C   UNL     1       4.703   4.699  18.998  0.00  0.00    +0.000 C 
ATOM     34  F   UNL     1       4.588   5.111  17.708  0.00  0.00    +0.000 F 
ATOM     35  F   UNL     1       5.277   5.759  19.642  0.00  0.00    +0.000 F 
ATOM     36  F   UNL     1       5.651   3.720  19.001  0.00  0.00    +0.000 F 
ENDBRANCH  32  33
ENDBRANCH  25  27
ENDBRANCH   2  21
TORSDOF 6
ENDMDL
