MODEL 1
REMARK VINA RESULT:      -6.0      0.000      0.000
REMARK  Name = 
REMARK  2 active torsions:
REMARK  status: ('A' for Active; 'I' for Inactive)
REMARK    1  A    between atoms: C_1  and  N_2
REMARK    2  A    between atoms: C_6  and  C_7
REMARK                            x       y       z     vdW  Elec       q    Type
REMARK                         _______ _______ _______ _____ _____    ______ ____
ROOT
ATOM      1  C   UNL     1       4.922   1.543  20.622  0.00  0.00    +0.000 C 
ATOM      2  N   UNL     1       4.027   2.466  19.930  0.00  0.00    +0.000 N 
ATOM      3  C   UNL     1       2.892   2.826  20.655  0.00  0.00    +0.000 C 
ATOM      4  O   UNL     1       2.881   2.839  21.890  0.00  0.00    +0.000 OA
ATOM      5  C   UNL     1       1.580   2.937  19.898  0.00  0.00    +0.000 C 
ATOM      6  C   UNL     1       1.482   3.921  18.747  0.00  0.00    +0.000 C 
ATOM      7  S   UNL     1       2.490   3.341  17.335  0.00  0.00    +0.000 S 
ATOM      8  C   UNL     1       4.072   3.915  17.916  0.00  0.00    +0.000 A 
ATOM      9  C   UNL     1       4.712   4.890  17.135  0.00  0.00    +0.000 A 
ATOM     10  C   UNL     1       5.894   5.488  17.569  0.00  0.00    +0.000 A 
ATOM     11  C   UNL     1       6.451   5.100  18.777  0.00  0.00    +0.000 A 
ATOM     12  C   UNL     1       5.847   4.092  19.536  0.00  0.00    +0.000 A 
ATOM     13  C   UNL     1       4.649   3.483  19.122  0.00  0.00    +0.000 A 
ENDROOT
BRANCH   6  14
ATOM     14  C   UNL     1       1.739   5.350  19.129  0.00  0.00    +0.000 A 
ATOM     15  C   UNL     1       1.823   6.032  20.330  0.00  0.00    +0.000 A 
ATOM     16  C   UNL     1       2.146   7.373  20.015  0.00  0.00    +0.000 A 
ATOM     17  C   UNL     1       2.216   7.438  18.645  0.00  0.00    +0.000 A 
ATOM     18  O   UNL     1       1.948   6.226  18.098  0.00  0.00    +0.000 OA
ENDBRANCH   6  14
TORSDOF 1
ENDMDL
MODEL 2
REMARK VINA RESULT:      -5.8      2.517      3.862
REMARK  Name = 
REMARK  2 active torsions:
REMARK  status: ('A' for Active; 'I' for Inactive)
REMARK    1  A    between atoms: C_1  and  N_2
REMARK    2  A    between atoms: C_6  and  C_7
REMARK                            x       y       z     vdW  Elec       q    Type
REMARK                         _______ _______ _______ _____ _____    ______ ____
ROOT
ATOM      1  C   UNL     1       3.345   1.864  17.571  0.00  0.00    +0.000 C 
ATOM      2  N   UNL     1       3.860   3.198  17.870  0.00  0.00    +0.000 N 
ATOM      3  C   UNL     1       4.341   3.355  19.168  0.00  0.00    +0.000 C 
ATOM      4  O   UNL     1       4.799   2.408  19.816  0.00  0.00    +0.000 OA
ATOM      5  C   UNL     1       4.038   4.664  19.877  0.00  0.00    +0.000 C 
ATOM      6  C   UNL     1       4.524   5.960  19.256  0.00  0.00    +0.000 C 
ATOM      7  S   UNL     1       3.576   6.322  17.733  0.00  0.00    +0.000 S 
ATOM      8  C   UNL     1       4.478   5.256  16.629  0.00  0.00    +0.000 A 
ATOM      9  C   UNL     1       5.164   5.879  15.574  0.00  0.00    +0.000 A 
ATOM     10  C   UNL     1       5.995   5.143  14.731  0.00  0.00    +0.000 A 
ATOM     11  C   UNL     1       6.128   3.778  14.927  0.00  0.00    +0.000 A 
ATOM     12  C   UNL     1       5.408   3.141  15.943  0.00  0.00    +0.000 A 
ATOM     13  C   UNL     1       4.573   3.866  16.812  0.00  0.00    +0.000 A 
ENDROOT
BRANCH   6  14
ATOM     14  C   UNL     1       6.012   6.044  19.079  0.00  0.00    +0.000 A 
ATOM     15  C   UNL     1       6.847   6.730  18.214  0.00  0.00    +0.000 A 
ATOM     16  C   UNL     1       8.173   6.423  18.601  0.00  0.00    +0.000 A 
ATOM     17  C   UNL     1       8.071   5.553  19.659  0.00  0.00    +0.000 A 
ATOM     18  O   UNL     1       6.770   5.298  19.941  0.00  0.00    +0.000 OA
ENDBRANCH   6  14
TORSDOF 1
ENDMDL
MODEL 3
REMARK VINA RESULT:      -5.7     10.541     11.893
REMARK  Name = 
REMARK  2 active torsions:
REMARK  status: ('A' for Active; 'I' for Inactive)
REMARK    1  A    between atoms: C_1  and  N_2
REMARK    2  A    between atoms: C_6  and  C_7
REMARK                            x       y       z     vdW  Elec       q    Type
REMARK                         _______ _______ _______ _____ _____    ______ ____
ROOT
ATOM      1  C   UNL     1       8.750  12.263  22.131  0.00  0.00    +0.000 C 
ATOM      2  N   UNL     1       8.862  13.068  20.917  0.00  0.00    +0.000 N 
ATOM      3  C   UNL     1       8.724  14.440  21.118  0.00  0.00    +0.000 C 
ATOM      4  O   UNL     1       9.022  14.979  22.190  0.00  0.00    +0.000 OA
ATOM      5  C   UNL     1       7.938  15.227  20.084  0.00  0.00    +0.000 C 
ATOM      6  C   UNL     1       8.414  15.217  18.643  0.00  0.00    +0.000 C 
ATOM      7  S   UNL     1       8.141  13.566  17.902  0.00  0.00    +0.000 S 
ATOM      8  C   UNL     1       9.585  12.764  18.563  0.00  0.00    +0.000 A 
ATOM      9  C   UNL     1      10.533  12.309  17.633  0.00  0.00    +0.000 A 
ATOM     10  C   UNL     1      11.750  11.777  18.056  0.00  0.00    +0.000 A 
ATOM     11  C   UNL     1      12.017  11.682  19.413  0.00  0.00    +0.000 A 
ATOM     12  C   UNL     1      11.057  12.085  20.347  0.00  0.00    +0.000 A 
ATOM     13  C   UNL     1       9.827  12.633  19.941  0.00  0.00    +0.000 A 
ENDROOT
BRANCH   6  14
ATOM     14  C   UNL     1       9.803  15.749  18.443  0.00  0.00    +0.000 A 
ATOM     15  C   UNL     1      10.809  16.172  19.293  0.00  0.00    +0.000 A 
ATOM     16  C   UNL     1      11.915  16.511  18.478  0.00  0.00    +0.000 A 
ATOM     17  C   UNL     1      11.513  16.300  17.182  0.00  0.00    +0.000 A 
ATOM     18  O   UNL     1      10.230  15.861  17.148  0.00  0.00    +0.000 OA
ENDBRANCH   6  14
TORSDOF 1
ENDMDL
MODEL 4
REMARK VINA RESULT:      -5.3     10.497     12.302
REMARK  Name = 
REMARK  2 active torsions:
REMARK  status: ('A' for Active; 'I' for Inactive)
REMARK    1  A    between atoms: C_1  and  N_2
REMARK    2  A    between atoms: C_6  and  C_7
REMARK                            x       y       z     vdW  Elec       q    Type
REMARK                         _______ _______ _______ _____ _____    ______ ____
ROOT
ATOM      1  C   UNL     1       9.439  10.572  18.871  0.00  0.00    +0.000 C 
ATOM      2  N   UNL     1       9.881  11.940  19.124  0.00  0.00    +0.000 N 
ATOM      3  C   UNL     1      11.214  12.188  18.802  0.00  0.00    +0.000 C 
ATOM      4  O   UNL     1      11.805  11.551  17.924  0.00  0.00    +0.000 OA
ATOM      5  C   UNL     1      12.014  13.071  19.744  0.00  0.00    +0.000 C 
ATOM      6  C   UNL     1      11.535  14.488  19.998  0.00  0.00    +0.000 C 
ATOM      7  S   UNL     1       9.995  14.466  20.987  0.00  0.00    +0.000 S 
ATOM      8  C   UNL     1       8.860  14.138  19.656  0.00  0.00    +0.000 A 
ATOM      9  C   UNL     1       7.904  15.131  19.386  0.00  0.00    +0.000 A 
ATOM     10  C   UNL     1       7.051  15.021  18.290  0.00  0.00    +0.000 A 
ATOM     11  C   UNL     1       7.138  13.908  17.468  0.00  0.00    +0.000 A 
ATOM     12  C   UNL     1       8.051  12.889  17.760  0.00  0.00    +0.000 A 
ATOM     13  C   UNL     1       8.928  12.986  18.855  0.00  0.00    +0.000 A 
ENDROOT
BRANCH   6  14
ATOM     14  C   UNL     1      11.454  15.345  18.768  0.00  0.00    +0.000 A 
ATOM     15  C   UNL     1      11.638  15.119  17.415  0.00  0.00    +0.000 A 
ATOM     16  C   UNL     1      11.358  16.340  16.757  0.00  0.00    +0.000 A 
ATOM     17  C   UNL     1      11.045  17.243  17.743  0.00  0.00    +0.000 A 
ATOM     18  O   UNL     1      11.122  16.659  18.964  0.00  0.00    +0.000 OA
ENDBRANCH   6  14
TORSDOF 1
ENDMDL
MODEL 5
REMARK VINA RESULT:      -5.3      2.362      4.426
REMARK  Name = 
REMARK  2 active torsions:
REMARK  status: ('A' for Active; 'I' for Inactive)
REMARK    1  A    between atoms: C_1  and  N_2
REMARK    2  A    between atoms: C_6  and  C_7
REMARK                            x       y       z     vdW  Elec       q    Type
REMARK                         _______ _______ _______ _____ _____    ______ ____
ROOT
ATOM      1  C   UNL     1       3.935   8.326  17.092  0.00  0.00    +0.000 C 
ATOM      2  N   UNL     1       4.124   7.027  17.732  0.00  0.00    +0.000 N 
ATOM      3  C   UNL     1       3.007   6.548  18.413  0.00  0.00    +0.000 C 
ATOM      4  O   UNL     1       1.857   6.860  18.086  0.00  0.00    +0.000 OA
ATOM      5  C   UNL     1       3.238   5.850  19.742  0.00  0.00    +0.000 C 
ATOM      6  C   UNL     1       4.118   4.614  19.774  0.00  0.00    +0.000 C 
ATOM      7  S   UNL     1       5.863   5.075  19.472  0.00  0.00    +0.000 S 
ATOM      8  C   UNL     1       5.781   5.179  17.697  0.00  0.00    +0.000 A 
ATOM      9  C   UNL     1       6.573   4.272  16.977  0.00  0.00    +0.000 A 
ATOM     10  C   UNL     1       6.486   4.195  15.588  0.00  0.00    +0.000 A 
ATOM     11  C   UNL     1       5.619   5.039  14.912  0.00  0.00    +0.000 A 
ATOM     12  C   UNL     1       4.864   5.981  15.618  0.00  0.00    +0.000 A 
ATOM     13  C   UNL     1       4.930   6.068  17.019  0.00  0.00    +0.000 A 
ENDROOT
BRANCH   6  14
ATOM     14  C   UNL     1       3.632   3.484  18.914  0.00  0.00    +0.000 A 
ATOM     15  C   UNL     1       2.724   3.378  17.875  0.00  0.00    +0.000 A 
ATOM     16  C   UNL     1       2.755   2.031  17.443  0.00  0.00    +0.000 A 
ATOM     17  C   UNL     1       3.657   1.389  18.256  0.00  0.00    +0.000 A 
ATOM     18  O   UNL     1       4.176   2.253  19.164  0.00  0.00    +0.000 OA
ENDBRANCH   6  14
TORSDOF 1
ENDMDL
MODEL 6
REMARK VINA RESULT:      -5.3     10.414     12.038
REMARK  Name = 
REMARK  2 active torsions:
REMARK  status: ('A' for Active; 'I' for Inactive)
REMARK    1  A    between atoms: C_1  and  N_2
REMARK    2  A    between atoms: C_6  and  C_7
REMARK                            x       y       z     vdW  Elec       q    Type
REMARK                         _______ _______ _______ _____ _____    ______ ____
ROOT
ATOM      1  C   UNL     1       9.524  10.652  19.689  0.00  0.00    +0.000 C 
ATOM      2  N   UNL     1       9.873  12.020  19.317  0.00  0.00    +0.000 N 
ATOM      3  C   UNL     1       9.450  12.400  18.045  0.00  0.00    +0.000 C 
ATOM      4  O   UNL     1       8.457  11.899  17.508  0.00  0.00    +0.000 OA
ATOM      5  C   UNL     1      10.395  13.249  17.213  0.00  0.00    +0.000 C 
ATOM      6  C   UNL     1      10.839  14.594  17.758  0.00  0.00    +0.000 C 
ATOM      7  S   UNL     1      11.966  14.358  19.180  0.00  0.00    +0.000 S 
ATOM      8  C   UNL     1      10.726  14.071  20.424  0.00  0.00    +0.000 A 
ATOM      9  C   UNL     1      10.655  15.007  21.467  0.00  0.00    +0.000 A 
ATOM     10  C   UNL     1       9.641  14.936  22.421  0.00  0.00    +0.000 A 
ATOM     11  C   UNL     1       8.705  13.917  22.346  0.00  0.00    +0.000 A 
ATOM     12  C   UNL     1       8.799  12.950  21.340  0.00  0.00    +0.000 A 
ATOM     13  C   UNL     1       9.808  13.009  20.362  0.00  0.00    +0.000 A 
ENDROOT
BRANCH   6  14
ATOM     14  C   UNL     1       9.718  15.556  18.025  0.00  0.00    +0.000 A 
ATOM     15  C   UNL     1       8.337  15.468  17.995  0.00  0.00    +0.000 A 
ATOM     16  C   UNL     1       7.840  16.726  18.407  0.00  0.00    +0.000 A 
ATOM     17  C   UNL     1       8.940  17.514  18.641  0.00  0.00    +0.000 A 
ATOM     18  O   UNL     1      10.080  16.825  18.391  0.00  0.00    +0.000 OA
ENDBRANCH   6  14
TORSDOF 1
ENDMDL
MODEL 7
REMARK VINA RESULT:      -5.2      8.022     10.574
REMARK  Name = 
REMARK  2 active torsions:
REMARK  status: ('A' for Active; 'I' for Inactive)
REMARK    1  A    between atoms: C_1  and  N_2
REMARK    2  A    between atoms: C_6  and  C_7
REMARK                            x       y       z     vdW  Elec       q    Type
REMARK                         _______ _______ _______ _____ _____    ______ ____
ROOT
ATOM      1  C   UNL     1      -5.164  13.605  21.286  0.00  0.00    +0.000 C 
ATOM      2  N   UNL     1      -3.735  13.362  21.465  0.00  0.00    +0.000 N 
ATOM      3  C   UNL     1      -3.389  12.833  22.707  0.00  0.00    +0.000 C 
ATOM      4  O   UNL     1      -4.173  12.141  23.365  0.00  0.00    +0.000 OA
ATOM      5  C   UNL     1      -2.123  13.353  23.366  0.00  0.00    +0.000 C 
ATOM      6  C   UNL     1      -0.803  13.197  22.634  0.00  0.00    +0.000 C 
ATOM      7  S   UNL     1      -0.754  14.306  21.180  0.00  0.00    +0.000 S 
ATOM      8  C   UNL     1      -1.688  13.282  20.064  0.00  0.00    +0.000 A 
ATOM      9  C   UNL     1      -1.016  12.821  18.922  0.00  0.00    +0.000 A 
ATOM     10  C   UNL     1      -1.624  11.917  18.053  0.00  0.00    +0.000 A 
ATOM     11  C   UNL     1      -2.915  11.485  18.312  0.00  0.00    +0.000 A 
ATOM     12  C   UNL     1      -3.611  11.980  19.420  0.00  0.00    +0.000 A 
ATOM     13  C   UNL     1      -3.013  12.884  20.315  0.00  0.00    +0.000 A 
ENDROOT
BRANCH   6  14
ATOM     14  C   UNL     1      -0.428  11.777  22.326  0.00  0.00    +0.000 A 
ATOM     15  C   UNL     1      -0.987  10.543  22.612  0.00  0.00    +0.000 A 
ATOM     16  C   UNL     1      -0.171   9.572  21.985  0.00  0.00    +0.000 A 
ATOM     17  C   UNL     1       0.849  10.263  21.378  0.00  0.00    +0.000 A 
ATOM     18  O   UNL     1       0.716  11.594  21.597  0.00  0.00    +0.000 OA
ENDBRANCH   6  14
TORSDOF 1
ENDMDL
MODEL 8
REMARK VINA RESULT:      -5.2     10.845     12.505
REMARK  Name = 
REMARK  2 active torsions:
REMARK  status: ('A' for Active; 'I' for Inactive)
REMARK    1  A    between atoms: C_1  and  N_2
REMARK    2  A    between atoms: C_6  and  C_7
REMARK                            x       y       z     vdW  Elec       q    Type
REMARK                         _______ _______ _______ _____ _____    ______ ____
ROOT
ATOM      1  C   UNL     1       7.830  12.494  17.197  0.00  0.00    +0.000 C 
ATOM      2  N   UNL     1       8.750  13.524  17.672  0.00  0.00    +0.000 N 
ATOM      3  C   UNL     1       8.132  14.671  18.165  0.00  0.00    +0.000 C 
ATOM      4  O   UNL     1       7.001  14.643  18.662  0.00  0.00    +0.000 OA
ATOM      5  C   UNL     1       8.763  16.010  17.829  0.00  0.00    +0.000 C 
ATOM      6  C   UNL     1      10.193  16.273  18.264  0.00  0.00    +0.000 C 
ATOM      7  S   UNL     1      11.348  15.246  17.284  0.00  0.00    +0.000 S 
ATOM      8  C   UNL     1      11.165  13.734  18.205  0.00  0.00    +0.000 A 
ATOM      9  C   UNL     1      12.311  13.252  18.856  0.00  0.00    +0.000 A 
ATOM     10  C   UNL     1      12.241  12.144  19.699  0.00  0.00    +0.000 A 
ATOM     11  C   UNL     1      11.026  11.502  19.880  0.00  0.00    +0.000 A 
ATOM     12  C   UNL     1       9.889  11.944  19.194  0.00  0.00    +0.000 A 
ATOM     13  C   UNL     1       9.937  13.066  18.348  0.00  0.00    +0.000 A 
ENDROOT
BRANCH   6  14
ATOM     14  C   UNL     1      10.416  16.192  19.745  0.00  0.00    +0.000 A 
ATOM     15  C   UNL     1       9.686  15.692  20.809  0.00  0.00    +0.000 A 
ATOM     16  C   UNL     1      10.479  15.872  21.968  0.00  0.00    +0.000 A 
ATOM     17  C   UNL     1      11.631  16.491  21.550  0.00  0.00    +0.000 A 
ATOM     18  O   UNL     1      11.594  16.710  20.212  0.00  0.00    +0.000 OA
ENDBRANCH   6  14
TORSDOF 1
ENDMDL
MODEL 9
REMARK VINA RESULT:      -5.1      1.768      3.955
REMARK  Name = 
REMARK  2 active torsions:
REMARK  status: ('A' for Active; 'I' for Inactive)
REMARK    1  A    between atoms: C_1  and  N_2
REMARK    2  A    between atoms: C_6  and  C_7
REMARK                            x       y       z     vdW  Elec       q    Type
REMARK                         _______ _______ _______ _____ _____    ______ ____
ROOT
ATOM      1  C   UNL     1       0.817   4.680  20.490  0.00  0.00    +0.000 C 
ATOM      2  N   UNL     1       1.934   4.667  19.549  0.00  0.00    +0.000 N 
ATOM      3  C   UNL     1       2.477   5.921  19.277  0.00  0.00    +0.000 C 
ATOM      4  O   UNL     1       2.430   6.847  20.094  0.00  0.00    +0.000 OA
ATOM      5  C   UNL     1       2.887   6.215  17.844  0.00  0.00    +0.000 C 
ATOM      6  C   UNL     1       3.927   5.327  17.186  0.00  0.00    +0.000 C 
ATOM      7  S   UNL     1       3.227   3.666  16.868  0.00  0.00    +0.000 S 
ATOM      8  C   UNL     1       3.443   2.998  18.503  0.00  0.00    +0.000 A 
ATOM      9  C   UNL     1       4.308   1.899  18.624  0.00  0.00    +0.000 A 
ATOM     10  C   UNL     1       4.635   1.382  19.876  0.00  0.00    +0.000 A 
ATOM     11  C   UNL     1       4.083   1.951  21.013  0.00  0.00    +0.000 A 
ATOM     12  C   UNL     1       3.180   3.013  20.899  0.00  0.00    +0.000 A 
ATOM     13  C   UNL     1       2.845   3.555  19.646  0.00  0.00    +0.000 A 
ENDROOT
BRANCH   6  14
ATOM     14  C   UNL     1       5.254   5.302  17.886  0.00  0.00    +0.000 A 
ATOM     15  C   UNL     1       5.700   5.706  19.133  0.00  0.00    +0.000 A 
ATOM     16  C   UNL     1       7.069   5.356  19.208  0.00  0.00    +0.000 A 
ATOM     17  C   UNL     1       7.384   4.784  18.000  0.00  0.00    +0.000 A 
ATOM     18  O   UNL     1       6.301   4.767  17.185  0.00  0.00    +0.000 OA
ENDBRANCH   6  14
TORSDOF 1
ENDMDL
