MODEL 1
REMARK VINA RESULT:      -6.5      0.000      0.000
REMARK  Name = 
REMARK  7 active torsions:
REMARK  status: ('A' for Active; 'I' for Inactive)
REMARK    1  A    between atoms: C_1  and  C_2
REMARK    2  A    between atoms: N_4  and  C_5
REMARK    3  A    between atoms: N_9  and  C_10
REMARK    4  A    between atoms: N_16  and  C_17
REMARK    5  A    between atoms: C_17  and  C_18
REMARK    6  A    between atoms: C_23  and  C_24
REMARK    7  A    between atoms: N_28  and  C_29
REMARK                            x       y       z     vdW  Elec       q    Type
REMARK                         _______ _______ _______ _____ _____    ______ ____
ROOT
ATOM      1  C   UNL     1      -2.376  11.553  18.090  0.00  0.00    +0.000 A 
ATOM      2  C   UNL     1      -2.454  11.157  16.734  0.00  0.00    +0.000 A 
ATOM      3  C   UNL     1      -3.677  11.127  16.039  0.00  0.00    +0.000 A 
ATOM      4  N   UNL     1      -4.857  11.475  16.565  0.00  0.00    +0.000 NA
ATOM      5  C   UNL     1      -4.794  11.807  17.858  0.00  0.00    +0.000 A 
ATOM      6  C   UNL     1      -3.632  11.803  18.673  0.00  0.00    +0.000 A 
ATOM      7  N   UNL     1      -4.089  12.171  19.967  0.00  0.00    +0.000 N 
ATOM      8  C   UNL     1      -5.439  12.534  19.910  0.00  0.00    +0.000 A 
ATOM      9  O   UNL     1      -6.098  13.005  20.824  0.00  0.00    +0.000 OA
ATOM     10  N   UNL     1      -5.870  12.278  18.618  0.00  0.00    +0.000 N 
ATOM     11  C   UNL     1      -7.172  12.579  18.110  0.00  0.00    +0.000 C 
ENDROOT
BRANCH   1  16
ATOM     12  C   UNL     1       0.939  11.053  19.891  0.00  0.00    +0.000 C 
ATOM     13  C   UNL     1       1.533  12.452  19.721  0.00  0.00    +0.000 C 
ATOM     14  C   UNL     1       0.435  13.512  19.570  0.00  0.00    +0.000 C 
ATOM     15  C   UNL     1      -0.547  13.183  18.447  0.00  0.00    +0.000 C 
ATOM     16  N   UNL     1      -1.124  11.835  18.675  0.00  0.00    +0.000 N 
ATOM     17  C   UNL     1      -0.050  10.823  18.687  0.00  0.00    +0.000 C 
BRANCH  12  21
ATOM     18  C   UNL     1      -0.177   9.645  23.315  0.00  0.00    +0.000 C 
ATOM     19  C   UNL     1       0.150   9.556  21.848  0.00  0.00    +0.000 C 
ATOM     20  O   UNL     1       0.198   8.459  21.295  0.00  0.00    +0.000 OA
ATOM     21  N   UNL     1       0.365  10.772  21.229  0.00  0.00    +0.000 N 
ATOM     22  H   UNL     1      -0.081  11.552  21.683  0.00  0.00    +0.000 HD
ENDBRANCH  12  21
ENDBRANCH   1  16
BRANCH   7  23
ATOM     23  C   UNL     1      -3.357  12.337  21.170  0.00  0.00    +0.000 C 
BRANCH  23  24
ATOM     24  C   UNL     1      -3.245  13.758  21.725  0.00  0.00    +0.000 A 
ATOM     25  C   UNL     1      -2.797  14.833  20.928  0.00  0.00    +0.000 A 
ATOM     26  C   UNL     1      -3.036  16.160  21.299  0.00  0.00    +0.000 A 
ATOM     27  C   UNL     1      -3.660  16.446  22.508  0.00  0.00    +0.000 A 
ATOM     28  C   UNL     1      -3.997  15.409  23.368  0.00  0.00    +0.000 A 
ATOM     29  C   UNL     1      -3.788  14.071  22.990  0.00  0.00    +0.000 A 
BRANCH  29  30
ATOM     30  C   UNL     1      -4.207  13.056  23.916  0.00  0.00    +0.000 C 
ATOM     31  N   UNL     1      -4.553  12.204  24.624  0.00  0.00    +0.000 NA
ENDBRANCH  29  30
ENDBRANCH  23  24
ENDBRANCH   7  23
TORSDOF 5
ENDMDL
MODEL 2
REMARK VINA RESULT:      -6.4      2.447      5.663
REMARK  Name = 
REMARK  7 active torsions:
REMARK  status: ('A' for Active; 'I' for Inactive)
REMARK    1  A    between atoms: C_1  and  C_2
REMARK    2  A    between atoms: N_4  and  C_5
REMARK    3  A    between atoms: N_9  and  C_10
REMARK    4  A    between atoms: N_16  and  C_17
REMARK    5  A    between atoms: C_17  and  C_18
REMARK    6  A    between atoms: C_23  and  C_24
REMARK    7  A    between atoms: N_28  and  C_29
REMARK                            x       y       z     vdW  Elec       q    Type
REMARK                         _______ _______ _______ _____ _____    ______ ____
ROOT
ATOM      1  C   UNL     1      -6.660  13.296  20.228  0.00  0.00    +0.000 A 
ATOM      2  C   UNL     1      -7.710  13.407  19.285  0.00  0.00    +0.000 A 
ATOM      3  C   UNL     1      -7.550  13.006  17.946  0.00  0.00    +0.000 A 
ATOM      4  N   UNL     1      -6.428  12.479  17.441  0.00  0.00    +0.000 NA
ATOM      5  C   UNL     1      -5.421  12.415  18.317  0.00  0.00    +0.000 A 
ATOM      6  C   UNL     1      -5.448  12.854  19.666  0.00  0.00    +0.000 A 
ATOM      7  N   UNL     1      -4.133  12.627  20.154  0.00  0.00    +0.000 N 
ATOM      8  C   UNL     1      -3.382  11.937  19.195  0.00  0.00    +0.000 A 
ATOM      9  O   UNL     1      -2.255  11.493  19.345  0.00  0.00    +0.000 OA
ATOM     10  N   UNL     1      -4.172  11.839  18.061  0.00  0.00    +0.000 N 
ATOM     11  C   UNL     1      -3.814  11.137  16.867  0.00  0.00    +0.000 C 
ENDROOT
BRANCH   1  16
ATOM     12  C   UNL     1      -6.898  14.857  23.690  0.00  0.00    +0.000 C 
ATOM     13  C   UNL     1      -7.651  13.743  24.419  0.00  0.00    +0.000 C 
ATOM     14  C   UNL     1      -7.397  12.377  23.770  0.00  0.00    +0.000 C 
ATOM     15  C   UNL     1      -7.705  12.373  22.273  0.00  0.00    +0.000 C 
ATOM     16  N   UNL     1      -6.925  13.444  21.605  0.00  0.00    +0.000 N 
ATOM     17  C   UNL     1      -7.289  14.759  22.168  0.00  0.00    +0.000 C 
BRANCH  12  21
ATOM     18  C   UNL     1      -3.294  15.488  24.943  0.00  0.00    +0.000 C 
ATOM     19  C   UNL     1      -4.702  15.889  24.588  0.00  0.00    +0.000 C 
ATOM     20  O   UNL     1      -5.105  17.019  24.856  0.00  0.00    +0.000 OA
ATOM     21  N   UNL     1      -5.440  14.908  23.955  0.00  0.00    +0.000 N 
ATOM     22  H   UNL     1      -4.886  14.223  23.468  0.00  0.00    +0.000 HD
ENDBRANCH  12  21
ENDBRANCH   1  16
BRANCH   7  23
ATOM     23  C   UNL     1      -3.593  12.869  21.441  0.00  0.00    +0.000 C 
BRANCH  23  24
ATOM     24  C   UNL     1      -2.489  13.923  21.546  0.00  0.00    +0.000 A 
ATOM     25  C   UNL     1      -2.678  15.243  21.084  0.00  0.00    +0.000 A 
ATOM     26  C   UNL     1      -1.839  16.283  21.498  0.00  0.00    +0.000 A 
ATOM     27  C   UNL     1      -0.750  16.018  22.321  0.00  0.00    +0.000 A 
ATOM     28  C   UNL     1      -0.470  14.706  22.686  0.00  0.00    +0.000 A 
ATOM     29  C   UNL     1      -1.324  13.660  22.299  0.00  0.00    +0.000 A 
BRANCH  29  30
ATOM     30  C   UNL     1      -0.990  12.339  22.756  0.00  0.00    +0.000 C 
ATOM     31  N   UNL     1      -0.767  11.256  23.108  0.00  0.00    +0.000 NA
ENDBRANCH  29  30
ENDBRANCH  23  24
ENDBRANCH   7  23
TORSDOF 5
ENDMDL
MODEL 3
REMARK VINA RESULT:      -6.3      2.458      4.500
REMARK  Name = 
REMARK  7 active torsions:
REMARK  status: ('A' for Active; 'I' for Inactive)
REMARK    1  A    between atoms: C_1  and  C_2
REMARK    2  A    between atoms: N_4  and  C_5
REMARK    3  A    between atoms: N_9  and  C_10
REMARK    4  A    between atoms: N_16  and  C_17
REMARK    5  A    between atoms: C_17  and  C_18
REMARK    6  A    between atoms: C_23  and  C_24
REMARK    7  A    between atoms: N_28  and  C_29
REMARK                            x       y       z     vdW  Elec       q    Type
REMARK                         _______ _______ _______ _____ _____    ______ ____
ROOT
ATOM      1  C   UNL     1      -1.567  11.573  19.769  0.00  0.00    +0.000 A 
ATOM      2  C   UNL     1      -0.386  10.814  19.586  0.00  0.00    +0.000 A 
ATOM      3  C   UNL     1      -0.182  10.024  18.440  0.00  0.00    +0.000 A 
ATOM      4  N   UNL     1      -1.048   9.922  17.425  0.00  0.00    +0.000 NA
ATOM      5  C   UNL     1      -2.183  10.601  17.615  0.00  0.00    +0.000 A 
ATOM      6  C   UNL     1      -2.524  11.370  18.759  0.00  0.00    +0.000 A 
ATOM      7  N   UNL     1      -3.841  11.840  18.507  0.00  0.00    +0.000 N 
ATOM      8  C   UNL     1      -4.226  11.504  17.204  0.00  0.00    +0.000 A 
ATOM      9  O   UNL     1      -5.250  11.857  16.641  0.00  0.00    +0.000 OA
ATOM     10  N   UNL     1      -3.214  10.718  16.676  0.00  0.00    +0.000 N 
ATOM     11  C   UNL     1      -3.171  10.222  15.335  0.00  0.00    +0.000 C 
ENDROOT
BRANCH   1  16
ATOM     12  C   UNL     1      -1.604  13.180  23.218  0.00  0.00    +0.000 C 
ATOM     13  C   UNL     1      -1.593  14.654  22.812  0.00  0.00    +0.000 C 
ATOM     14  C   UNL     1      -2.212  14.856  21.423  0.00  0.00    +0.000 C 
ATOM     15  C   UNL     1      -1.560  13.978  20.357  0.00  0.00    +0.000 C 
ATOM     16  N   UNL     1      -1.627  12.557  20.778  0.00  0.00    +0.000 N 
ATOM     17  C   UNL     1      -0.911  12.375  22.055  0.00  0.00    +0.000 C 
BRANCH  12  21
ATOM     18  C   UNL     1      -5.186  12.537  24.527  0.00  0.00    +0.000 C 
ATOM     19  C   UNL     1      -3.818  13.165  24.558  0.00  0.00    +0.000 C 
ATOM     20  O   UNL     1      -3.568  14.053  25.370  0.00  0.00    +0.000 OA
ATOM     21  N   UNL     1      -2.925  12.652  23.638  0.00  0.00    +0.000 N 
ATOM     22  H   UNL     1      -3.131  11.713  23.340  0.00  0.00    +0.000 HD
ENDBRANCH  12  21
ENDBRANCH   1  16
BRANCH   7  23
ATOM     23  C   UNL     1      -4.674  12.663  19.305  0.00  0.00    +0.000 C 
BRANCH  23  24
ATOM     24  C   UNL     1      -5.959  12.035  19.848  0.00  0.00    +0.000 A 
ATOM     25  C   UNL     1      -6.401  10.765  19.421  0.00  0.00    +0.000 A 
ATOM     26  C   UNL     1      -7.341  10.038  20.159  0.00  0.00    +0.000 A 
ATOM     27  C   UNL     1      -7.917  10.593  21.297  0.00  0.00    +0.000 A 
ATOM     28  C   UNL     1      -7.591  11.892  21.667  0.00  0.00    +0.000 A 
ATOM     29  C   UNL     1      -6.625  12.617  20.949  0.00  0.00    +0.000 A 
BRANCH  29  30
ATOM     30  C   UNL     1      -6.310  13.937  21.422  0.00  0.00    +0.000 C 
ATOM     31  N   UNL     1      -6.009  14.986  21.815  0.00  0.00    +0.000 NA
ENDBRANCH  29  30
ENDBRANCH  23  24
ENDBRANCH   7  23
TORSDOF 5
ENDMDL
MODEL 4
REMARK VINA RESULT:      -6.3      2.284      6.190
REMARK  Name = 
REMARK  7 active torsions:
REMARK  status: ('A' for Active; 'I' for Inactive)
REMARK    1  A    between atoms: C_1  and  C_2
REMARK    2  A    between atoms: N_4  and  C_5
REMARK    3  A    between atoms: N_9  and  C_10
REMARK    4  A    between atoms: N_16  and  C_17
REMARK    5  A    between atoms: C_17  and  C_18
REMARK    6  A    between atoms: C_23  and  C_24
REMARK    7  A    between atoms: N_28  and  C_29
REMARK                            x       y       z     vdW  Elec       q    Type
REMARK                         _______ _______ _______ _____ _____    ______ ____
ROOT
ATOM      1  C   UNL     1      -5.848  12.728  21.362  0.00  0.00    +0.000 A 
ATOM      2  C   UNL     1      -6.907  12.442  22.258  0.00  0.00    +0.000 A 
ATOM      3  C   UNL     1      -6.784  12.655  23.643  0.00  0.00    +0.000 A 
ATOM      4  N   UNL     1      -5.694  13.151  24.241  0.00  0.00    +0.000 NA
ATOM      5  C   UNL     1      -4.677  13.379  23.404  0.00  0.00    +0.000 A 
ATOM      6  C   UNL     1      -4.666  13.134  22.006  0.00  0.00    +0.000 A 
ATOM      7  N   UNL     1      -3.354  13.482  21.582  0.00  0.00    +0.000 N 
ATOM      8  C   UNL     1      -2.648  14.059  22.644  0.00  0.00    +0.000 A 
ATOM      9  O   UNL     1      -1.539  14.566  22.581  0.00  0.00    +0.000 OA
ATOM     10  N   UNL     1      -3.458  13.963  23.764  0.00  0.00    +0.000 N 
ATOM     11  C   UNL     1      -3.149  14.502  25.052  0.00  0.00    +0.000 C 
ENDROOT
BRANCH   1  16
ATOM     12  C   UNL     1      -5.906  11.695  17.700  0.00  0.00    +0.000 C 
ATOM     13  C   UNL     1      -6.757  12.829  17.129  0.00  0.00    +0.000 C 
ATOM     14  C   UNL     1      -6.642  14.099  17.982  0.00  0.00    +0.000 C 
ATOM     15  C   UNL     1      -6.962  13.848  19.455  0.00  0.00    +0.000 C 
ATOM     16  N   UNL     1      -6.087  12.766  19.972  0.00  0.00    +0.000 N 
ATOM     17  C   UNL     1      -6.318  11.523  19.210  0.00  0.00    +0.000 C 
BRANCH  12  21
ATOM     18  C   UNL     1      -2.156  11.288  16.849  0.00  0.00    +0.000 C 
ATOM     19  C   UNL     1      -3.487  10.832  17.387  0.00  0.00    +0.000 C 
ATOM     20  O   UNL     1      -3.644   9.661  17.726  0.00  0.00    +0.000 OA
ATOM     21  N   UNL     1      -4.448  11.822  17.464  0.00  0.00    +0.000 N 
ATOM     22  H   UNL     1      -4.077  12.755  17.534  0.00  0.00    +0.000 HD
ENDBRANCH  12  21
ENDBRANCH   1  16
BRANCH   7  23
ATOM     23  C   UNL     1      -2.785  13.447  20.285  0.00  0.00    +0.000 C 
BRANCH  23  24
ATOM     24  C   UNL     1      -1.457  12.704  20.127  0.00  0.00    +0.000 A 
ATOM     25  C   UNL     1      -1.329  11.338  20.458  0.00  0.00    +0.000 A 
ATOM     26  C   UNL     1      -0.256  10.576  19.983  0.00  0.00    +0.000 A 
ATOM     27  C   UNL     1       0.749  11.173  19.232  0.00  0.00    +0.000 A 
ATOM     28  C   UNL     1       0.709  12.543  19.000  0.00  0.00    +0.000 A 
ATOM     29  C   UNL     1      -0.379  13.311  19.447  0.00  0.00    +0.000 A 
BRANCH  29  30
ATOM     30  C   UNL     1      -0.368  14.712  19.127  0.00  0.00    +0.000 C 
ATOM     31  N   UNL     1      -0.400  15.835  18.839  0.00  0.00    +0.000 NA
ENDBRANCH  29  30
ENDBRANCH  23  24
ENDBRANCH   7  23
TORSDOF 5
ENDMDL
MODEL 5
REMARK VINA RESULT:      -6.3      1.990      4.832
REMARK  Name = 
REMARK  7 active torsions:
REMARK  status: ('A' for Active; 'I' for Inactive)
REMARK    1  A    between atoms: C_1  and  C_2
REMARK    2  A    between atoms: N_4  and  C_5
REMARK    3  A    between atoms: N_9  and  C_10
REMARK    4  A    between atoms: N_16  and  C_17
REMARK    5  A    between atoms: C_17  and  C_18
REMARK    6  A    between atoms: C_23  and  C_24
REMARK    7  A    between atoms: N_28  and  C_29
REMARK                            x       y       z     vdW  Elec       q    Type
REMARK                         _______ _______ _______ _____ _____    ______ ____
ROOT
ATOM      1  C   UNL     1      -4.921  12.707  19.387  0.00  0.00    +0.000 A 
ATOM      2  C   UNL     1      -6.173  13.062  18.830  0.00  0.00    +0.000 A 
ATOM      3  C   UNL     1      -6.540  12.682  17.527  0.00  0.00    +0.000 A 
ATOM      4  N   UNL     1      -5.775  11.953  16.705  0.00  0.00    +0.000 NA
ATOM      5  C   UNL     1      -4.574  11.654  17.211  0.00  0.00    +0.000 A 
ATOM      6  C   UNL     1      -4.074  12.045  18.480  0.00  0.00    +0.000 A 
ATOM      7  N   UNL     1      -2.747  11.536  18.525  0.00  0.00    +0.000 N 
ATOM      8  C   UNL     1      -2.505  10.739  17.401  0.00  0.00    +0.000 A 
ATOM      9  O   UNL     1      -1.506  10.068  17.195  0.00  0.00    +0.000 OA
ATOM     10  N   UNL     1      -3.621  10.843  16.586  0.00  0.00    +0.000 N 
ATOM     11  C   UNL     1      -3.820  10.123  15.367  0.00  0.00    +0.000 C 
ENDROOT
BRANCH   1  16
ATOM     12  C   UNL     1      -3.098  13.220  22.688  0.00  0.00    +0.000 C 
ATOM     13  C   UNL     1      -4.300  13.337  23.626  0.00  0.00    +0.000 C 
ATOM     14  C   UNL     1      -5.519  12.590  23.070  0.00  0.00    +0.000 C 
ATOM     15  C   UNL     1      -5.875  13.026  21.649  0.00  0.00    +0.000 C 
ATOM     16  N   UNL     1      -4.691  12.860  20.770  0.00  0.00    +0.000 N 
ATOM     17  C   UNL     1      -3.577  13.693  21.264  0.00  0.00    +0.000 C 
BRANCH  12  21
ATOM     18  C   UNL     1      -0.747  10.182  23.125  0.00  0.00    +0.000 C 
ATOM     19  C   UNL     1      -1.065  11.630  22.862  0.00  0.00    +0.000 C 
ATOM     20  O   UNL     1      -0.157  12.456  22.790  0.00  0.00    +0.000 OA
ATOM     21  N   UNL     1      -2.409  11.908  22.708  0.00  0.00    +0.000 N 
ATOM     22  H   UNL     1      -2.962  11.123  22.405  0.00  0.00    +0.000 HD
ENDBRANCH  12  21
ENDBRANCH   1  16
BRANCH   7  23
ATOM     23  C   UNL     1      -1.783  11.619  19.560  0.00  0.00    +0.000 C 
BRANCH  23  24
ATOM     24  C   UNL     1      -0.515  12.424  19.267  0.00  0.00    +0.000 A 
ATOM     25  C   UNL     1      -0.563  13.805  18.981  0.00  0.00    +0.000 A 
ATOM     26  C   UNL     1       0.581  14.604  19.076  0.00  0.00    +0.000 A 
ATOM     27  C   UNL     1       1.811  14.033  19.384  0.00  0.00    +0.000 A 
ATOM     28  C   UNL     1       1.905  12.656  19.545  0.00  0.00    +0.000 A 
ATOM     29  C   UNL     1       0.757  11.849  19.482  0.00  0.00    +0.000 A 
BRANCH  29  30
ATOM     30  C   UNL     1       0.932  10.440  19.705  0.00  0.00    +0.000 C 
ATOM     31  N   UNL     1       1.055   9.310  19.934  0.00  0.00    +0.000 NA
ENDBRANCH  29  30
ENDBRANCH  23  24
ENDBRANCH   7  23
TORSDOF 5
ENDMDL
MODEL 6
REMARK VINA RESULT:      -6.3      2.515      5.216
REMARK  Name = 
REMARK  7 active torsions:
REMARK  status: ('A' for Active; 'I' for Inactive)
REMARK    1  A    between atoms: C_1  and  C_2
REMARK    2  A    between atoms: N_4  and  C_5
REMARK    3  A    between atoms: N_9  and  C_10
REMARK    4  A    between atoms: N_16  and  C_17
REMARK    5  A    between atoms: C_17  and  C_18
REMARK    6  A    between atoms: C_23  and  C_24
REMARK    7  A    between atoms: N_28  and  C_29
REMARK                            x       y       z     vdW  Elec       q    Type
REMARK                         _______ _______ _______ _____ _____    ______ ____
ROOT
ATOM      1  C   UNL     1      -0.866  13.619  21.154  0.00  0.00    +0.000 A 
ATOM      2  C   UNL     1       0.384  14.280  21.206  0.00  0.00    +0.000 A 
ATOM      3  C   UNL     1       0.744  15.102  22.289  0.00  0.00    +0.000 A 
ATOM      4  N   UNL     1      -0.027  15.328  23.359  0.00  0.00    +0.000 NA
ATOM      5  C   UNL     1      -1.226  14.742  23.292  0.00  0.00    +0.000 A 
ATOM      6  C   UNL     1      -1.719  13.953  22.221  0.00  0.00    +0.000 A 
ATOM      7  N   UNL     1      -3.048  13.612  22.596  0.00  0.00    +0.000 N 
ATOM      8  C   UNL     1      -3.298  14.042  23.904  0.00  0.00    +0.000 A 
ATOM      9  O   UNL     1      -4.300  13.807  24.560  0.00  0.00    +0.000 OA
ATOM     10  N   UNL     1      -2.185  14.760  24.311  0.00  0.00    +0.000 N 
ATOM     11  C   UNL     1      -1.994  15.313  25.616  0.00  0.00    +0.000 C 
ENDROOT
BRANCH   1  16
ATOM     12  C   UNL     1      -2.070  11.833  18.016  0.00  0.00    +0.000 C 
ATOM     13  C   UNL     1      -1.375  10.485  18.209  0.00  0.00    +0.000 C 
ATOM     14  C   UNL     1      -1.121  10.193  19.693  0.00  0.00    +0.000 C 
ATOM     15  C   UNL     1      -0.358  11.319  20.390  0.00  0.00    +0.000 C 
ATOM     16  N   UNL     1      -1.089  12.598  20.207  0.00  0.00    +0.000 N 
ATOM     17  C   UNL     1      -1.203  12.911  18.769  0.00  0.00    +0.000 C 
BRANCH  12  21
ATOM     18  C   UNL     1      -5.886  11.315  18.366  0.00  0.00    +0.000 C 
ATOM     19  C   UNL     1      -4.591  11.417  17.605  0.00  0.00    +0.000 C 
ATOM     20  O   UNL     1      -4.556  11.135  16.409  0.00  0.00    +0.000 OA
ATOM     21  N   UNL     1      -3.514  11.851  18.354  0.00  0.00    +0.000 N 
ATOM     22  H   UNL     1      -3.764  12.399  19.160  0.00  0.00    +0.000 HD
ENDBRANCH  12  21
ENDBRANCH   1  16
BRANCH   7  23
ATOM     23  C   UNL     1      -4.007  12.828  21.908  0.00  0.00    +0.000 C 
BRANCH  23  24
ATOM     24  C   UNL     1      -5.218  13.561  21.327  0.00  0.00    +0.000 A 
ATOM     25  C   UNL     1      -5.094  14.446  20.234  0.00  0.00    +0.000 A 
ATOM     26  C   UNL     1      -6.208  14.823  19.478  0.00  0.00    +0.000 A 
ATOM     27  C   UNL     1      -7.479  14.388  19.839  0.00  0.00    +0.000 A 
ATOM     28  C   UNL     1      -7.640  13.620  20.985  0.00  0.00    +0.000 A 
ATOM     29  C   UNL     1      -6.524  13.211  21.734  0.00  0.00    +0.000 A 
BRANCH  29  30
ATOM     30  C   UNL     1      -6.771  12.379  22.879  0.00  0.00    +0.000 C 
ATOM     31  N   UNL     1      -7.013  11.736  23.813  0.00  0.00    +0.000 NA
ENDBRANCH  29  30
ENDBRANCH  23  24
ENDBRANCH   7  23
TORSDOF 5
ENDMDL
MODEL 7
REMARK VINA RESULT:      -6.1      2.530      5.009
REMARK  Name = 
REMARK  7 active torsions:
REMARK  status: ('A' for Active; 'I' for Inactive)
REMARK    1  A    between atoms: C_1  and  C_2
REMARK    2  A    between atoms: N_4  and  C_5
REMARK    3  A    between atoms: N_9  and  C_10
REMARK    4  A    between atoms: N_16  and  C_17
REMARK    5  A    between atoms: C_17  and  C_18
REMARK    6  A    between atoms: C_23  and  C_24
REMARK    7  A    between atoms: N_28  and  C_29
REMARK                            x       y       z     vdW  Elec       q    Type
REMARK                         _______ _______ _______ _____ _____    ______ ____
ROOT
ATOM      1  C   UNL     1      -1.765  14.745  21.689  0.00  0.00    +0.000 A 
ATOM      2  C   UNL     1      -0.866  15.794  21.384  0.00  0.00    +0.000 A 
ATOM      3  C   UNL     1      -1.191  17.142  21.624  0.00  0.00    +0.000 A 
ATOM      4  N   UNL     1      -2.342  17.561  22.163  0.00  0.00    +0.000 NA
ATOM      5  C   UNL     1      -3.211  16.576  22.410  0.00  0.00    +0.000 A 
ATOM      6  C   UNL     1      -3.018  15.196  22.143  0.00  0.00    +0.000 A 
ATOM      7  N   UNL     1      -4.237  14.573  22.525  0.00  0.00    +0.000 N 
ATOM      8  C   UNL     1      -5.077  15.508  23.141  0.00  0.00    +0.000 A 
ATOM      9  O   UNL     1      -6.145  15.271  23.682  0.00  0.00    +0.000 OA
ATOM     10  N   UNL     1      -4.450  16.740  23.038  0.00  0.00    +0.000 N 
ATOM     11  C   UNL     1      -4.933  17.959  23.608  0.00  0.00    +0.000 C 
ENDROOT
BRANCH   1  16
ATOM     12  C   UNL     1      -0.283  11.448  20.498  0.00  0.00    +0.000 C 
ATOM     13  C   UNL     1      -0.256  10.688  21.824  0.00  0.00    +0.000 C 
ATOM     14  C   UNL     1      -1.333  11.203  22.786  0.00  0.00    +0.000 C 
ATOM     15  C   UNL     1      -1.250  12.713  23.006  0.00  0.00    +0.000 C 
ATOM     16  N   UNL     1      -1.317  13.407  21.697  0.00  0.00    +0.000 N 
ATOM     17  C   UNL     1      -0.191  12.982  20.843  0.00  0.00    +0.000 C 
BRANCH  12  21
ATOM     18  C   UNL     1      -2.711   9.907  17.913  0.00  0.00    +0.000 C 
ATOM     19  C   UNL     1      -1.360  10.321  18.433  0.00  0.00    +0.000 C 
ATOM     20  O   UNL     1      -0.341   9.987  17.831  0.00  0.00    +0.000 OA
ATOM     21  N   UNL     1      -1.392  11.083  19.585  0.00  0.00    +0.000 N 
ATOM     22  H   UNL     1      -2.252  11.587  19.724  0.00  0.00    +0.000 HD
ENDBRANCH  12  21
ENDBRANCH   1  16
BRANCH   7  23
ATOM     23  C   UNL     1      -4.603  13.205  22.487  0.00  0.00    +0.000 C 
BRANCH  23  24
ATOM     24  C   UNL     1      -5.443  12.742  21.295  0.00  0.00    +0.000 A 
ATOM     25  C   UNL     1      -4.912  12.691  19.988  0.00  0.00    +0.000 A 
ATOM     26  C   UNL     1      -5.531  11.941  18.983  0.00  0.00    +0.000 A 
ATOM     27  C   UNL     1      -6.732  11.287  19.237  0.00  0.00    +0.000 A 
ATOM     28  C   UNL     1      -7.339  11.426  20.479  0.00  0.00    +0.000 A 
ATOM     29  C   UNL     1      -6.710  12.153  21.504  0.00  0.00    +0.000 A 
BRANCH  29  30
ATOM     30  C   UNL     1      -7.380  12.211  22.774  0.00  0.00    +0.000 C 
ATOM     31  N   UNL     1      -7.916  12.309  23.798  0.00  0.00    +0.000 NA
ENDBRANCH  29  30
ENDBRANCH  23  24
ENDBRANCH   7  23
TORSDOF 5
ENDMDL
MODEL 8
REMARK VINA RESULT:      -6.1      2.600      4.301
REMARK  Name = 
REMARK  7 active torsions:
REMARK  status: ('A' for Active; 'I' for Inactive)
REMARK    1  A    between atoms: C_1  and  C_2
REMARK    2  A    between atoms: N_4  and  C_5
REMARK    3  A    between atoms: N_9  and  C_10
REMARK    4  A    between atoms: N_16  and  C_17
REMARK    5  A    between atoms: C_17  and  C_18
REMARK    6  A    between atoms: C_23  and  C_24
REMARK    7  A    between atoms: N_28  and  C_29
REMARK                            x       y       z     vdW  Elec       q    Type
REMARK                         _______ _______ _______ _____ _____    ______ ____
ROOT
ATOM      1  C   UNL     1      -0.369  12.773  20.055  0.00  0.00    +0.000 A 
ATOM      2  C   UNL     1       0.821  12.109  19.671  0.00  0.00    +0.000 A 
ATOM      3  C   UNL     1       0.803  10.989  18.820  0.00  0.00    +0.000 A 
ATOM      4  N   UNL     1      -0.305  10.459  18.286  0.00  0.00    +0.000 NA
ATOM      5  C   UNL     1      -1.432  11.057  18.682  0.00  0.00    +0.000 A 
ATOM      6  C   UNL     1      -1.536  12.143  19.590  0.00  0.00    +0.000 A 
ATOM      7  N   UNL     1      -2.932  12.374  19.729  0.00  0.00    +0.000 N 
ATOM      8  C   UNL     1      -3.640  11.569  18.829  0.00  0.00    +0.000 A 
ATOM      9  O   UNL     1      -4.842  11.608  18.619  0.00  0.00    +0.000 OA
ATOM     10  N   UNL     1      -2.713  10.743  18.214  0.00  0.00    +0.000 N 
ATOM     11  C   UNL     1      -3.005   9.815  17.166  0.00  0.00    +0.000 C 
ENDROOT
BRANCH   1  16
ATOM     12  C   UNL     1       0.194  15.449  22.702  0.00  0.00    +0.000 C 
ATOM     13  C   UNL     1      -0.034  16.699  21.852  0.00  0.00    +0.000 C 
ATOM     14  C   UNL     1      -0.962  16.408  20.666  0.00  0.00    +0.000 C 
ATOM     15  C   UNL     1      -0.476  15.235  19.815  0.00  0.00    +0.000 C 
ATOM     16  N   UNL     1      -0.305  14.039  20.676  0.00  0.00    +0.000 N 
ATOM     17  C   UNL     1       0.691  14.314  21.730  0.00  0.00    +0.000 C 
BRANCH  12  21
ATOM     18  C   UNL     1      -2.550  15.067  25.399  0.00  0.00    +0.000 C 
ATOM     19  C   UNL     1      -1.160  15.369  24.905  0.00  0.00    +0.000 C 
ATOM     20  O   UNL     1      -0.323  15.837  25.674  0.00  0.00    +0.000 OA
ATOM     21  N   UNL     1      -0.941  15.066  23.576  0.00  0.00    +0.000 N 
ATOM     22  H   UNL     1      -1.553  14.357  23.206  0.00  0.00    +0.000 HD
ENDBRANCH  12  21
ENDBRANCH   1  16
BRANCH   7  23
ATOM     23  C   UNL     1      -3.614  13.345  20.503  0.00  0.00    +0.000 C 
BRANCH  23  24
ATOM     24  C   UNL     1      -4.221  12.879  21.828  0.00  0.00    +0.000 A 
ATOM     25  C   UNL     1      -3.416  12.417  22.890  0.00  0.00    +0.000 A 
ATOM     26  C   UNL     1      -3.911  12.343  24.196  0.00  0.00    +0.000 A 
ATOM     27  C   UNL     1      -5.240  12.655  24.459  0.00  0.00    +0.000 A 
ATOM     28  C   UNL     1      -6.086  12.991  23.409  0.00  0.00    +0.000 A 
ATOM     29  C   UNL     1      -5.590  13.098  22.098  0.00  0.00    +0.000 A 
BRANCH  29  30
ATOM     30  C   UNL     1      -6.518  13.495  21.076  0.00  0.00    +0.000 C 
ATOM     31  N   UNL     1      -7.267  13.863  20.271  0.00  0.00    +0.000 NA
ENDBRANCH  29  30
ENDBRANCH  23  24
ENDBRANCH   7  23
TORSDOF 5
ENDMDL
MODEL 9
REMARK VINA RESULT:      -6.1      2.341      5.550
REMARK  Name = 
REMARK  7 active torsions:
REMARK  status: ('A' for Active; 'I' for Inactive)
REMARK    1  A    between atoms: C_1  and  C_2
REMARK    2  A    between atoms: N_4  and  C_5
REMARK    3  A    between atoms: N_9  and  C_10
REMARK    4  A    between atoms: N_16  and  C_17
REMARK    5  A    between atoms: C_17  and  C_18
REMARK    6  A    between atoms: C_23  and  C_24
REMARK    7  A    between atoms: N_28  and  C_29
REMARK                            x       y       z     vdW  Elec       q    Type
REMARK                         _______ _______ _______ _____ _____    ______ ____
ROOT
ATOM      1  C   UNL     1      -4.733  13.278  21.042  0.00  0.00    +0.000 A 
ATOM      2  C   UNL     1      -6.134  13.253  20.844  0.00  0.00    +0.000 A 
ATOM      3  C   UNL     1      -6.717  12.587  19.751  0.00  0.00    +0.000 A 
ATOM      4  N   UNL     1      -6.031  11.914  18.819  0.00  0.00    +0.000 NA
ATOM      5  C   UNL     1      -4.705  11.974  18.977  0.00  0.00    +0.000 A 
ATOM      6  C   UNL     1      -4.010  12.674  19.998  0.00  0.00    +0.000 A 
ATOM      7  N   UNL     1      -2.633  12.482  19.703  0.00  0.00    +0.000 N 
ATOM      8  C   UNL     1      -2.494  11.578  18.642  0.00  0.00    +0.000 A 
ATOM      9  O   UNL     1      -1.446  11.116  18.221  0.00  0.00    +0.000 OA
ATOM     10  N   UNL     1      -3.772  11.297  18.185  0.00  0.00    +0.000 N 
ATOM     11  C   UNL     1      -4.089  10.356  17.156  0.00  0.00    +0.000 C 
ENDROOT
BRANCH   1  16
ATOM     12  C   UNL     1      -2.851  15.372  23.603  0.00  0.00    +0.000 C 
ATOM     13  C   UNL     1      -3.261  14.638  24.880  0.00  0.00    +0.000 C 
ATOM     14  C   UNL     1      -3.603  13.170  24.598  0.00  0.00    +0.000 C 
ATOM     15  C   UNL     1      -4.657  13.014  23.502  0.00  0.00    +0.000 C 
ATOM     16  N   UNL     1      -4.199  13.710  22.274  0.00  0.00    +0.000 N 
ATOM     17  C   UNL     1      -4.001  15.146  22.552  0.00  0.00    +0.000 C 
BRANCH  12  21
ATOM     18  C   UNL     1       0.810  15.329  22.359  0.00  0.00    +0.000 C 
ATOM     19  C   UNL     1      -0.586  15.882  22.459  0.00  0.00    +0.000 C 
ATOM     20  O   UNL     1      -0.849  16.980  21.972  0.00  0.00    +0.000 OA
ATOM     21  N   UNL     1      -1.488  15.061  23.108  0.00  0.00    +0.000 N 
ATOM     22  H   UNL     1      -1.245  14.084  23.091  0.00  0.00    +0.000 HD
ENDBRANCH  12  21
ENDBRANCH   1  16
BRANCH   7  23
ATOM     23  C   UNL     1      -1.487  12.947  20.395  0.00  0.00    +0.000 C 
BRANCH  23  24
ATOM     24  C   UNL     1      -0.798  11.960  21.340  0.00  0.00    +0.000 A 
ATOM     25  C   UNL     1      -1.456  11.432  22.471  0.00  0.00    +0.000 A 
ATOM     26  C   UNL     1      -0.985  10.282  23.112  0.00  0.00    +0.000 A 
ATOM     27  C   UNL     1       0.193   9.677  22.689  0.00  0.00    +0.000 A 
ATOM     28  C   UNL     1       0.926  10.252  21.658  0.00  0.00    +0.000 A 
ATOM     29  C   UNL     1       0.445  11.390  20.988  0.00  0.00    +0.000 A 
BRANCH  29  30
ATOM     30  C   UNL     1       1.240  11.896  19.902  0.00  0.00    +0.000 C 
ATOM     31  N   UNL     1       1.844  12.340  19.018  0.00  0.00    +0.000 NA
ENDBRANCH  29  30
ENDBRANCH  23  24
ENDBRANCH   7  23
TORSDOF 5
ENDMDL
