MODEL 1
REMARK VINA RESULT:      -5.8      0.000      0.000
REMARK  Name = 
REMARK  14 active torsions:
REMARK  status: ('A' for Active; 'I' for Inactive)
REMARK    1  A    between atoms: C_1  and  C_2
REMARK    2  A    between atoms: C_2  and  C_3
REMARK    3  A    between atoms: C_3  and  N_4
REMARK    4  A    between atoms: N_4  and  C_5
REMARK    5  A    between atoms: N_4  and  C_8
REMARK    6  A    between atoms: C_5  and  C_6
REMARK    7  A    between atoms: C_6  and  C_7
REMARK    8  A    between atoms: C_11  and  C_12
REMARK    9  A    between atoms: C_15  and  C_16
REMARK   10  A    between atoms: C_19  and  N_20
REMARK   11  A    between atoms: N_20  and  C_21
REMARK   12  A    between atoms: N_20  and  C_22
REMARK   13  A    between atoms: C_24  and  C_25
REMARK   14  A    between atoms: C_26  and  C_27
REMARK                            x       y       z     vdW  Elec       q    Type
REMARK                         _______ _______ _______ _____ _____    ______ ____
ROOT
ATOM      1  C   UNL     1       0.264  14.914  19.726  0.00  0.00    +0.000 A 
ATOM      2  C   UNL     1       1.364  15.077  20.516  0.00  0.00    +0.000 A 
ATOM      3 BR   UNL     1       1.697  16.586  21.571  0.00  0.00    +0.000 Br
ATOM      4  C   UNL     1       2.348  13.941  20.555  0.00  0.00    +0.000 A 
ATOM      5  C   UNL     1       3.657  14.062  21.298  0.00  0.00    +0.000 C 
ATOM      6  N   UNL     1       2.155  12.790  19.989  0.00  0.00    +0.000 NA
ATOM      7  C   UNL     1       0.926  12.542  19.476  0.00  0.00    +0.000 A 
ATOM      8  C   UNL     1       0.310  11.336  19.193  0.00  0.00    +0.000 A 
ATOM      9  C   UNL     1      -0.942  11.731  18.637  0.00  0.00    +0.000 A 
ATOM     10  C   UNL     1      -2.055  10.876  18.133  0.00  0.00    +0.000 C 
ATOM     11  N   UNL     1      -1.091  13.067  18.600  0.00  0.00    +0.000 NA
ATOM     12  N   UNL     1       0.005  13.571  19.246  0.00  0.00    +0.000 N 
ENDROOT
BRANCH   8  13
ATOM     13  C   UNL     1       0.914  10.013  19.437  0.00  0.00    +0.000 A 
ATOM     14  C   UNL     1       1.611   9.372  18.415  0.00  0.00    +0.000 A 
ATOM     15  N   UNL     1       2.174   8.130  18.482  0.00  0.00    +0.000 NA
ATOM     16  C   UNL     1       2.110   7.437  19.637  0.00  0.00    +0.000 A 
ATOM     17  C   UNL     1       1.476   8.028  20.722  0.00  0.00    +0.000 A 
ATOM     18  C   UNL     1       0.846   9.290  20.640  0.00  0.00    +0.000 A 
ATOM     19  C   UNL     1       0.181   9.745  21.910  0.00  0.00    +0.000 C 
BRANCH  16  20
ATOM     20  N   UNL     1       2.617   6.153  19.690  0.00  0.00    +0.000 N 
ATOM     21  C   UNL     1       3.823   5.841  18.936  0.00  0.00    +0.000 C 
ATOM     22  C   UNL     1       2.182   5.128  20.627  0.00  0.00    +0.000 C 
ENDBRANCH  16  20
ENDBRANCH   8  13
BRANCH   1  23
ATOM     23  N   UNL     1      -0.593  15.987  19.355  0.00  0.00    +0.000 N 
BRANCH  23  24
ATOM     24  C   UNL     1      -0.417  16.697  18.065  0.00  0.00    +0.000 C 
BRANCH  24  26
ATOM     25  C   UNL     1       0.973  18.404  16.778  0.00  0.00    +0.000 C 
ATOM     26  C   UNL     1       0.556  17.879  18.140  0.00  0.00    +0.000 C 
ENDBRANCH  24  26
ENDBRANCH  23  24
BRANCH  23  27
ATOM     27  C   UNL     1      -1.720  16.448  20.186  0.00  0.00    +0.000 C 
BRANCH  27  28
ATOM     28  C   UNL     1      -2.193  15.378  21.180  0.00  0.00    +0.000 C 
ATOM     29  C   UNL     1      -3.705  15.216  21.299  0.00  0.00    +0.000 C 
ENDBRANCH  27  28
ENDBRANCH  23  27
ENDBRANCH   1  23
TORSDOF 7
ENDMDL
MODEL 2
REMARK VINA RESULT:      -5.7      1.031      1.422
REMARK  Name = 
REMARK  14 active torsions:
REMARK  status: ('A' for Active; 'I' for Inactive)
REMARK    1  A    between atoms: C_1  and  C_2
REMARK    2  A    between atoms: C_2  and  C_3
REMARK    3  A    between atoms: C_3  and  N_4
REMARK    4  A    between atoms: N_4  and  C_5
REMARK    5  A    between atoms: N_4  and  C_8
REMARK    6  A    between atoms: C_5  and  C_6
REMARK    7  A    between atoms: C_6  and  C_7
REMARK    8  A    between atoms: C_11  and  C_12
REMARK    9  A    between atoms: C_15  and  C_16
REMARK   10  A    between atoms: C_19  and  N_20
REMARK   11  A    between atoms: N_20  and  C_21
REMARK   12  A    between atoms: N_20  and  C_22
REMARK   13  A    between atoms: C_24  and  C_25
REMARK   14  A    between atoms: C_26  and  C_27
REMARK                            x       y       z     vdW  Elec       q    Type
REMARK                         _______ _______ _______ _____ _____    ______ ____
ROOT
ATOM      1  C   UNL     1      -0.241  14.500  20.450  0.00  0.00    +0.000 A 
ATOM      2  C   UNL     1       0.951  14.692  21.083  0.00  0.00    +0.000 A 
ATOM      3 BR   UNL     1       1.260  15.994  22.391  0.00  0.00    +0.000 Br
ATOM      4  C   UNL     1       2.074  13.761  20.717  0.00  0.00    +0.000 A 
ATOM      5  C   UNL     1       3.467  13.958  21.263  0.00  0.00    +0.000 C 
ATOM      6  N   UNL     1       1.941  12.731  19.940  0.00  0.00    +0.000 NA
ATOM      7  C   UNL     1       0.686  12.379  19.573  0.00  0.00    +0.000 A 
ATOM      8  C   UNL     1       0.201  11.166  19.119  0.00  0.00    +0.000 A 
ATOM      9  C   UNL     1      -1.175  11.439  18.861  0.00  0.00    +0.000 A 
ATOM     10  C   UNL     1      -2.232  10.521  18.347  0.00  0.00    +0.000 C 
ATOM     11  N   UNL     1      -1.511  12.708  19.150  0.00  0.00    +0.000 NA
ATOM     12  N   UNL     1      -0.396  13.257  19.722  0.00  0.00    +0.000 N 
ENDROOT
BRANCH   8  13
ATOM     13  C   UNL     1       1.016   9.948  18.964  0.00  0.00    +0.000 A 
ATOM     14  C   UNL     1       1.702   9.721  17.772  0.00  0.00    +0.000 A 
ATOM     15  N   UNL     1       2.449   8.618  17.472  0.00  0.00    +0.000 NA
ATOM     16  C   UNL     1       2.599   7.649  18.397  0.00  0.00    +0.000 A 
ATOM     17  C   UNL     1       1.989   7.822  19.633  0.00  0.00    +0.000 A 
ATOM     18  C   UNL     1       1.172   8.936  19.928  0.00  0.00    +0.000 A 
ATOM     19  C   UNL     1       0.569   8.927  21.306  0.00  0.00    +0.000 C 
BRANCH  16  20
ATOM     20  N   UNL     1       3.295   6.500  18.074  0.00  0.00    +0.000 N 
ATOM     21  C   UNL     1       2.639   5.210  18.236  0.00  0.00    +0.000 C 
ATOM     22  C   UNL     1       4.562   6.473  17.359  0.00  0.00    +0.000 C 
ENDBRANCH  16  20
ENDBRANCH   8  13
BRANCH   1  23
ATOM     23  N   UNL     1      -1.292  15.460  20.464  0.00  0.00    +0.000 N 
BRANCH  23  24
ATOM     24  C   UNL     1      -1.265  16.638  19.564  0.00  0.00    +0.000 C 
BRANCH  24  26
ATOM     25  C   UNL     1       0.910  17.468  18.521  0.00  0.00    +0.000 C 
ATOM     26  C   UNL     1      -0.263  16.509  18.411  0.00  0.00    +0.000 C 
ENDBRANCH  24  26
ENDBRANCH  23  24
BRANCH  23  27
ATOM     27  C   UNL     1      -2.481  15.347  21.328  0.00  0.00    +0.000 C 
BRANCH  27  28
ATOM     28  C   UNL     1      -2.333  14.246  22.389  0.00  0.00    +0.000 C 
ATOM     29  C   UNL     1      -3.313  13.084  22.269  0.00  0.00    +0.000 C 
ENDBRANCH  27  28
ENDBRANCH  23  27
ENDBRANCH   1  23
TORSDOF 7
ENDMDL
MODEL 3
REMARK VINA RESULT:      -5.6      1.147      2.507
REMARK  Name = 
REMARK  14 active torsions:
REMARK  status: ('A' for Active; 'I' for Inactive)
REMARK    1  A    between atoms: C_1  and  C_2
REMARK    2  A    between atoms: C_2  and  C_3
REMARK    3  A    between atoms: C_3  and  N_4
REMARK    4  A    between atoms: N_4  and  C_5
REMARK    5  A    between atoms: N_4  and  C_8
REMARK    6  A    between atoms: C_5  and  C_6
REMARK    7  A    between atoms: C_6  and  C_7
REMARK    8  A    between atoms: C_11  and  C_12
REMARK    9  A    between atoms: C_15  and  C_16
REMARK   10  A    between atoms: C_19  and  N_20
REMARK   11  A    between atoms: N_20  and  C_21
REMARK   12  A    between atoms: N_20  and  C_22
REMARK   13  A    between atoms: C_24  and  C_25
REMARK   14  A    between atoms: C_26  and  C_27
REMARK                            x       y       z     vdW  Elec       q    Type
REMARK                         _______ _______ _______ _____ _____    ______ ____
ROOT
ATOM      1  C   UNL     1       0.570  15.312  19.166  0.00  0.00    +0.000 A 
ATOM      2  C   UNL     1       1.891  15.488  19.457  0.00  0.00    +0.000 A 
ATOM      3 BR   UNL     1       2.609  17.035  20.227  0.00  0.00    +0.000 Br
ATOM      4  C   UNL     1       2.811  14.336  19.164  0.00  0.00    +0.000 A 
ATOM      5  C   UNL     1       4.306  14.465  19.333  0.00  0.00    +0.000 C 
ATOM      6  N   UNL     1       2.413  13.166  18.773  0.00  0.00    +0.000 NA
ATOM      7  C   UNL     1       1.081  12.919  18.791  0.00  0.00    +0.000 A 
ATOM      8  C   UNL     1       0.402  11.714  18.827  0.00  0.00    +0.000 A 
ATOM      9  C   UNL     1      -0.967  12.108  18.784  0.00  0.00    +0.000 A 
ATOM     10  C   UNL     1      -2.190  11.254  18.793  0.00  0.00    +0.000 C 
ATOM     11  N   UNL     1      -1.118  13.444  18.745  0.00  0.00    +0.000 NA
ATOM     12  N   UNL     1       0.143  13.955  18.888  0.00  0.00    +0.000 N 
ENDROOT
BRANCH   8  13
ATOM     13  C   UNL     1       1.052  10.392  18.879  0.00  0.00    +0.000 A 
ATOM     14  C   UNL     1       1.809   9.950  17.796  0.00  0.00    +0.000 A 
ATOM     15  N   UNL     1       2.421   8.734  17.685  0.00  0.00    +0.000 NA
ATOM     16  C   UNL     1       2.348   7.862  18.710  0.00  0.00    +0.000 A 
ATOM     17  C   UNL     1       1.655   8.246  19.851  0.00  0.00    +0.000 A 
ATOM     18  C   UNL     1       0.976   9.482  19.947  0.00  0.00    +0.000 A 
ATOM     19  C   UNL     1       0.251   9.701  21.247  0.00  0.00    +0.000 C 
BRANCH  16  20
ATOM     20  N   UNL     1       2.906   6.605  18.577  0.00  0.00    +0.000 N 
ATOM     21  C   UNL     1       3.964   6.406  17.595  0.00  0.00    +0.000 C 
ATOM     22  C   UNL     1       2.692   5.501  19.500  0.00  0.00    +0.000 C 
ENDBRANCH  16  20
ENDBRANCH   8  13
BRANCH   1  23
ATOM     23  N   UNL     1      -0.363  16.385  19.107  0.00  0.00    +0.000 N 
BRANCH  23  24
ATOM     24  C   UNL     1      -1.050  16.870  20.329  0.00  0.00    +0.000 C 
BRANCH  24  26
ATOM     25  C   UNL     1      -0.791  16.651  22.856  0.00  0.00    +0.000 C 
ATOM     26  C   UNL     1      -0.914  15.925  21.528  0.00  0.00    +0.000 C 
ENDBRANCH  24  26
ENDBRANCH  23  24
BRANCH  23  27
ATOM     27  C   UNL     1      -0.690  17.107  17.865  0.00  0.00    +0.000 C 
BRANCH  27  28
ATOM     28  C   UNL     1       0.171  18.364  17.673  0.00  0.00    +0.000 C 
ATOM     29  C   UNL     1       0.649  18.621  16.247  0.00  0.00    +0.000 C 
ENDBRANCH  27  28
ENDBRANCH  23  27
ENDBRANCH   1  23
TORSDOF 7
ENDMDL
MODEL 4
REMARK VINA RESULT:      -5.4      0.818      2.561
REMARK  Name = 
REMARK  14 active torsions:
REMARK  status: ('A' for Active; 'I' for Inactive)
REMARK    1  A    between atoms: C_1  and  C_2
REMARK    2  A    between atoms: C_2  and  C_3
REMARK    3  A    between atoms: C_3  and  N_4
REMARK    4  A    between atoms: N_4  and  C_5
REMARK    5  A    between atoms: N_4  and  C_8
REMARK    6  A    between atoms: C_5  and  C_6
REMARK    7  A    between atoms: C_6  and  C_7
REMARK    8  A    between atoms: C_11  and  C_12
REMARK    9  A    between atoms: C_15  and  C_16
REMARK   10  A    between atoms: C_19  and  N_20
REMARK   11  A    between atoms: N_20  and  C_21
REMARK   12  A    between atoms: N_20  and  C_22
REMARK   13  A    between atoms: C_24  and  C_25
REMARK   14  A    between atoms: C_26  and  C_27
REMARK                            x       y       z     vdW  Elec       q    Type
REMARK                         _______ _______ _______ _____ _____    ______ ____
ROOT
ATOM      1  C   UNL     1       0.144  14.865  20.105  0.00  0.00    +0.000 A 
ATOM      2  C   UNL     1       1.352  15.013  20.718  0.00  0.00    +0.000 A 
ATOM      3 BR   UNL     1       1.769  16.380  21.925  0.00  0.00    +0.000 Br
ATOM      4  C   UNL     1       2.399  13.976  20.418  0.00  0.00    +0.000 A 
ATOM      5  C   UNL     1       3.807  14.107  20.945  0.00  0.00    +0.000 C 
ATOM      6  N   UNL     1       2.184  12.904  19.720  0.00  0.00    +0.000 NA
ATOM      7  C   UNL     1       0.902  12.622  19.384  0.00  0.00    +0.000 A 
ATOM      8  C   UNL     1       0.324  11.418  19.022  0.00  0.00    +0.000 A 
ATOM      9  C   UNL     1      -1.029  11.774  18.748  0.00  0.00    +0.000 A 
ATOM     10  C   UNL     1      -2.156  10.903  18.307  0.00  0.00    +0.000 C 
ATOM     11  N   UNL     1      -1.267  13.083  18.944  0.00  0.00    +0.000 NA
ATOM     12  N   UNL     1      -0.109  13.587  19.470  0.00  0.00    +0.000 N 
ENDROOT
BRANCH   8  13
ATOM     13  C   UNL     1       1.045  10.134  18.954  0.00  0.00    +0.000 A 
ATOM     14  C   UNL     1       1.739   9.790  17.796  0.00  0.00    +0.000 A 
ATOM     15  N   UNL     1       2.404   8.618  17.575  0.00  0.00    +0.000 NA
ATOM     16  C   UNL     1       2.456   7.693  18.555  0.00  0.00    +0.000 A 
ATOM     17  C   UNL     1       1.832   7.980  19.762  0.00  0.00    +0.000 A 
ATOM     18  C   UNL     1       1.098   9.169  19.974  0.00  0.00    +0.000 A 
ATOM     19  C   UNL     1       0.464   9.282  21.334  0.00  0.00    +0.000 C 
BRANCH  16  20
ATOM     20  N   UNL     1       3.067   6.478  18.313  0.00  0.00    +0.000 N 
ATOM     21  C   UNL     1       2.300   5.254  18.499  0.00  0.00    +0.000 C 
ATOM     22  C   UNL     1       4.357   6.315  17.658  0.00  0.00    +0.000 C 
ENDBRANCH  16  20
ENDBRANCH   8  13
BRANCH   1  23
ATOM     23  N   UNL     1      -0.833  15.899  20.051  0.00  0.00    +0.000 N 
BRANCH  23  24
ATOM     24  C   UNL     1      -1.757  16.139  21.185  0.00  0.00    +0.000 C 
BRANCH  24  26
ATOM     25  C   UNL     1      -3.318  14.207  21.764  0.00  0.00    +0.000 C 
ATOM     26  C   UNL     1      -3.140  15.506  20.997  0.00  0.00    +0.000 C 
ENDBRANCH  24  26
ENDBRANCH  23  24
BRANCH  23  27
ATOM     27  C   UNL     1      -0.978  16.816  18.907  0.00  0.00    +0.000 C 
BRANCH  27  28
ATOM     28  C   UNL     1       0.355  17.080  18.191  0.00  0.00    +0.000 C 
ATOM     29  C   UNL     1       0.416  18.363  17.370  0.00  0.00    +0.000 C 
ENDBRANCH  27  28
ENDBRANCH  23  27
ENDBRANCH   1  23
TORSDOF 7
ENDMDL
MODEL 5
REMARK VINA RESULT:      -5.4      1.302      2.531
REMARK  Name = 
REMARK  14 active torsions:
REMARK  status: ('A' for Active; 'I' for Inactive)
REMARK    1  A    between atoms: C_1  and  C_2
REMARK    2  A    between atoms: C_2  and  C_3
REMARK    3  A    between atoms: C_3  and  N_4
REMARK    4  A    between atoms: N_4  and  C_5
REMARK    5  A    between atoms: N_4  and  C_8
REMARK    6  A    between atoms: C_5  and  C_6
REMARK    7  A    between atoms: C_6  and  C_7
REMARK    8  A    between atoms: C_11  and  C_12
REMARK    9  A    between atoms: C_15  and  C_16
REMARK   10  A    between atoms: C_19  and  N_20
REMARK   11  A    between atoms: N_20  and  C_21
REMARK   12  A    between atoms: N_20  and  C_22
REMARK   13  A    between atoms: C_24  and  C_25
REMARK   14  A    between atoms: C_26  and  C_27
REMARK                            x       y       z     vdW  Elec       q    Type
REMARK                         _______ _______ _______ _____ _____    ______ ____
ROOT
ATOM      1  C   UNL     1      -0.030  14.637  20.484  0.00  0.00    +0.000 A 
ATOM      2  C   UNL     1       1.179  14.793  21.095  0.00  0.00    +0.000 A 
ATOM      3 BR   UNL     1       1.554  16.096  22.385  0.00  0.00    +0.000 Br
ATOM      4  C   UNL     1       2.262  13.821  20.718  0.00  0.00    +0.000 A 
ATOM      5  C   UNL     1       3.671  13.976  21.240  0.00  0.00    +0.000 C 
ATOM      6  N   UNL     1       2.082  12.790  19.954  0.00  0.00    +0.000 NA
ATOM      7  C   UNL     1       0.809  12.477  19.612  0.00  0.00    +0.000 A 
ATOM      8  C   UNL     1       0.275  11.277  19.178  0.00  0.00    +0.000 A 
ATOM      9  C   UNL     1      -1.094  11.594  18.940  0.00  0.00    +0.000 A 
ATOM     10  C   UNL     1      -2.191  10.708  18.454  0.00  0.00    +0.000 C 
ATOM     11  N   UNL     1      -1.382  12.877  19.223  0.00  0.00    +0.000 NA
ATOM     12  N   UNL     1      -0.239  13.392  19.771  0.00  0.00    +0.000 N 
ENDROOT
BRANCH   8  13
ATOM     13  C   UNL     1       1.046  10.030  19.021  0.00  0.00    +0.000 A 
ATOM     14  C   UNL     1       1.727   9.783  17.830  0.00  0.00    +0.000 A 
ATOM     15  N   UNL     1       2.434   8.654  17.528  0.00  0.00    +0.000 NA
ATOM     16  C   UNL     1       2.546   7.677  18.450  0.00  0.00    +0.000 A 
ATOM     17  C   UNL     1       1.939   7.868  19.685  0.00  0.00    +0.000 A 
ATOM     18  C   UNL     1       1.162   9.011  19.981  0.00  0.00    +0.000 A 
ATOM     19  C   UNL     1       0.556   9.019  21.358  0.00  0.00    +0.000 C 
BRANCH  16  20
ATOM     20  N   UNL     1       3.201   6.505  18.125  0.00  0.00    +0.000 N 
ATOM     21  C   UNL     1       2.556   5.234  18.422  0.00  0.00    +0.000 C 
ATOM     22  C   UNL     1       4.391   6.425  17.292  0.00  0.00    +0.000 C 
ENDBRANCH  16  20
ENDBRANCH   8  13
BRANCH   1  23
ATOM     23  N   UNL     1      -1.048  15.631  20.507  0.00  0.00    +0.000 N 
BRANCH  23  24
ATOM     24  C   UNL     1      -1.968  15.759  21.662  0.00  0.00    +0.000 C 
BRANCH  24  26
ATOM     25  C   UNL     1      -1.730  14.361  23.782  0.00  0.00    +0.000 C 
ATOM     26  C   UNL     1      -2.266  14.428  22.362  0.00  0.00    +0.000 C 
ENDBRANCH  24  26
ENDBRANCH  23  24
BRANCH  23  27
ATOM     27  C   UNL     1      -1.243  16.615  19.426  0.00  0.00    +0.000 C 
BRANCH  27  28
ATOM     28  C   UNL     1      -1.964  17.882  19.909  0.00  0.00    +0.000 C 
ATOM     29  C   UNL     1      -3.054  18.410  18.982  0.00  0.00    +0.000 C 
ENDBRANCH  27  28
ENDBRANCH  23  27
ENDBRANCH   1  23
TORSDOF 7
ENDMDL
MODEL 6
REMARK VINA RESULT:      -5.3      2.760      6.411
REMARK  Name = 
REMARK  14 active torsions:
REMARK  status: ('A' for Active; 'I' for Inactive)
REMARK    1  A    between atoms: C_1  and  C_2
REMARK    2  A    between atoms: C_2  and  C_3
REMARK    3  A    between atoms: C_3  and  N_4
REMARK    4  A    between atoms: N_4  and  C_5
REMARK    5  A    between atoms: N_4  and  C_8
REMARK    6  A    between atoms: C_5  and  C_6
REMARK    7  A    between atoms: C_6  and  C_7
REMARK    8  A    between atoms: C_11  and  C_12
REMARK    9  A    between atoms: C_15  and  C_16
REMARK   10  A    between atoms: C_19  and  N_20
REMARK   11  A    between atoms: N_20  and  C_21
REMARK   12  A    between atoms: N_20  and  C_22
REMARK   13  A    between atoms: C_24  and  C_25
REMARK   14  A    between atoms: C_26  and  C_27
REMARK                            x       y       z     vdW  Elec       q    Type
REMARK                         _______ _______ _______ _____ _____    ______ ____
ROOT
ATOM      1  C   UNL     1       2.114  14.905  18.960  0.00  0.00    +0.000 A 
ATOM      2  C   UNL     1       1.481  16.023  18.503  0.00  0.00    +0.000 A 
ATOM      3 BR   UNL     1       2.325  17.422  17.592  0.00  0.00    +0.000 Br
ATOM      4  C   UNL     1      -0.004  16.101  18.725  0.00  0.00    +0.000 A 
ATOM      5  C   UNL     1      -0.786  17.343  18.370  0.00  0.00    +0.000 C 
ATOM      6  N   UNL     1      -0.721  15.134  19.207  0.00  0.00    +0.000 NA
ATOM      7  C   UNL     1      -0.124  13.928  19.362  0.00  0.00    +0.000 A 
ATOM      8  C   UNL     1      -0.684  12.666  19.456  0.00  0.00    +0.000 A 
ATOM      9  C   UNL     1       0.447  11.820  19.651  0.00  0.00    +0.000 A 
ATOM     10  C   UNL     1       0.491  10.340  19.824  0.00  0.00    +0.000 C 
ATOM     11  N   UNL     1       1.606  12.502  19.657  0.00  0.00    +0.000 NA
ATOM     12  N   UNL     1       1.269  13.791  19.340  0.00  0.00    +0.000 N 
ENDROOT
BRANCH   8  13
ATOM     13  C   UNL     1      -2.129  12.387  19.376  0.00  0.00    +0.000 A 
ATOM     14  C   UNL     1      -2.969  12.780  20.416  0.00  0.00    +0.000 A 
ATOM     15  N   UNL     1      -4.311  12.542  20.499  0.00  0.00    +0.000 NA
ATOM     16  C   UNL     1      -4.934  11.907  19.487  0.00  0.00    +0.000 A 
ATOM     17  C   UNL     1      -4.177  11.527  18.386  0.00  0.00    +0.000 A 
ATOM     18  C   UNL     1      -2.779  11.724  18.321  0.00  0.00    +0.000 A 
ATOM     19  C   UNL     1      -2.130  11.211  17.063  0.00  0.00    +0.000 C 
BRANCH  16  20
ATOM     20  N   UNL     1      -6.277  11.604  19.596  0.00  0.00    +0.000 N 
ATOM     21  C   UNL     1      -6.917  10.848  18.528  0.00  0.00    +0.000 C 
ATOM     22  C   UNL     1      -7.069  11.772  20.806  0.00  0.00    +0.000 C 
ENDBRANCH  16  20
ENDBRANCH   8  13
BRANCH   1  23
ATOM     23  N   UNL     1       3.528  14.812  19.092  0.00  0.00    +0.000 N 
BRANCH  23  24
ATOM     24  C   UNL     1       4.215  15.274  20.322  0.00  0.00    +0.000 C 
BRANCH  24  26
ATOM     25  C   UNL     1       5.217  14.385  22.492  0.00  0.00    +0.000 C 
ATOM     26  C   UNL     1       4.060  14.318  21.510  0.00  0.00    +0.000 C 
ENDBRANCH  24  26
ENDBRANCH  23  24
BRANCH  23  27
ATOM     27  C   UNL     1       4.401  14.230  18.056  0.00  0.00    +0.000 C 
BRANCH  27  28
ATOM     28  C   UNL     1       5.774  14.917  17.992  0.00  0.00    +0.000 C 
ATOM     29  C   UNL     1       6.940  14.016  17.598  0.00  0.00    +0.000 C 
ENDBRANCH  27  28
ENDBRANCH  23  27
ENDBRANCH   1  23
TORSDOF 7
ENDMDL
MODEL 7
REMARK VINA RESULT:      -5.3      4.153      8.990
REMARK  Name = 
REMARK  14 active torsions:
REMARK  status: ('A' for Active; 'I' for Inactive)
REMARK    1  A    between atoms: C_1  and  C_2
REMARK    2  A    between atoms: C_2  and  C_3
REMARK    3  A    between atoms: C_3  and  N_4
REMARK    4  A    between atoms: N_4  and  C_5
REMARK    5  A    between atoms: N_4  and  C_8
REMARK    6  A    between atoms: C_5  and  C_6
REMARK    7  A    between atoms: C_6  and  C_7
REMARK    8  A    between atoms: C_11  and  C_12
REMARK    9  A    between atoms: C_15  and  C_16
REMARK   10  A    between atoms: C_19  and  N_20
REMARK   11  A    between atoms: N_20  and  C_21
REMARK   12  A    between atoms: N_20  and  C_22
REMARK   13  A    between atoms: C_24  and  C_25
REMARK   14  A    between atoms: C_26  and  C_27
REMARK                            x       y       z     vdW  Elec       q    Type
REMARK                         _______ _______ _______ _____ _____    ______ ____
ROOT
ATOM      1  C   UNL     1       3.745   6.331  18.237  0.00  0.00    +0.000 A 
ATOM      2  C   UNL     1       3.385   5.453  19.216  0.00  0.00    +0.000 A 
ATOM      3 BR   UNL     1       4.389   3.957  19.719  0.00  0.00    +0.000 Br
ATOM      4  C   UNL     1       2.108   5.744  19.955  0.00  0.00    +0.000 A 
ATOM      5  C   UNL     1       1.553   4.777  20.972  0.00  0.00    +0.000 C 
ATOM      6  N   UNL     1       1.407   6.824  19.800  0.00  0.00    +0.000 NA
ATOM      7  C   UNL     1       1.945   7.820  19.056  0.00  0.00    +0.000 A 
ATOM      8  C   UNL     1       1.655   9.172  19.040  0.00  0.00    +0.000 A 
ATOM      9  C   UNL     1       2.516   9.680  18.024  0.00  0.00    +0.000 A 
ATOM     10  C   UNL     1       2.665  11.082  17.536  0.00  0.00    +0.000 C 
ATOM     11  N   UNL     1       3.285   8.723  17.474  0.00  0.00    +0.000 NA
ATOM     12  N   UNL     1       3.034   7.594  18.205  0.00  0.00    +0.000 N 
ENDROOT
BRANCH   8  13
ATOM     13  C   UNL     1       0.655   9.820  19.907  0.00  0.00    +0.000 A 
ATOM     14  C   UNL     1      -0.394  10.539  19.337  0.00  0.00    +0.000 A 
ATOM     15  N   UNL     1      -1.357  11.230  20.015  0.00  0.00    +0.000 NA
ATOM     16  C   UNL     1      -1.359  11.212  21.363  0.00  0.00    +0.000 A 
ATOM     17  C   UNL     1      -0.376  10.474  22.010  0.00  0.00    +0.000 A 
ATOM     18  C   UNL     1       0.653   9.803  21.313  0.00  0.00    +0.000 A 
ATOM     19  C   UNL     1       1.646   9.089  22.190  0.00  0.00    +0.000 C 
BRANCH  16  20
ATOM     20  N   UNL     1      -2.289  11.965  22.054  0.00  0.00    +0.000 N 
ATOM     21  C   UNL     1      -3.223  12.791  21.303  0.00  0.00    +0.000 C 
ATOM     22  C   UNL     1      -2.575  11.828  23.474  0.00  0.00    +0.000 C 
ENDBRANCH  16  20
ENDBRANCH   8  13
BRANCH   1  23
ATOM     23  N   UNL     1       4.746   6.046  17.266  0.00  0.00    +0.000 N 
BRANCH  23  24
ATOM     24  C   UNL     1       4.524   5.024  16.215  0.00  0.00    +0.000 C 
BRANCH  24  26
ATOM     25  C   UNL     1       6.214   3.907  14.665  0.00  0.00    +0.000 C 
ATOM     26  C   UNL     1       5.450   5.175  15.003  0.00  0.00    +0.000 C 
ENDBRANCH  24  26
ENDBRANCH  23  24
BRANCH  23  27
ATOM     27  C   UNL     1       6.040   6.750  17.206  0.00  0.00    +0.000 C 
BRANCH  27  28
ATOM     28  C   UNL     1       7.036   6.240  18.258  0.00  0.00    +0.000 C 
ATOM     29  C   UNL     1       7.662   4.881  17.965  0.00  0.00    +0.000 C 
ENDBRANCH  27  28
ENDBRANCH  23  27
ENDBRANCH   1  23
TORSDOF 7
ENDMDL
MODEL 8
REMARK VINA RESULT:      -5.2      4.155      8.992
REMARK  Name = 
REMARK  14 active torsions:
REMARK  status: ('A' for Active; 'I' for Inactive)
REMARK    1  A    between atoms: C_1  and  C_2
REMARK    2  A    between atoms: C_2  and  C_3
REMARK    3  A    between atoms: C_3  and  N_4
REMARK    4  A    between atoms: N_4  and  C_5
REMARK    5  A    between atoms: N_4  and  C_8
REMARK    6  A    between atoms: C_5  and  C_6
REMARK    7  A    between atoms: C_6  and  C_7
REMARK    8  A    between atoms: C_11  and  C_12
REMARK    9  A    between atoms: C_15  and  C_16
REMARK   10  A    between atoms: C_19  and  N_20
REMARK   11  A    between atoms: N_20  and  C_21
REMARK   12  A    between atoms: N_20  and  C_22
REMARK   13  A    between atoms: C_24  and  C_25
REMARK   14  A    between atoms: C_26  and  C_27
REMARK                            x       y       z     vdW  Elec       q    Type
REMARK                         _______ _______ _______ _____ _____    ______ ____
ROOT
ATOM      1  C   UNL     1       3.748   6.367  18.237  0.00  0.00    +0.000 A 
ATOM      2  C   UNL     1       3.398   5.486  19.218  0.00  0.00    +0.000 A 
ATOM      3 BR   UNL     1       4.414   3.997  19.717  0.00  0.00    +0.000 Br
ATOM      4  C   UNL     1       2.122   5.768  19.961  0.00  0.00    +0.000 A 
ATOM      5  C   UNL     1       1.576   4.797  20.980  0.00  0.00    +0.000 C 
ATOM      6  N   UNL     1       1.412   6.843  19.810  0.00  0.00    +0.000 NA
ATOM      7  C   UNL     1       1.940   7.842  19.063  0.00  0.00    +0.000 A 
ATOM      8  C   UNL     1       1.640   9.193  19.049  0.00  0.00    +0.000 A 
ATOM      9  C   UNL     1       2.494   9.708  18.030  0.00  0.00    +0.000 A 
ATOM     10  C   UNL     1       2.632  11.110  17.542  0.00  0.00    +0.000 C 
ATOM     11  N   UNL     1       3.268   8.756  17.477  0.00  0.00    +0.000 NA
ATOM     12  N   UNL     1       3.028   7.625  18.209  0.00  0.00    +0.000 N 
ENDROOT
BRANCH   8  13
ATOM     13  C   UNL     1       0.639   9.834  19.921  0.00  0.00    +0.000 A 
ATOM     14  C   UNL     1      -0.407  10.561  19.355  0.00  0.00    +0.000 A 
ATOM     15  N   UNL     1      -1.371  11.246  20.038  0.00  0.00    +0.000 NA
ATOM     16  C   UNL     1      -1.376  11.214  21.385  0.00  0.00    +0.000 A 
ATOM     17  C   UNL     1      -0.396  10.468  22.028  0.00  0.00    +0.000 A 
ATOM     18  C   UNL     1       0.634   9.802  21.326  0.00  0.00    +0.000 A 
ATOM     19  C   UNL     1       1.623   9.077  22.199  0.00  0.00    +0.000 C 
BRANCH  16  20
ATOM     20  N   UNL     1      -2.307  11.961  22.081  0.00  0.00    +0.000 N 
ATOM     21  C   UNL     1      -3.277  12.749  21.334  0.00  0.00    +0.000 C 
ATOM     22  C   UNL     1      -2.557  11.850  23.511  0.00  0.00    +0.000 C 
ENDBRANCH  16  20
ENDBRANCH   8  13
BRANCH   1  23
ATOM     23  N   UNL     1       4.747   6.089  17.263  0.00  0.00    +0.000 N 
BRANCH  23  24
ATOM     24  C   UNL     1       6.031   6.830  17.250  0.00  0.00    +0.000 C 
BRANCH  24  26
ATOM     25  C   UNL     1       7.583   4.940  17.974  0.00  0.00    +0.000 C 
ATOM     26  C   UNL     1       7.044   6.326  18.285  0.00  0.00    +0.000 C 
ENDBRANCH  24  26
ENDBRANCH  23  24
BRANCH  23  27
ATOM     27  C   UNL     1       4.606   5.044  16.234  0.00  0.00    +0.000 C 
BRANCH  27  28
ATOM     28  C   UNL     1       5.497   5.301  15.010  0.00  0.00    +0.000 C 
ATOM     29  C   UNL     1       6.014   4.053  14.301  0.00  0.00    +0.000 C 
ENDBRANCH  27  28
ENDBRANCH  23  27
ENDBRANCH   1  23
TORSDOF 7
ENDMDL
MODEL 9
REMARK VINA RESULT:      -5.2      0.973      2.426
REMARK  Name = 
REMARK  14 active torsions:
REMARK  status: ('A' for Active; 'I' for Inactive)
REMARK    1  A    between atoms: C_1  and  C_2
REMARK    2  A    between atoms: C_2  and  C_3
REMARK    3  A    between atoms: C_3  and  N_4
REMARK    4  A    between atoms: N_4  and  C_5
REMARK    5  A    between atoms: N_4  and  C_8
REMARK    6  A    between atoms: C_5  and  C_6
REMARK    7  A    between atoms: C_6  and  C_7
REMARK    8  A    between atoms: C_11  and  C_12
REMARK    9  A    between atoms: C_15  and  C_16
REMARK   10  A    between atoms: C_19  and  N_20
REMARK   11  A    between atoms: N_20  and  C_21
REMARK   12  A    between atoms: N_20  and  C_22
REMARK   13  A    between atoms: C_24  and  C_25
REMARK   14  A    between atoms: C_26  and  C_27
REMARK                            x       y       z     vdW  Elec       q    Type
REMARK                         _______ _______ _______ _____ _____    ______ ____
ROOT
ATOM      1  C   UNL     1       0.388  15.298  20.726  0.00  0.00    +0.000 A 
ATOM      2  C   UNL     1       1.602  15.347  21.346  0.00  0.00    +0.000 A 
ATOM      3 BR   UNL     1       2.150  16.716  22.498  0.00  0.00    +0.000 Br
ATOM      4  C   UNL     1       2.537  14.195  21.102  0.00  0.00    +0.000 A 
ATOM      5  C   UNL     1       3.949  14.204  21.637  0.00  0.00    +0.000 C 
ATOM      6  N   UNL     1       2.217  13.123  20.447  0.00  0.00    +0.000 NA
ATOM      7  C   UNL     1       0.915  12.960  20.110  0.00  0.00    +0.000 A 
ATOM      8  C   UNL     1       0.218  11.807  19.793  0.00  0.00    +0.000 A 
ATOM      9  C   UNL     1      -1.090  12.288  19.490  0.00  0.00    +0.000 A 
ATOM     10  C   UNL     1      -2.298  11.520  19.074  0.00  0.00    +0.000 C 
ATOM     11  N   UNL     1      -1.192  13.622  19.627  0.00  0.00    +0.000 NA
ATOM     12  N   UNL     1       0.008  14.026  20.144  0.00  0.00    +0.000 N 
ENDROOT
BRANCH   8  13
ATOM     13  C   UNL     1       0.802  10.454  19.789  0.00  0.00    +0.000 A 
ATOM     14  C   UNL     1       1.412   9.968  18.634  0.00  0.00    +0.000 A 
ATOM     15  N   UNL     1       1.946   8.721  18.471  0.00  0.00    +0.000 NA
ATOM     16  C   UNL     1       1.943   7.859  19.508  0.00  0.00    +0.000 A 
ATOM     17  C   UNL     1       1.399   8.285  20.713  0.00  0.00    +0.000 A 
ATOM     18  C   UNL     1       0.797   9.555  20.869  0.00  0.00    +0.000 A 
ATOM     19  C   UNL     1       0.232   9.818  22.238  0.00  0.00    +0.000 C 
BRANCH  16  20
ATOM     20  N   UNL     1       2.419   6.575  19.328  0.00  0.00    +0.000 N 
ATOM     21  C   UNL     1       2.049   5.547  20.291  0.00  0.00    +0.000 C 
ATOM     22  C   UNL     1       3.077   6.096  18.122  0.00  0.00    +0.000 C 
ENDBRANCH  16  20
ENDBRANCH   8  13
BRANCH   1  23
ATOM     23  N   UNL     1      -0.475  16.424  20.618  0.00  0.00    +0.000 N 
BRANCH  23  24
ATOM     24  C   UNL     1      -1.613  16.609  21.550  0.00  0.00    +0.000 C 
BRANCH  24  26
ATOM     25  C   UNL     1      -4.127  16.995  21.738  0.00  0.00    +0.000 C 
ATOM     26  C   UNL     1      -2.986  16.477  20.881  0.00  0.00    +0.000 C 
ENDBRANCH  24  26
ENDBRANCH  23  24
BRANCH  23  27
ATOM     27  C   UNL     1      -0.293  17.491  19.617  0.00  0.00    +0.000 C 
BRANCH  27  28
ATOM     28  C   UNL     1      -0.579  17.009  18.187  0.00  0.00    +0.000 C 
ATOM     29  C   UNL     1      -0.173  17.973  17.076  0.00  0.00    +0.000 C 
ENDBRANCH  27  28
ENDBRANCH  23  27
ENDBRANCH   1  23
TORSDOF 7
ENDMDL
