MODEL 1
REMARK VINA RESULT:      -9.0      0.000      0.000
REMARK  Name = 
REMARK  7 active torsions:
REMARK  status: ('A' for Active; 'I' for Inactive)
REMARK    1  A    between atoms: C_1  and  C_2
REMARK    2  A    between atoms: C_2  and  C_3
REMARK    3  A    between atoms: C_2  and  O_4
REMARK    4  A    between atoms: O_4  and  C_5
REMARK    5  A    between atoms: C_9  and  C_10
REMARK    6  A    between atoms: C_16  and  C_17
REMARK    7  A    between atoms: C_21  and  C_22
REMARK                            x       y       z     vdW  Elec       q    Type
REMARK                         _______ _______ _______ _____ _____    ______ ____
ROOT
ATOM      1  C   UNL     1       2.179   6.467  19.795  0.00  0.00    +0.000 A 
ATOM      2  C   UNL     1       1.570   5.621  20.821  0.00  0.00    +0.000 A 
ATOM      3  C   UNL     1       1.865   4.312  20.924  0.00  0.00    +0.000 A 
ATOM      4  C   UNL     1       2.805   3.733  20.032  0.00  0.00    +0.000 A 
ATOM      5  N   UNL     1       3.237   2.504  19.882  0.00  0.00    +0.000 NA
ATOM      6  N   UNL     1       4.168   2.512  18.873  0.00  0.00    +0.000 NA
ATOM      7  C   UNL     1       4.323   3.752  18.434  0.00  0.00    +0.000 A 
ATOM      8  N   UNL     1       3.413   4.562  19.099  0.00  0.00    +0.000 N 
ATOM      9  C   UNL     1       3.078   5.911  18.958  0.00  0.00    +0.000 A 
ENDROOT
BRANCH   1  14
ATOM     10  C   UNL     1       1.137   9.996  20.563  0.00  0.00    +0.000 A 
ATOM     11  C   UNL     1       1.164  10.568  19.289  0.00  0.00    +0.000 A 
ATOM     12  C   UNL     1       1.541   9.809  18.180  0.00  0.00    +0.000 A 
ATOM     13  C   UNL     1       1.884   8.466  18.341  0.00  0.00    +0.000 A 
ATOM     14  C   UNL     1       1.836   7.883  19.613  0.00  0.00    +0.000 A 
ATOM     15  C   UNL     1       1.453   8.649  20.720  0.00  0.00    +0.000 A 
BRANCH  10  16
ATOM     16  O   UNL     1       0.724  10.814  21.577  0.00  0.00    +0.000 OA
BRANCH  16  18
ATOM     17  C   UNL     1      -0.311   9.616  23.354  0.00  0.00    +0.000 C 
ATOM     18  C   UNL     1      -0.556  10.535  22.162  0.00  0.00    +0.000 C 
ATOM     19  C   UNL     1      -1.184  11.846  22.623  0.00  0.00    +0.000 C 
ENDBRANCH  16  18
ENDBRANCH  10  16
ENDBRANCH   1  14
BRANCH   7  20
ATOM     20  C   UNL     1       5.314   4.149  17.429  0.00  0.00    +0.000 A 
ATOM     21  C   UNL     1       6.351   5.020  17.802  0.00  0.00    +0.000 A 
ATOM     22  C   UNL     1       7.273   5.490  16.864  0.00  0.00    +0.000 A 
ATOM     23  C   UNL     1       7.174   5.093  15.532  0.00  0.00    +0.000 A 
ATOM     24  C   UNL     1       6.149   4.232  15.139  0.00  0.00    +0.000 A 
ATOM     25  C   UNL     1       5.218   3.772  16.082  0.00  0.00    +0.000 A 
BRANCH  24  26
ATOM     26  C   UNL     1       6.033   3.830  13.769  0.00  0.00    +0.000 C 
ATOM     27  N   UNL     1       5.951   3.516  12.653  0.00  0.00    +0.000 NA
ENDBRANCH  24  26
ENDBRANCH   7  20
TORSDOF 5
ENDMDL
MODEL 2
REMARK VINA RESULT:      -8.7      0.948      1.047
REMARK  Name = 
REMARK  7 active torsions:
REMARK  status: ('A' for Active; 'I' for Inactive)
REMARK    1  A    between atoms: C_1  and  C_2
REMARK    2  A    between atoms: C_2  and  C_3
REMARK    3  A    between atoms: C_2  and  O_4
REMARK    4  A    between atoms: O_4  and  C_5
REMARK    5  A    between atoms: C_9  and  C_10
REMARK    6  A    between atoms: C_16  and  C_17
REMARK    7  A    between atoms: C_21  and  C_22
REMARK                            x       y       z     vdW  Elec       q    Type
REMARK                         _______ _______ _______ _____ _____    ______ ____
ROOT
ATOM      1  C   UNL     1       2.208   6.544  19.724  0.00  0.00    +0.000 A 
ATOM      2  C   UNL     1       1.590   5.775  20.804  0.00  0.00    +0.000 A 
ATOM      3  C   UNL     1       1.892   4.480  21.012  0.00  0.00    +0.000 A 
ATOM      4  C   UNL     1       2.848   3.841  20.179  0.00  0.00    +0.000 A 
ATOM      5  N   UNL     1       3.289   2.607  20.129  0.00  0.00    +0.000 NA
ATOM      6  N   UNL     1       4.233   2.544  19.135  0.00  0.00    +0.000 NA
ATOM      7  C   UNL     1       4.386   3.748  18.603  0.00  0.00    +0.000 A 
ATOM      8  N   UNL     1       3.463   4.601  19.192  0.00  0.00    +0.000 N 
ATOM      9  C   UNL     1       3.121   5.932  18.943  0.00  0.00    +0.000 A 
ENDROOT
BRANCH   1  14
ATOM     10  C   UNL     1       0.873  10.034  20.135  0.00  0.00    +0.000 A 
ATOM     11  C   UNL     1       1.170  10.584  18.885  0.00  0.00    +0.000 A 
ATOM     12  C   UNL     1       1.822   9.825  17.914  0.00  0.00    +0.000 A 
ATOM     13  C   UNL     1       2.174   8.502  18.186  0.00  0.00    +0.000 A 
ATOM     14  C   UNL     1       1.858   7.939  19.429  0.00  0.00    +0.000 A 
ATOM     15  C   UNL     1       1.200   8.706  20.398  0.00  0.00    +0.000 A 
BRANCH  10  16
ATOM     16  O   UNL     1       0.205  10.850  21.004  0.00  0.00    +0.000 OA
BRANCH  16  18
ATOM     17  C   UNL     1      -1.749  12.126  20.535  0.00  0.00    +0.000 C 
ATOM     18  C   UNL     1      -0.224  12.125  20.506  0.00  0.00    +0.000 C 
ATOM     19  C   UNL     1       0.326  13.220  21.414  0.00  0.00    +0.000 C 
ENDBRANCH  16  18
ENDBRANCH  10  16
ENDBRANCH   1  14
BRANCH   7  20
ATOM     20  C   UNL     1       5.389   4.074  17.584  0.00  0.00    +0.000 A 
ATOM     21  C   UNL     1       6.529   4.803  17.958  0.00  0.00    +0.000 A 
ATOM     22  C   UNL     1       7.472   5.207  17.010  0.00  0.00    +0.000 A 
ATOM     23  C   UNL     1       7.291   4.884  15.667  0.00  0.00    +0.000 A 
ATOM     24  C   UNL     1       6.163   4.163  15.272  0.00  0.00    +0.000 A 
ATOM     25  C   UNL     1       5.212   3.771  16.226  0.00  0.00    +0.000 A 
BRANCH  24  26
ATOM     26  C   UNL     1       5.963   3.839  13.891  0.00  0.00    +0.000 C 
ATOM     27  N   UNL     1       5.785   3.585  12.771  0.00  0.00    +0.000 NA
ENDBRANCH  24  26
ENDBRANCH   7  20
TORSDOF 5
ENDMDL
MODEL 3
REMARK VINA RESULT:      -8.3      3.155      8.422
REMARK  Name = 
REMARK  7 active torsions:
REMARK  status: ('A' for Active; 'I' for Inactive)
REMARK    1  A    between atoms: C_1  and  C_2
REMARK    2  A    between atoms: C_2  and  C_3
REMARK    3  A    between atoms: C_2  and  O_4
REMARK    4  A    between atoms: O_4  and  C_5
REMARK    5  A    between atoms: C_9  and  C_10
REMARK    6  A    between atoms: C_16  and  C_17
REMARK    7  A    between atoms: C_21  and  C_22
REMARK                            x       y       z     vdW  Elec       q    Type
REMARK                         _______ _______ _______ _____ _____    ______ ____
ROOT
ATOM      1  C   UNL     1       4.352   3.600  17.178  0.00  0.00    +0.000 A 
ATOM      2  C   UNL     1       4.014   2.198  17.421  0.00  0.00    +0.000 A 
ATOM      3  C   UNL     1       3.131   1.838  18.370  0.00  0.00    +0.000 A 
ATOM      4  C   UNL     1       2.491   2.839  19.148  0.00  0.00    +0.000 A 
ATOM      5  N   UNL     1       1.643   2.772  20.145  0.00  0.00    +0.000 NA
ATOM      6  N   UNL     1       1.331   4.058  20.511  0.00  0.00    +0.000 NA
ATOM      7  C   UNL     1       1.968   4.904  19.714  0.00  0.00    +0.000 A 
ATOM      8  N   UNL     1       2.784   4.168  18.868  0.00  0.00    +0.000 N 
ATOM      9  C   UNL     1       3.733   4.545  17.914  0.00  0.00    +0.000 A 
ENDROOT
BRANCH   1  14
ATOM     10  C   UNL     1       6.106   4.129  13.895  0.00  0.00    +0.000 A 
ATOM     11  C   UNL     1       7.253   4.810  14.310  0.00  0.00    +0.000 A 
ATOM     12  C   UNL     1       7.448   5.116  15.658  0.00  0.00    +0.000 A 
ATOM     13  C   UNL     1       6.495   4.730  16.602  0.00  0.00    +0.000 A 
ATOM     14  C   UNL     1       5.355   4.026  16.194  0.00  0.00    +0.000 A 
ATOM     15  C   UNL     1       5.169   3.720  14.841  0.00  0.00    +0.000 A 
BRANCH  10  16
ATOM     16  O   UNL     1       6.027   3.850  12.560  0.00  0.00    +0.000 OA
BRANCH  16  18
ATOM     17  C   UNL     1       4.098   3.296  11.279  0.00  0.00    +0.000 C 
ATOM     18  C   UNL     1       5.204   2.741  12.171  0.00  0.00    +0.000 C 
ATOM     19  C   UNL     1       6.057   1.740  11.399  0.00  0.00    +0.000 C 
ENDBRANCH  16  18
ENDBRANCH  10  16
ENDBRANCH   1  14
BRANCH   7  20
ATOM     20  C   UNL     1       1.788   6.359  19.750  0.00  0.00    +0.000 A 
ATOM     21  C   UNL     1       2.062   7.107  18.594  0.00  0.00    +0.000 A 
ATOM     22  C   UNL     1       1.982   8.502  18.600  0.00  0.00    +0.000 A 
ATOM     23  C   UNL     1       1.626   9.174  19.767  0.00  0.00    +0.000 A 
ATOM     24  C   UNL     1       1.354   8.449  20.929  0.00  0.00    +0.000 A 
ATOM     25  C   UNL     1       1.446   7.050  20.921  0.00  0.00    +0.000 A 
BRANCH  24  26
ATOM     26  C   UNL     1       0.999   9.133  22.137  0.00  0.00    +0.000 C 
ATOM     27  N   UNL     1       0.709   9.672  23.125  0.00  0.00    +0.000 NA
ENDBRANCH  24  26
ENDBRANCH   7  20
TORSDOF 5
ENDMDL
MODEL 4
REMARK VINA RESULT:      -8.2      4.419      6.865
REMARK  Name = 
REMARK  7 active torsions:
REMARK  status: ('A' for Active; 'I' for Inactive)
REMARK    1  A    between atoms: C_1  and  C_2
REMARK    2  A    between atoms: C_2  and  C_3
REMARK    3  A    between atoms: C_2  and  O_4
REMARK    4  A    between atoms: O_4  and  C_5
REMARK    5  A    between atoms: C_9  and  C_10
REMARK    6  A    between atoms: C_16  and  C_17
REMARK    7  A    between atoms: C_21  and  C_22
REMARK                            x       y       z     vdW  Elec       q    Type
REMARK                         _______ _______ _______ _____ _____    ______ ____
ROOT
ATOM      1  C   UNL     1      -1.455  10.786  19.293  0.00  0.00    +0.000 A 
ATOM      2  C   UNL     1      -1.474  11.868  20.277  0.00  0.00    +0.000 A 
ATOM      3  C   UNL     1      -0.738  11.813  21.402  0.00  0.00    +0.000 A 
ATOM      4  C   UNL     1       0.098  10.689  21.639  0.00  0.00    +0.000 A 
ATOM      5  N   UNL     1       0.870  10.362  22.647  0.00  0.00    +0.000 NA
ATOM      6  N   UNL     1       1.470   9.167  22.338  0.00  0.00    +0.000 NA
ATOM      7  C   UNL     1       1.084   8.786  21.129  0.00  0.00    +0.000 A 
ATOM      8  N   UNL     1       0.144   9.697  20.669  0.00  0.00    +0.000 N 
ATOM      9  C   UNL     1      -0.652   9.727  19.521  0.00  0.00    +0.000 A 
ENDROOT
BRANCH   1  14
ATOM     10  C   UNL     1      -4.289  11.515  16.934  0.00  0.00    +0.000 A 
ATOM     11  C   UNL     1      -3.902  10.778  15.812  0.00  0.00    +0.000 A 
ATOM     12  C   UNL     1      -2.706  10.058  15.816  0.00  0.00    +0.000 A 
ATOM     13  C   UNL     1      -1.895  10.065  16.951  0.00  0.00    +0.000 A 
ATOM     14  C   UNL     1      -2.291  10.783  18.086  0.00  0.00    +0.000 A 
ATOM     15  C   UNL     1      -3.493  11.500  18.076  0.00  0.00    +0.000 A 
BRANCH  10  16
ATOM     16  O   UNL     1      -5.491  12.158  16.841  0.00  0.00    +0.000 OA
BRANCH  16  18
ATOM     17  C   UNL     1      -7.373  13.290  17.761  0.00  0.00    +0.000 C 
ATOM     18  C   UNL     1      -6.261  12.285  18.045  0.00  0.00    +0.000 C 
ATOM     19  C   UNL     1      -6.852  10.925  18.398  0.00  0.00    +0.000 C 
ENDBRANCH  16  18
ENDBRANCH  10  16
ENDBRANCH   1  14
BRANCH   7  20
ATOM     20  C   UNL     1       1.609   7.606  20.434  0.00  0.00    +0.000 A 
ATOM     21  C   UNL     1       2.237   7.771  19.190  0.00  0.00    +0.000 A 
ATOM     22  C   UNL     1       2.682   6.672  18.452  0.00  0.00    +0.000 A 
ATOM     23  C   UNL     1       2.506   5.382  18.950  0.00  0.00    +0.000 A 
ATOM     24  C   UNL     1       1.879   5.195  20.183  0.00  0.00    +0.000 A 
ATOM     25  C   UNL     1       1.423   6.301  20.914  0.00  0.00    +0.000 A 
BRANCH  24  26
ATOM     26  C   UNL     1       1.682   3.872  20.696  0.00  0.00    +0.000 C 
ATOM     27  N   UNL     1       1.538   2.794  21.106  0.00  0.00    +0.000 NA
ENDBRANCH  24  26
ENDBRANCH   7  20
TORSDOF 5
ENDMDL
MODEL 5
REMARK VINA RESULT:      -8.2      2.795      7.431
REMARK  Name = 
REMARK  7 active torsions:
REMARK  status: ('A' for Active; 'I' for Inactive)
REMARK    1  A    between atoms: C_1  and  C_2
REMARK    2  A    between atoms: C_2  and  C_3
REMARK    3  A    between atoms: C_2  and  O_4
REMARK    4  A    between atoms: O_4  and  C_5
REMARK    5  A    between atoms: C_9  and  C_10
REMARK    6  A    between atoms: C_16  and  C_17
REMARK    7  A    between atoms: C_21  and  C_22
REMARK                            x       y       z     vdW  Elec       q    Type
REMARK                         _______ _______ _______ _____ _____    ______ ____
ROOT
ATOM      1  C   UNL     1       4.075   3.763  17.620  0.00  0.00    +0.000 A 
ATOM      2  C   UNL     1       3.676   2.365  17.779  0.00  0.00    +0.000 A 
ATOM      3  C   UNL     1       2.724   1.997  18.656  0.00  0.00    +0.000 A 
ATOM      4  C   UNL     1       2.071   2.986  19.437  0.00  0.00    +0.000 A 
ATOM      5  N   UNL     1       1.160   2.907  20.377  0.00  0.00    +0.000 NA
ATOM      6  N   UNL     1       0.869   4.186  20.781  0.00  0.00    +0.000 NA
ATOM      7  C   UNL     1       1.581   5.042  20.063  0.00  0.00    +0.000 A 
ATOM      8  N   UNL     1       2.424   4.314  19.235  0.00  0.00    +0.000 N 
ATOM      9  C   UNL     1       3.443   4.697  18.359  0.00  0.00    +0.000 A 
ENDROOT
BRANCH   1  14
ATOM     10  C   UNL     1       6.973   5.709  16.227  0.00  0.00    +0.000 A 
ATOM     11  C   UNL     1       7.188   5.043  15.018  0.00  0.00    +0.000 A 
ATOM     12  C   UNL     1       6.402   3.946  14.663  0.00  0.00    +0.000 A 
ATOM     13  C   UNL     1       5.385   3.516  15.517  0.00  0.00    +0.000 A 
ATOM     14  C   UNL     1       5.151   4.195  16.719  0.00  0.00    +0.000 A 
ATOM     15  C   UNL     1       5.942   5.297  17.066  0.00  0.00    +0.000 A 
BRANCH  10  16
ATOM     16  O   UNL     1       7.776   6.789  16.465  0.00  0.00    +0.000 OA
BRANCH  16  18
ATOM     17  C   UNL     1       8.203   6.747  18.807  0.00  0.00    +0.000 C 
ATOM     18  C   UNL     1       7.541   7.525  17.674  0.00  0.00    +0.000 C 
ATOM     19  C   UNL     1       8.170   8.908  17.541  0.00  0.00    +0.000 C 
ENDBRANCH  16  18
ENDBRANCH  10  16
ENDBRANCH   1  14
BRANCH   7  20
ATOM     20  C   UNL     1       1.448   6.499  20.153  0.00  0.00    +0.000 A 
ATOM     21  C   UNL     1       1.837   7.288  19.058  0.00  0.00    +0.000 A 
ATOM     22  C   UNL     1       1.804   8.683  19.124  0.00  0.00    +0.000 A 
ATOM     23  C   UNL     1       1.378   9.315  20.290  0.00  0.00    +0.000 A 
ATOM     24  C   UNL     1       0.991   8.550  21.392  0.00  0.00    +0.000 A 
ATOM     25  C   UNL     1       1.037   7.150  21.325  0.00  0.00    +0.000 A 
BRANCH  24  26
ATOM     26  C   UNL     1       0.565   9.192  22.600  0.00  0.00    +0.000 C 
ATOM     27  N   UNL     1       0.214   9.727  23.569  0.00  0.00    +0.000 NA
ENDBRANCH  24  26
ENDBRANCH   7  20
TORSDOF 5
ENDMDL
MODEL 6
REMARK VINA RESULT:      -8.2      1.724      2.934
REMARK  Name = 
REMARK  7 active torsions:
REMARK  status: ('A' for Active; 'I' for Inactive)
REMARK    1  A    between atoms: C_1  and  C_2
REMARK    2  A    between atoms: C_2  and  C_3
REMARK    3  A    between atoms: C_2  and  O_4
REMARK    4  A    between atoms: O_4  and  C_5
REMARK    5  A    between atoms: C_9  and  C_10
REMARK    6  A    between atoms: C_16  and  C_17
REMARK    7  A    between atoms: C_21  and  C_22
REMARK                            x       y       z     vdW  Elec       q    Type
REMARK                         _______ _______ _______ _____ _____    ______ ____
ROOT
ATOM      1  C   UNL     1       1.879   6.114  20.080  0.00  0.00    +0.000 A 
ATOM      2  C   UNL     1       1.213   5.019  20.782  0.00  0.00    +0.000 A 
ATOM      3  C   UNL     1       1.490   3.731  20.508  0.00  0.00    +0.000 A 
ATOM      4  C   UNL     1       2.468   3.418  19.527  0.00  0.00    +0.000 A 
ATOM      5  N   UNL     1       2.895   2.278  19.040  0.00  0.00    +0.000 NA
ATOM      6  N   UNL     1       3.875   2.561  18.121  0.00  0.00    +0.000 NA
ATOM      7  C   UNL     1       4.062   3.872  18.075  0.00  0.00    +0.000 A 
ATOM      8  N   UNL     1       3.129   4.471  18.908  0.00  0.00    +0.000 N 
ATOM      9  C   UNL     1       2.813   5.809  19.156  0.00  0.00    +0.000 A 
ENDROOT
BRANCH   1  14
ATOM     10  C   UNL     1       1.278   9.769  19.435  0.00  0.00    +0.000 A 
ATOM     11  C   UNL     1       0.967  10.221  20.720  0.00  0.00    +0.000 A 
ATOM     12  C   UNL     1       0.934   9.332  21.795  0.00  0.00    +0.000 A 
ATOM     13  C   UNL     1       1.223   7.982  21.590  0.00  0.00    +0.000 A 
ATOM     14  C   UNL     1       1.558   7.529  20.308  0.00  0.00    +0.000 A 
ATOM     15  C   UNL     1       1.592   8.427  19.235  0.00  0.00    +0.000 A 
BRANCH  10  16
ATOM     16  O   UNL     1       1.314  10.723  18.458  0.00  0.00    +0.000 OA
BRANCH  16  18
ATOM     17  C   UNL     1       2.552  12.737  18.180  0.00  0.00    +0.000 C 
ATOM     18  C   UNL     1       1.362  12.093  18.883  0.00  0.00    +0.000 C 
ATOM     19  C   UNL     1       0.065  12.782  18.473  0.00  0.00    +0.000 C 
ENDBRANCH  16  18
ENDBRANCH  10  16
ENDBRANCH   1  14
BRANCH   7  20
ATOM     20  C   UNL     1       5.106   4.524  17.277  0.00  0.00    +0.000 A 
ATOM     21  C   UNL     1       5.528   3.918  16.083  0.00  0.00    +0.000 A 
ATOM     22  C   UNL     1       6.573   4.458  15.329  0.00  0.00    +0.000 A 
ATOM     23  C   UNL     1       7.214   5.618  15.758  0.00  0.00    +0.000 A 
ATOM     24  C   UNL     1       6.813   6.234  16.945  0.00  0.00    +0.000 A 
ATOM     25  C   UNL     1       5.771   5.682  17.704  0.00  0.00    +0.000 A 
BRANCH  24  26
ATOM     26  C   UNL     1       7.475   7.420  17.400  0.00  0.00    +0.000 C 
ATOM     27  N   UNL     1       7.998   8.391  17.768  0.00  0.00    +0.000 NA
ENDBRANCH  24  26
ENDBRANCH   7  20
TORSDOF 5
ENDMDL
MODEL 7
REMARK VINA RESULT:      -8.0      1.527      2.182
REMARK  Name = 
REMARK  7 active torsions:
REMARK  status: ('A' for Active; 'I' for Inactive)
REMARK    1  A    between atoms: C_1  and  C_2
REMARK    2  A    between atoms: C_2  and  C_3
REMARK    3  A    between atoms: C_2  and  O_4
REMARK    4  A    between atoms: O_4  and  C_5
REMARK    5  A    between atoms: C_9  and  C_10
REMARK    6  A    between atoms: C_16  and  C_17
REMARK    7  A    between atoms: C_21  and  C_22
REMARK                            x       y       z     vdW  Elec       q    Type
REMARK                         _______ _______ _______ _____ _____    ______ ____
ROOT
ATOM      1  C   UNL     1       1.903   6.778  20.031  0.00  0.00    +0.000 A 
ATOM      2  C   UNL     1       1.235   5.801  20.890  0.00  0.00    +0.000 A 
ATOM      3  C   UNL     1       1.557   4.495  20.860  0.00  0.00    +0.000 A 
ATOM      4  C   UNL     1       2.585   4.047  19.988  0.00  0.00    +0.000 A 
ATOM      5  N   UNL     1       3.063   2.854  19.728  0.00  0.00    +0.000 NA
ATOM      6  N   UNL     1       4.074   3.003  18.811  0.00  0.00    +0.000 NA
ATOM      7  C   UNL     1       4.229   4.290  18.540  0.00  0.00    +0.000 A 
ATOM      8  N   UNL     1       3.245   4.996  19.218  0.00  0.00    +0.000 N 
ATOM      9  C   UNL     1       2.884   6.346  19.213  0.00  0.00    +0.000 A 
ENDROOT
BRANCH   1  14
ATOM     10  C   UNL     1       0.817  10.197  21.153  0.00  0.00    +0.000 A 
ATOM     11  C   UNL     1       0.819  10.891  19.940  0.00  0.00    +0.000 A 
ATOM     12  C   UNL     1       1.194  10.252  18.758  0.00  0.00    +0.000 A 
ATOM     13  C   UNL     1       1.559   8.905  18.783  0.00  0.00    +0.000 A 
ATOM     14  C   UNL     1       1.535   8.199  19.992  0.00  0.00    +0.000 A 
ATOM     15  C   UNL     1       1.156   8.847  21.173  0.00  0.00    +0.000 A 
BRANCH  10  16
ATOM     16  O   UNL     1       0.404  10.905  22.246  0.00  0.00    +0.000 OA
BRANCH  16  18
ATOM     17  C   UNL     1      -1.744  11.269  23.205  0.00  0.00    +0.000 C 
ATOM     18  C   UNL     1      -0.782  11.699  22.102  0.00  0.00    +0.000 C 
ATOM     19  C   UNL     1      -0.414  13.170  22.262  0.00  0.00    +0.000 C 
ENDBRANCH  16  18
ENDBRANCH  10  16
ENDBRANCH   1  14
BRANCH   7  20
ATOM     20  C   UNL     1       5.289   4.826  17.680  0.00  0.00    +0.000 A 
ATOM     21  C   UNL     1       5.715   4.073  16.575  0.00  0.00    +0.000 A 
ATOM     22  C   UNL     1       6.775   4.502  15.772  0.00  0.00    +0.000 A 
ATOM     23  C   UNL     1       7.427   5.698  16.063  0.00  0.00    +0.000 A 
ATOM     24  C   UNL     1       7.023   6.461  17.160  0.00  0.00    +0.000 A 
ATOM     25  C   UNL     1       5.966   6.020  17.970  0.00  0.00    +0.000 A 
BRANCH  24  26
ATOM     26  C   UNL     1       7.697   7.685  17.473  0.00  0.00    +0.000 C 
ATOM     27  N   UNL     1       8.260   8.671  17.722  0.00  0.00    +0.000 NA
ENDBRANCH  24  26
ENDBRANCH   7  20
TORSDOF 5
ENDMDL
MODEL 8
REMARK VINA RESULT:      -8.0      4.413      6.456
REMARK  Name = 
REMARK  7 active torsions:
REMARK  status: ('A' for Active; 'I' for Inactive)
REMARK    1  A    between atoms: C_1  and  C_2
REMARK    2  A    between atoms: C_2  and  C_3
REMARK    3  A    between atoms: C_2  and  O_4
REMARK    4  A    between atoms: O_4  and  C_5
REMARK    5  A    between atoms: C_9  and  C_10
REMARK    6  A    between atoms: C_16  and  C_17
REMARK    7  A    between atoms: C_21  and  C_22
REMARK                            x       y       z     vdW  Elec       q    Type
REMARK                         _______ _______ _______ _____ _____    ______ ____
ROOT
ATOM      1  C   UNL     1      -1.403  10.648  19.245  0.00  0.00    +0.000 A 
ATOM      2  C   UNL     1      -1.430  11.698  20.262  0.00  0.00    +0.000 A 
ATOM      3  C   UNL     1      -0.697  11.611  21.387  0.00  0.00    +0.000 A 
ATOM      4  C   UNL     1       0.142  10.484  21.592  0.00  0.00    +0.000 A 
ATOM      5  N   UNL     1       0.913  10.129  22.591  0.00  0.00    +0.000 NA
ATOM      6  N   UNL     1       1.519   8.946  22.247  0.00  0.00    +0.000 NA
ATOM      7  C   UNL     1       1.139   8.602  21.026  0.00  0.00    +0.000 A 
ATOM      8  N   UNL     1       0.196   9.523  20.591  0.00  0.00    +0.000 N 
ATOM      9  C   UNL     1      -0.596   9.586  19.442  0.00  0.00    +0.000 A 
ENDROOT
BRANCH   1  14
ATOM     10  C   UNL     1      -4.181  11.517  16.866  0.00  0.00    +0.000 A 
ATOM     11  C   UNL     1      -3.838  10.740  15.757  0.00  0.00    +0.000 A 
ATOM     12  C   UNL     1      -2.690   9.947  15.774  0.00  0.00    +0.000 A 
ATOM     13  C   UNL     1      -1.882   9.920  16.912  0.00  0.00    +0.000 A 
ATOM     14  C   UNL     1      -2.235  10.678  18.035  0.00  0.00    +0.000 A 
ATOM     15  C   UNL     1      -3.390  11.469  18.011  0.00  0.00    +0.000 A 
BRANCH  10  16
ATOM     16  O   UNL     1      -5.340  12.233  16.759  0.00  0.00    +0.000 OA
BRANCH  16  18
ATOM     17  C   UNL     1      -7.171  13.459  17.660  0.00  0.00    +0.000 C 
ATOM     18  C   UNL     1      -6.126  12.387  17.950  0.00  0.00    +0.000 C 
ATOM     19  C   UNL     1      -6.803  11.058  18.269  0.00  0.00    +0.000 C 
ENDBRANCH  16  18
ENDBRANCH  10  16
ENDBRANCH   1  14
BRANCH   7  20
ATOM     20  C   UNL     1       1.670   7.446  20.296  0.00  0.00    +0.000 A 
ATOM     21  C   UNL     1       1.377   6.154  20.760  0.00  0.00    +0.000 A 
ATOM     22  C   UNL     1       1.925   5.024  20.147  0.00  0.00    +0.000 A 
ATOM     23  C   UNL     1       2.776   5.169  19.054  0.00  0.00    +0.000 A 
ATOM     24  C   UNL     1       3.085   6.445  18.579  0.00  0.00    +0.000 A 
ATOM     25  C   UNL     1       2.542   7.577  19.205  0.00  0.00    +0.000 A 
BRANCH  24  26
ATOM     26  C   UNL     1       3.970   6.604  17.464  0.00  0.00    +0.000 C 
ATOM     27  N   UNL     1       4.675   6.740  16.550  0.00  0.00    +0.000 NA
ENDBRANCH  24  26
ENDBRANCH   7  20
TORSDOF 5
ENDMDL
MODEL 9
REMARK VINA RESULT:      -7.9      2.974      4.983
REMARK  Name = 
REMARK  7 active torsions:
REMARK  status: ('A' for Active; 'I' for Inactive)
REMARK    1  A    between atoms: C_1  and  C_2
REMARK    2  A    between atoms: C_2  and  C_3
REMARK    3  A    between atoms: C_2  and  O_4
REMARK    4  A    between atoms: O_4  and  C_5
REMARK    5  A    between atoms: C_9  and  C_10
REMARK    6  A    between atoms: C_16  and  C_17
REMARK    7  A    between atoms: C_21  and  C_22
REMARK                            x       y       z     vdW  Elec       q    Type
REMARK                         _______ _______ _______ _____ _____    ______ ____
ROOT
ATOM      1  C   UNL     1       1.109   9.244  19.911  0.00  0.00    +0.000 A 
ATOM      2  C   UNL     1       1.465  10.045  18.741  0.00  0.00    +0.000 A 
ATOM      3  C   UNL     1       2.235   9.551  17.754  0.00  0.00    +0.000 A 
ATOM      4  C   UNL     1       2.702   8.212  17.832  0.00  0.00    +0.000 A 
ATOM      5  N   UNL     1       3.484   7.505  17.053  0.00  0.00    +0.000 NA
ATOM      6  N   UNL     1       3.586   6.249  17.600  0.00  0.00    +0.000 NA
ATOM      7  C   UNL     1       2.840   6.188  18.693  0.00  0.00    +0.000 A 
ATOM      8  N   UNL     1       2.309   7.449  18.924  0.00  0.00    +0.000 N 
ATOM      9  C   UNL     1       1.547   7.970  19.973  0.00  0.00    +0.000 A 
ENDROOT
BRANCH   1  14
ATOM     10  C   UNL     1      -1.172  11.449  21.927  0.00  0.00    +0.000 A 
ATOM     11  C   UNL     1      -1.163  10.790  23.159  0.00  0.00    +0.000 A 
ATOM     12  C   UNL     1      -0.429   9.616  23.330  0.00  0.00    +0.000 A 
ATOM     13  C   UNL     1       0.310   9.099  22.265  0.00  0.00    +0.000 A 
ATOM     14  C   UNL     1       0.323   9.768  21.035  0.00  0.00    +0.000 A 
ATOM     15  C   UNL     1      -0.413  10.948  20.873  0.00  0.00    +0.000 A 
BRANCH  10  16
ATOM     16  O   UNL     1      -1.896  12.607  21.874  0.00  0.00    +0.000 OA
BRANCH  16  18
ATOM     17  C   UNL     1      -2.753  14.101  23.517  0.00  0.00    +0.000 C 
ATOM     18  C   UNL     1      -2.960  12.758  22.825  0.00  0.00    +0.000 C 
ATOM     19  C   UNL     1      -4.292  12.743  22.082  0.00  0.00    +0.000 C 
ENDBRANCH  16  18
ENDBRANCH  10  16
ENDBRANCH   1  14
BRANCH   7  20
ATOM     20  C   UNL     1       2.630   4.966  19.476  0.00  0.00    +0.000 A 
ATOM     21  C   UNL     1       1.367   4.729  20.042  0.00  0.00    +0.000 A 
ATOM     22  C   UNL     1       1.138   3.621  20.861  0.00  0.00    +0.000 A 
ATOM     23  C   UNL     1       2.173   2.727  21.127  0.00  0.00    +0.000 A 
ATOM     24  C   UNL     1       3.438   2.946  20.578  0.00  0.00    +0.000 A 
ATOM     25  C   UNL     1       3.666   4.067  19.766  0.00  0.00    +0.000 A 
BRANCH  24  26
ATOM     26  C   UNL     1       4.511   2.039  20.857  0.00  0.00    +0.000 C 
ATOM     27  N   UNL     1       5.387   1.305  21.068  0.00  0.00    +0.000 NA
ENDBRANCH  24  26
ENDBRANCH   7  20
TORSDOF 5
ENDMDL
