MODEL 1
REMARK VINA RESULT:      -8.0      0.000      0.000
REMARK  Name = 
REMARK  6 active torsions:
REMARK  status: ('A' for Active; 'I' for Inactive)
REMARK    1  A    between atoms: N_1  and  N_2
REMARK    2  A    between atoms: N_5  and  C_6
REMARK    3  A    between atoms: C_9  and  S_10
REMARK    4  A    between atoms: S_10  and  N_11
REMARK    5  A    between atoms: N_17  and  S_18
REMARK    6  A    between atoms: S_18  and  C_21
REMARK                            x       y       z     vdW  Elec       q    Type
REMARK                         _______ _______ _______ _____ _____    ______ ____
ROOT
ATOM      1  N   UNL     1      -0.147  10.212  21.708  0.00  0.00    +0.000 N 
ATOM      2  N   UNL     1       0.421   9.132  22.309  0.00  0.00    +0.000 NA
ATOM      3  C   UNL     1       1.010   8.568  21.270  0.00  0.00    +0.000 A 
ATOM      4  N   UNL     1       1.767   7.466  21.442  0.00  0.00    +0.000 N 
ATOM      5  N   UNL     1       0.905   9.162  20.094  0.00  0.00    +0.000 NA
ATOM      6  N   UNL     1       0.145  10.249  20.440  0.00  0.00    +0.000 N 
ATOM      7  H   UNL     1       2.003   7.197  22.395  0.00  0.00    +0.000 HD
ENDROOT
BRANCH   4   8
ATOM      8  C   UNL     1       1.968   6.388  20.550  0.00  0.00    +0.000 A 
ATOM      9  C   UNL     1       1.424   5.135  20.864  0.00  0.00    +0.000 A 
ATOM     10  C   UNL     1       1.601   4.043  20.009  0.00  0.00    +0.000 A 
ATOM     11  C   UNL     1       2.315   4.209  18.822  0.00  0.00    +0.000 A 
ATOM     12  C   UNL     1       2.893   5.439  18.507  0.00  0.00    +0.000 A 
ATOM     13  C   UNL     1       2.726   6.520  19.374  0.00  0.00    +0.000 A 
BRANCH  11  14
ATOM     14  S   UNL     1       2.515   2.841  17.715  0.00  0.00    +0.000 S 
ATOM     15  O   UNL     1       2.193   3.274  16.376  0.00  0.00    +0.000 OA
ATOM     16  O   UNL     1       3.738   2.150  18.044  0.00  0.00    +0.000 OA
BRANCH  14  17
ATOM     17  N   UNL     1       1.258   1.839  18.201  0.00  0.00    +0.000 NA
ATOM     18  H   UNL     1       1.109   1.929  19.207  0.00  0.00    +0.000 HD
ATOM     19  H   UNL     1       0.422   2.038  17.650  0.00  0.00    +0.000 HD
ENDBRANCH  14  17
ENDBRANCH  11  14
ENDBRANCH   4   8
BRANCH   1  20
ATOM     20  N   UNL     1      -0.968  11.092  22.448  0.00  0.00    +0.000 N 
ATOM     21  H   UNL     1      -0.703  12.060  22.276  0.00  0.00    +0.000 HD
ATOM     22  H   UNL     1      -1.964  10.929  22.283  0.00  0.00    +0.000 HD
ENDBRANCH   1  20
BRANCH   6  23
ATOM     23  S   UNL     1      -0.233  11.491  19.366  0.00  0.00    +0.000 S 
ATOM     24  O   UNL     1      -0.384  12.659  20.216  0.00  0.00    +0.000 OA
ATOM     25  O   UNL     1       0.762  11.405  18.320  0.00  0.00    +0.000 OA
BRANCH  23  26
ATOM     26  C   UNL     1      -1.780  11.198  18.632  0.00  0.00    +0.000 A 
ATOM     27  C   UNL     1      -2.906  11.916  18.988  0.00  0.00    +0.000 A 
ATOM     28  F   UNL     1      -2.839  12.904  19.887  0.00  0.00    +0.000 F 
ATOM     29  C   UNL     1      -4.136  11.625  18.403  0.00  0.00    +0.000 A 
ATOM     30  C   UNL     1      -4.228  10.607  17.452  0.00  0.00    +0.000 A 
ATOM     31  C   UNL     1      -3.086   9.896  17.081  0.00  0.00    +0.000 A 
ATOM     32  C   UNL     1      -1.866  10.199  17.676  0.00  0.00    +0.000 A 
ATOM     33  F   UNL     1      -0.774   9.520  17.305  0.00  0.00    +0.000 F 
ENDBRANCH  23  26
ENDBRANCH   6  23
TORSDOF 6
ENDMDL
MODEL 2
REMARK VINA RESULT:      -8.0      0.841      1.269
REMARK  Name = 
REMARK  6 active torsions:
REMARK  status: ('A' for Active; 'I' for Inactive)
REMARK    1  A    between atoms: N_1  and  N_2
REMARK    2  A    between atoms: N_5  and  C_6
REMARK    3  A    between atoms: C_9  and  S_10
REMARK    4  A    between atoms: S_10  and  N_11
REMARK    5  A    between atoms: N_17  and  S_18
REMARK    6  A    between atoms: S_18  and  C_21
REMARK                            x       y       z     vdW  Elec       q    Type
REMARK                         _______ _______ _______ _____ _____    ______ ____
ROOT
ATOM      1  N   UNL     1      -0.393  10.288  21.819  0.00  0.00    +0.000 N 
ATOM      2  N   UNL     1       0.241   9.218  22.369  0.00  0.00    +0.000 NA
ATOM      3  C   UNL     1       0.921   8.785  21.321  0.00  0.00    +0.000 A 
ATOM      4  N   UNL     1       1.765   7.742  21.451  0.00  0.00    +0.000 N 
ATOM      5  N   UNL     1       0.814   9.455  20.187  0.00  0.00    +0.000 NA
ATOM      6  N   UNL     1      -0.053  10.445  20.572  0.00  0.00    +0.000 N 
ATOM      7  H   UNL     1       1.983   7.422  22.392  0.00  0.00    +0.000 HD
ENDROOT
BRANCH   4   8
ATOM      8  C   UNL     1       2.097   6.755  20.494  0.00  0.00    +0.000 A 
ATOM      9  C   UNL     1       2.644   7.154  19.267  0.00  0.00    +0.000 A 
ATOM     10  C   UNL     1       2.985   6.210  18.294  0.00  0.00    +0.000 A 
ATOM     11  C   UNL     1       2.791   4.853  18.555  0.00  0.00    +0.000 A 
ATOM     12  C   UNL     1       2.216   4.437  19.756  0.00  0.00    +0.000 A 
ATOM     13  C   UNL     1       1.863   5.388  20.716  0.00  0.00    +0.000 A 
BRANCH  11  14
ATOM     14  S   UNL     1       3.251   3.647  17.344  0.00  0.00    +0.000 S 
ATOM     15  O   UNL     1       2.067   2.937  16.921  0.00  0.00    +0.000 OA
ATOM     16  O   UNL     1       4.179   4.247  16.417  0.00  0.00    +0.000 OA
BRANCH  14  17
ATOM     17  N   UNL     1       4.139   2.569  18.275  0.00  0.00    +0.000 NA
ATOM     18  H   UNL     1       3.591   1.725  18.450  0.00  0.00    +0.000 HD
ATOM     19  H   UNL     1       5.037   2.381  17.828  0.00  0.00    +0.000 HD
ENDBRANCH  14  17
ENDBRANCH  11  14
ENDBRANCH   4   8
BRANCH   1  20
ATOM     20  N   UNL     1      -1.319  11.037  22.580  0.00  0.00    +0.000 N 
ATOM     21  H   UNL     1      -1.663  10.490  23.366  0.00  0.00    +0.000 HD
ATOM     22  H   UNL     1      -0.941  11.941  22.875  0.00  0.00    +0.000 HD
ENDBRANCH   1  20
BRANCH   6  23
ATOM     23  S   UNL     1      -0.493  11.728  19.574  0.00  0.00    +0.000 S 
ATOM     24  O   UNL     1      -0.840  12.794  20.499  0.00  0.00    +0.000 OA
ATOM     25  O   UNL     1       0.579  11.844  18.608  0.00  0.00    +0.000 OA
BRANCH  23  26
ATOM     26  C   UNL     1      -1.939  11.334  18.695  0.00  0.00    +0.000 A 
ATOM     27  C   UNL     1      -3.146  11.953  18.957  0.00  0.00    +0.000 A 
ATOM     28  F   UNL     1      -3.240  12.921  19.876  0.00  0.00    +0.000 F 
ATOM     29  C   UNL     1      -4.291  11.582  18.256  0.00  0.00    +0.000 A 
ATOM     30  C   UNL     1      -4.214  10.583  17.282  0.00  0.00    +0.000 A 
ATOM     31  C   UNL     1      -2.989   9.973  17.006  0.00  0.00    +0.000 A 
ATOM     32  C   UNL     1      -1.857  10.355  17.717  0.00  0.00    +0.000 A 
ATOM     33  F   UNL     1      -0.685   9.773  17.436  0.00  0.00    +0.000 F 
ENDBRANCH  23  26
ENDBRANCH   6  23
TORSDOF 6
ENDMDL
MODEL 3
REMARK VINA RESULT:      -7.9      0.836      2.004
REMARK  Name = 
REMARK  6 active torsions:
REMARK  status: ('A' for Active; 'I' for Inactive)
REMARK    1  A    between atoms: N_1  and  N_2
REMARK    2  A    between atoms: N_5  and  C_6
REMARK    3  A    between atoms: C_9  and  S_10
REMARK    4  A    between atoms: S_10  and  N_11
REMARK    5  A    between atoms: N_17  and  S_18
REMARK    6  A    between atoms: S_18  and  C_21
REMARK                            x       y       z     vdW  Elec       q    Type
REMARK                         _______ _______ _______ _____ _____    ______ ____
ROOT
ATOM      1  N   UNL     1      -0.398  10.291  21.778  0.00  0.00    +0.000 N 
ATOM      2  N   UNL     1       0.254   9.232  22.331  0.00  0.00    +0.000 NA
ATOM      3  C   UNL     1       0.926   8.796  21.280  0.00  0.00    +0.000 A 
ATOM      4  N   UNL     1       1.782   7.763  21.410  0.00  0.00    +0.000 N 
ATOM      5  N   UNL     1       0.799   9.453  20.140  0.00  0.00    +0.000 NA
ATOM      6  N   UNL     1      -0.073  10.438  20.526  0.00  0.00    +0.000 N 
ATOM      7  H   UNL     1       2.014   7.455  22.352  0.00  0.00    +0.000 HD
ENDROOT
BRANCH   4   8
ATOM      8  C   UNL     1       2.113   6.770  20.460  0.00  0.00    +0.000 A 
ATOM      9  C   UNL     1       2.713   7.156  19.253  0.00  0.00    +0.000 A 
ATOM     10  C   UNL     1       3.055   6.205  18.287  0.00  0.00    +0.000 A 
ATOM     11  C   UNL     1       2.809   4.855  18.535  0.00  0.00    +0.000 A 
ATOM     12  C   UNL     1       2.181   4.452  19.715  0.00  0.00    +0.000 A 
ATOM     13  C   UNL     1       1.828   5.410  20.668  0.00  0.00    +0.000 A 
BRANCH  11  14
ATOM     14  S   UNL     1       3.269   3.639  17.333  0.00  0.00    +0.000 S 
ATOM     15  O   UNL     1       2.076   2.978  16.859  0.00  0.00    +0.000 OA
ATOM     16  O   UNL     1       4.255   4.208  16.448  0.00  0.00    +0.000 OA
BRANCH  14  17
ATOM     17  N   UNL     1       4.078   2.522  18.290  0.00  0.00    +0.000 NA
ATOM     18  H   UNL     1       4.287   2.929  19.202  0.00  0.00    +0.000 HD
ATOM     19  H   UNL     1       3.537   1.657  18.348  0.00  0.00    +0.000 HD
ENDBRANCH  14  17
ENDBRANCH  11  14
ENDBRANCH   4   8
BRANCH   1  20
ATOM     20  N   UNL     1      -1.322  11.038  22.542  0.00  0.00    +0.000 N 
ATOM     21  H   UNL     1      -0.851  11.788  23.043  0.00  0.00    +0.000 HD
ATOM     22  H   UNL     1      -2.106  11.381  21.981  0.00  0.00    +0.000 HD
ENDBRANCH   1  20
BRANCH   6  23
ATOM     23  S   UNL     1      -0.539  11.706  19.519  0.00  0.00    +0.000 S 
ATOM     24  O   UNL     1      -0.933  12.761  20.438  0.00  0.00    +0.000 OA
ATOM     25  O   UNL     1       0.543  11.856  18.570  0.00  0.00    +0.000 OA
BRANCH  23  26
ATOM     26  C   UNL     1      -1.958  11.266  18.619  0.00  0.00    +0.000 A 
ATOM     27  C   UNL     1      -1.925  10.304  17.627  0.00  0.00    +0.000 A 
ATOM     28  F   UNL     1      -0.800   9.637  17.349  0.00  0.00    +0.000 F 
ATOM     29  C   UNL     1      -3.077  10.007  16.901  0.00  0.00    +0.000 A 
ATOM     30  C   UNL     1      -4.267  10.681  17.183  0.00  0.00    +0.000 A 
ATOM     31  C   UNL     1      -4.301  11.639  18.198  0.00  0.00    +0.000 A 
ATOM     32  C   UNL     1      -3.142  11.923  18.912  0.00  0.00    +0.000 A 
ATOM     33  F   UNL     1      -3.188  12.834  19.891  0.00  0.00    +0.000 F 
ENDBRANCH  23  26
ENDBRANCH   6  23
TORSDOF 6
ENDMDL
MODEL 4
REMARK VINA RESULT:      -7.8      0.716      1.821
REMARK  Name = 
REMARK  6 active torsions:
REMARK  status: ('A' for Active; 'I' for Inactive)
REMARK    1  A    between atoms: N_1  and  N_2
REMARK    2  A    between atoms: N_5  and  C_6
REMARK    3  A    between atoms: C_9  and  S_10
REMARK    4  A    between atoms: S_10  and  N_11
REMARK    5  A    between atoms: N_17  and  S_18
REMARK    6  A    between atoms: S_18  and  C_21
REMARK                            x       y       z     vdW  Elec       q    Type
REMARK                         _______ _______ _______ _____ _____    ______ ____
ROOT
ATOM      1  N   UNL     1      -0.200  10.308  21.653  0.00  0.00    +0.000 N 
ATOM      2  N   UNL     1       0.409   9.255  22.262  0.00  0.00    +0.000 NA
ATOM      3  C   UNL     1       1.009   8.699  21.224  0.00  0.00    +0.000 A 
ATOM      4  N   UNL     1       1.806   7.626  21.403  0.00  0.00    +0.000 N 
ATOM      5  N   UNL     1       0.875   9.275  20.042  0.00  0.00    +0.000 NA
ATOM      6  N   UNL     1       0.080  10.339  20.382  0.00  0.00    +0.000 N 
ATOM      7  H   UNL     1       2.058   7.377  22.357  0.00  0.00    +0.000 HD
ENDROOT
BRANCH   4   8
ATOM      8  C   UNL     1       2.037   6.545  20.522  0.00  0.00    +0.000 A 
ATOM      9  C   UNL     1       1.482   5.293  20.821  0.00  0.00    +0.000 A 
ATOM     10  C   UNL     1       1.687   4.198  19.976  0.00  0.00    +0.000 A 
ATOM     11  C   UNL     1       2.442   4.360  18.814  0.00  0.00    +0.000 A 
ATOM     12  C   UNL     1       3.032   5.589  18.515  0.00  0.00    +0.000 A 
ATOM     13  C   UNL     1       2.835   6.673  19.373  0.00  0.00    +0.000 A 
BRANCH  11  14
ATOM     14  S   UNL     1       2.680   2.989  17.720  0.00  0.00    +0.000 S 
ATOM     15  O   UNL     1       2.335   1.772  18.415  0.00  0.00    +0.000 OA
ATOM     16  O   UNL     1       2.149   3.328  16.423  0.00  0.00    +0.000 OA
BRANCH  14  17
ATOM     17  N   UNL     1       4.352   2.982  17.561  0.00  0.00    +0.000 NA
ATOM     18  H   UNL     1       4.712   3.935  17.627  0.00  0.00    +0.000 HD
ATOM     19  H   UNL     1       4.764   2.346  18.246  0.00  0.00    +0.000 HD
ENDBRANCH  14  17
ENDBRANCH  11  14
ENDBRANCH   4   8
BRANCH   1  20
ATOM     20  N   UNL     1      -1.045  11.167  22.390  0.00  0.00    +0.000 N 
ATOM     21  H   UNL     1      -0.668  11.330  23.321  0.00  0.00    +0.000 HD
ATOM     22  H   UNL     1      -1.241  12.041  21.895  0.00  0.00    +0.000 HD
ENDBRANCH   1  20
BRANCH   6  23
ATOM     23  S   UNL     1      -0.350  11.554  19.297  0.00  0.00    +0.000 S 
ATOM     24  O   UNL     1      -0.511  12.733  20.132  0.00  0.00    +0.000 OA
ATOM     25  O   UNL     1       0.626  11.475  18.231  0.00  0.00    +0.000 OA
BRANCH  23  26
ATOM     26  C   UNL     1      -1.904  11.213  18.601  0.00  0.00    +0.000 A 
ATOM     27  C   UNL     1      -2.073  10.248  17.625  0.00  0.00    +0.000 A 
ATOM     28  F   UNL     1      -1.044   9.503  17.207  0.00  0.00    +0.000 F 
ATOM     29  C   UNL     1      -3.330  10.032  17.065  0.00  0.00    +0.000 A 
ATOM     30  C   UNL     1      -4.421  10.789  17.495  0.00  0.00    +0.000 A 
ATOM     31  C   UNL     1      -4.251  11.750  18.494  0.00  0.00    +0.000 A 
ATOM     32  C   UNL     1      -2.989  11.954  19.042  0.00  0.00    +0.000 A 
ATOM     33  F   UNL     1      -2.839  12.868  20.007  0.00  0.00    +0.000 F 
ENDBRANCH  23  26
ENDBRANCH   6  23
TORSDOF 6
ENDMDL
MODEL 5
REMARK VINA RESULT:      -7.7      2.189      3.127
REMARK  Name = 
REMARK  6 active torsions:
REMARK  status: ('A' for Active; 'I' for Inactive)
REMARK    1  A    between atoms: N_1  and  N_2
REMARK    2  A    between atoms: N_5  and  C_6
REMARK    3  A    between atoms: C_9  and  S_10
REMARK    4  A    between atoms: S_10  and  N_11
REMARK    5  A    between atoms: N_17  and  S_18
REMARK    6  A    between atoms: S_18  and  C_21
REMARK                            x       y       z     vdW  Elec       q    Type
REMARK                         _______ _______ _______ _____ _____    ______ ____
ROOT
ATOM      1  N   UNL     1       1.722  10.888  18.207  0.00  0.00    +0.000 N 
ATOM      2  N   UNL     1       2.600  10.099  17.531  0.00  0.00    +0.000 NA
ATOM      3  C   UNL     1       2.182   8.905  17.912  0.00  0.00    +0.000 A 
ATOM      4  N   UNL     1       2.757   7.797  17.402  0.00  0.00    +0.000 N 
ATOM      5  N   UNL     1       1.142   8.836  18.724  0.00  0.00    +0.000 NA
ATOM      6  N   UNL     1       0.868  10.170  18.877  0.00  0.00    +0.000 N 
ATOM      7  H   UNL     1       3.385   7.910  16.609  0.00  0.00    +0.000 HD
ENDROOT
BRANCH   4   8
ATOM      8  C   UNL     1       2.952   6.542  18.023  0.00  0.00    +0.000 A 
ATOM      9  C   UNL     1       4.151   6.300  18.707  0.00  0.00    +0.000 A 
ATOM     10  C   UNL     1       4.382   5.072  19.334  0.00  0.00    +0.000 A 
ATOM     11  C   UNL     1       3.401   4.081  19.288  0.00  0.00    +0.000 A 
ATOM     12  C   UNL     1       2.215   4.289  18.583  0.00  0.00    +0.000 A 
ATOM     13  C   UNL     1       1.998   5.513  17.947  0.00  0.00    +0.000 A 
BRANCH  11  14
ATOM     14  S   UNL     1       3.670   2.535  20.106  0.00  0.00    +0.000 S 
ATOM     15  O   UNL     1       5.085   2.247  20.105  0.00  0.00    +0.000 OA
ATOM     16  O   UNL     1       2.862   2.491  21.300  0.00  0.00    +0.000 OA
BRANCH  14  17
ATOM     17  N   UNL     1       2.971   1.462  19.019  0.00  0.00    +0.000 NA
ATOM     18  H   UNL     1       3.692   1.047  18.427  0.00  0.00    +0.000 HD
ATOM     19  H   UNL     1       2.414   0.771  19.522  0.00  0.00    +0.000 HD
ENDBRANCH  14  17
ENDBRANCH  11  14
ENDBRANCH   4   8
BRANCH   1  20
ATOM     20  N   UNL     1       1.842  12.295  18.157  0.00  0.00    +0.000 N 
ATOM     21  H   UNL     1       2.821  12.574  18.185  0.00  0.00    +0.000 HD
ATOM     22  H   UNL     1       1.349  12.701  17.357  0.00  0.00    +0.000 HD
ENDBRANCH   1  20
BRANCH   6  23
ATOM     23  S   UNL     1      -0.468  10.747  19.726  0.00  0.00    +0.000 S 
ATOM     24  O   UNL     1      -0.783   9.679  20.659  0.00  0.00    +0.000 OA
ATOM     25  O   UNL     1      -0.101  12.080  20.154  0.00  0.00    +0.000 OA
BRANCH  23  26
ATOM     26  C   UNL     1      -1.832  10.905  18.661  0.00  0.00    +0.000 A 
ATOM     27  C   UNL     1      -1.875  10.278  17.430  0.00  0.00    +0.000 A 
ATOM     28  F   UNL     1      -0.879   9.482  17.026  0.00  0.00    +0.000 F 
ATOM     29  C   UNL     1      -2.971  10.460  16.589  0.00  0.00    +0.000 A 
ATOM     30  C   UNL     1      -4.029  11.276  16.996  0.00  0.00    +0.000 A 
ATOM     31  C   UNL     1      -3.991  11.893  18.248  0.00  0.00    +0.000 A 
ATOM     32  C   UNL     1      -2.889  11.701  19.074  0.00  0.00    +0.000 A 
ATOM     33  F   UNL     1      -2.867  12.286  20.277  0.00  0.00    +0.000 F 
ENDBRANCH  23  26
ENDBRANCH   6  23
TORSDOF 6
ENDMDL
MODEL 6
REMARK VINA RESULT:      -7.7      2.707      3.668
REMARK  Name = 
REMARK  6 active torsions:
REMARK  status: ('A' for Active; 'I' for Inactive)
REMARK    1  A    between atoms: N_1  and  N_2
REMARK    2  A    between atoms: N_5  and  C_6
REMARK    3  A    between atoms: C_9  and  S_10
REMARK    4  A    between atoms: S_10  and  N_11
REMARK    5  A    between atoms: N_17  and  S_18
REMARK    6  A    between atoms: S_18  and  C_21
REMARK                            x       y       z     vdW  Elec       q    Type
REMARK                         _______ _______ _______ _____ _____    ______ ____
ROOT
ATOM      1  N   UNL     1       1.369  11.467  18.231  0.00  0.00    +0.000 N 
ATOM      2  N   UNL     1       2.438  10.662  17.991  0.00  0.00    +0.000 NA
ATOM      3  C   UNL     1       1.885   9.476  18.176  0.00  0.00    +0.000 A 
ATOM      4  N   UNL     1       2.607   8.357  17.964  0.00  0.00    +0.000 N 
ATOM      5  N   UNL     1       0.600   9.426  18.481  0.00  0.00    +0.000 NA
ATOM      6  N   UNL     1       0.304  10.765  18.492  0.00  0.00    +0.000 N 
ATOM      7  H   UNL     1       3.509   8.454  17.503  0.00  0.00    +0.000 HD
ENDROOT
BRANCH   4   8
ATOM      8  C   UNL     1       2.510   7.110  18.623  0.00  0.00    +0.000 A 
ATOM      9  C   UNL     1       2.753   5.936  17.896  0.00  0.00    +0.000 A 
ATOM     10  C   UNL     1       2.666   4.683  18.511  0.00  0.00    +0.000 A 
ATOM     11  C   UNL     1       2.348   4.603  19.867  0.00  0.00    +0.000 A 
ATOM     12  C   UNL     1       2.069   5.757  20.600  0.00  0.00    +0.000 A 
ATOM     13  C   UNL     1       2.142   7.004  19.975  0.00  0.00    +0.000 A 
BRANCH  11  14
ATOM     14  S   UNL     1       2.269   3.024  20.662  0.00  0.00    +0.000 S 
ATOM     15  O   UNL     1       2.138   3.225  22.086  0.00  0.00    +0.000 OA
ATOM     16  O   UNL     1       1.390   2.164  19.908  0.00  0.00    +0.000 OA
BRANCH  14  17
ATOM     17  N   UNL     1       3.827   2.451  20.409  0.00  0.00    +0.000 NA
ATOM     18  H   UNL     1       3.930   1.525  20.827  0.00  0.00    +0.000 HD
ATOM     19  H   UNL     1       4.047   2.470  19.412  0.00  0.00    +0.000 HD
ENDBRANCH  14  17
ENDBRANCH  11  14
ENDBRANCH   4   8
BRANCH   1  20
ATOM     20  N   UNL     1       1.516  12.872  18.220  0.00  0.00    +0.000 N 
ATOM     21  H   UNL     1       2.342  13.151  18.744  0.00  0.00    +0.000 HD
ATOM     22  H   UNL     1       1.512  13.257  17.272  0.00  0.00    +0.000 HD
ENDBRANCH   1  20
BRANCH   6  23
ATOM     23  S   UNL     1      -1.257  11.363  18.701  0.00  0.00    +0.000 S 
ATOM     24  O   UNL     1      -1.256  12.617  17.967  0.00  0.00    +0.000 OA
ATOM     25  O   UNL     1      -2.135  10.261  18.370  0.00  0.00    +0.000 OA
BRANCH  23  26
ATOM     26  C   UNL     1      -1.529  11.756  20.371  0.00  0.00    +0.000 A 
ATOM     27  C   UNL     1      -0.619  11.426  21.358  0.00  0.00    +0.000 A 
ATOM     28  F   UNL     1       0.536  10.824  21.057  0.00  0.00    +0.000 F 
ATOM     29  C   UNL     1      -0.893  11.725  22.690  0.00  0.00    +0.000 A 
ATOM     30  C   UNL     1      -2.088  12.366  23.027  0.00  0.00    +0.000 A 
ATOM     31  C   UNL     1      -2.996  12.715  22.025  0.00  0.00    +0.000 A 
ATOM     32  C   UNL     1      -2.707  12.407  20.700  0.00  0.00    +0.000 A 
ATOM     33  F   UNL     1      -3.578  12.757  19.746  0.00  0.00    +0.000 F 
ENDBRANCH  23  26
ENDBRANCH   6  23
TORSDOF 6
ENDMDL
MODEL 7
REMARK VINA RESULT:      -7.7      2.154      3.092
REMARK  Name = 
REMARK  6 active torsions:
REMARK  status: ('A' for Active; 'I' for Inactive)
REMARK    1  A    between atoms: N_1  and  N_2
REMARK    2  A    between atoms: N_5  and  C_6
REMARK    3  A    between atoms: C_9  and  S_10
REMARK    4  A    between atoms: S_10  and  N_11
REMARK    5  A    between atoms: N_17  and  S_18
REMARK    6  A    between atoms: S_18  and  C_21
REMARK                            x       y       z     vdW  Elec       q    Type
REMARK                         _______ _______ _______ _____ _____    ______ ____
ROOT
ATOM      1  N   UNL     1       1.745  10.926  18.226  0.00  0.00    +0.000 N 
ATOM      2  N   UNL     1       2.629  10.148  17.545  0.00  0.00    +0.000 NA
ATOM      3  C   UNL     1       2.207   8.947  17.900  0.00  0.00    +0.000 A 
ATOM      4  N   UNL     1       2.787   7.848  17.377  0.00  0.00    +0.000 N 
ATOM      5  N   UNL     1       1.159   8.865  18.701  0.00  0.00    +0.000 NA
ATOM      6  N   UNL     1       0.884  10.196  18.875  0.00  0.00    +0.000 N 
ATOM      7  H   UNL     1       3.423   7.975  16.593  0.00  0.00    +0.000 HD
ENDROOT
BRANCH   4   8
ATOM      8  C   UNL     1       2.974   6.582  17.978  0.00  0.00    +0.000 A 
ATOM      9  C   UNL     1       1.898   5.685  18.024  0.00  0.00    +0.000 A 
ATOM     10  C   UNL     1       2.042   4.424  18.610  0.00  0.00    +0.000 A 
ATOM     11  C   UNL     1       3.277   4.050  19.142  0.00  0.00    +0.000 A 
ATOM     12  C   UNL     1       4.351   4.941  19.137  0.00  0.00    +0.000 A 
ATOM     13  C   UNL     1       4.194   6.205  18.564  0.00  0.00    +0.000 A 
BRANCH  11  14
ATOM     14  S   UNL     1       3.479   2.443  19.856  0.00  0.00    +0.000 S 
ATOM     15  O   UNL     1       3.018   2.479  21.223  0.00  0.00    +0.000 OA
ATOM     16  O   UNL     1       3.040   1.451  18.906  0.00  0.00    +0.000 OA
BRANCH  14  17
ATOM     17  N   UNL     1       5.153   2.324  19.927  0.00  0.00    +0.000 NA
ATOM     18  H   UNL     1       5.576   3.225  19.702  0.00  0.00    +0.000 HD
ATOM     19  H   UNL     1       5.437   1.960  20.838  0.00  0.00    +0.000 HD
ENDBRANCH  14  17
ENDBRANCH  11  14
ENDBRANCH   4   8
BRANCH   1  20
ATOM     20  N   UNL     1       1.866  12.333  18.201  0.00  0.00    +0.000 N 
ATOM     21  H   UNL     1       2.637  12.638  18.792  0.00  0.00    +0.000 HD
ATOM     22  H   UNL     1       1.940  12.702  17.250  0.00  0.00    +0.000 HD
ENDBRANCH   1  20
BRANCH   6  23
ATOM     23  S   UNL     1      -0.460  10.759  19.720  0.00  0.00    +0.000 S 
ATOM     24  O   UNL     1      -0.777   9.681  20.641  0.00  0.00    +0.000 OA
ATOM     25  O   UNL     1      -0.102  12.089  20.163  0.00  0.00    +0.000 OA
BRANCH  23  26
ATOM     26  C   UNL     1      -1.818  10.920  18.648  0.00  0.00    +0.000 A 
ATOM     27  C   UNL     1      -1.864  10.278  17.425  0.00  0.00    +0.000 A 
ATOM     28  F   UNL     1      -0.876   9.465  17.035  0.00  0.00    +0.000 F 
ATOM     29  C   UNL     1      -2.954  10.464  16.578  0.00  0.00    +0.000 A 
ATOM     30  C   UNL     1      -4.004  11.298  16.970  0.00  0.00    +0.000 A 
ATOM     31  C   UNL     1      -3.963  11.930  18.214  0.00  0.00    +0.000 A 
ATOM     32  C   UNL     1      -2.866  11.734  19.047  0.00  0.00    +0.000 A 
ATOM     33  F   UNL     1      -2.842  12.335  20.242  0.00  0.00    +0.000 F 
ENDBRANCH  23  26
ENDBRANCH   6  23
TORSDOF 6
ENDMDL
MODEL 8
REMARK VINA RESULT:      -7.6      2.148      2.770
REMARK  Name = 
REMARK  6 active torsions:
REMARK  status: ('A' for Active; 'I' for Inactive)
REMARK    1  A    between atoms: N_1  and  N_2
REMARK    2  A    between atoms: N_5  and  C_6
REMARK    3  A    between atoms: C_9  and  S_10
REMARK    4  A    between atoms: S_10  and  N_11
REMARK    5  A    between atoms: N_17  and  S_18
REMARK    6  A    between atoms: S_18  and  C_21
REMARK                            x       y       z     vdW  Elec       q    Type
REMARK                         _______ _______ _______ _____ _____    ______ ____
ROOT
ATOM      1  N   UNL     1      -0.133  10.408  21.547  0.00  0.00    +0.000 N 
ATOM      2  N   UNL     1       0.617   9.442  22.144  0.00  0.00    +0.000 NA
ATOM      3  C   UNL     1       1.043   8.785  21.080  0.00  0.00    +0.000 A 
ATOM      4  N   UNL     1       1.900   7.754  21.225  0.00  0.00    +0.000 N 
ATOM      5  N   UNL     1       0.677   9.221  19.887  0.00  0.00    +0.000 NA
ATOM      6  N   UNL     1      -0.086  10.301  20.250  0.00  0.00    +0.000 N 
ATOM      7  H   UNL     1       2.329   7.619  22.138  0.00  0.00    +0.000 HD
ENDROOT
BRANCH   4   8
ATOM      8  C   UNL     1       2.012   6.585  20.437  0.00  0.00    +0.000 A 
ATOM      9  C   UNL     1       1.544   5.369  20.954  0.00  0.00    +0.000 A 
ATOM     10  C   UNL     1       1.637   4.191  20.208  0.00  0.00    +0.000 A 
ATOM     11  C   UNL     1       2.189   4.231  18.927  0.00  0.00    +0.000 A 
ATOM     12  C   UNL     1       2.692   5.424  18.408  0.00  0.00    +0.000 A 
ATOM     13  C   UNL     1       2.610   6.593  19.166  0.00  0.00    +0.000 A 
BRANCH  11  14
ATOM     14  S   UNL     1       2.281   2.750  17.961  0.00  0.00    +0.000 S 
ATOM     15  O   UNL     1       2.203   3.101  16.563  0.00  0.00    +0.000 OA
ATOM     16  O   UNL     1       3.315   1.903  18.500  0.00  0.00    +0.000 OA
BRANCH  14  17
ATOM     17  N   UNL     1       0.819   2.018  18.344  0.00  0.00    +0.000 NA
ATOM     18  H   UNL     1       0.936   1.408  19.154  0.00  0.00    +0.000 HD
ATOM     19  H   UNL     1       0.097   2.728  18.474  0.00  0.00    +0.000 HD
ENDBRANCH  14  17
ENDBRANCH  11  14
ENDBRANCH   4   8
BRANCH   1  20
ATOM     20  N   UNL     1      -0.865  11.329  22.329  0.00  0.00    +0.000 N 
ATOM     21  H   UNL     1      -0.251  11.817  22.977  0.00  0.00    +0.000 HD
ATOM     22  H   UNL     1      -1.416  11.974  21.758  0.00  0.00    +0.000 HD
ENDBRANCH   1  20
BRANCH   6  23
ATOM     23  S   UNL     1      -0.750  11.378  19.138  0.00  0.00    +0.000 S 
ATOM     24  O   UNL     1      -0.705  10.657  17.877  0.00  0.00    +0.000 OA
ATOM     25  O   UNL     1      -1.985  11.832  19.739  0.00  0.00    +0.000 OA
BRANCH  23  26
ATOM     26  C   UNL     1       0.279  12.767  18.961  0.00  0.00    +0.000 A 
ATOM     27  C   UNL     1      -0.160  14.044  19.257  0.00  0.00    +0.000 A 
ATOM     28  F   UNL     1      -1.389  14.257  19.737  0.00  0.00    +0.000 F 
ATOM     29  C   UNL     1       0.685  15.135  19.066  0.00  0.00    +0.000 A 
ATOM     30  C   UNL     1       1.978  14.935  18.578  0.00  0.00    +0.000 A 
ATOM     31  C   UNL     1       2.424  13.642  18.298  0.00  0.00    +0.000 A 
ATOM     32  C   UNL     1       1.568  12.564  18.494  0.00  0.00    +0.000 A 
ATOM     33  F   UNL     1       2.008  11.328  18.235  0.00  0.00    +0.000 F 
ENDBRANCH  23  26
ENDBRANCH   6  23
TORSDOF 6
ENDMDL
MODEL 9
REMARK VINA RESULT:      -7.6      2.172      3.176
REMARK  Name = 
REMARK  6 active torsions:
REMARK  status: ('A' for Active; 'I' for Inactive)
REMARK    1  A    between atoms: N_1  and  N_2
REMARK    2  A    between atoms: N_5  and  C_6
REMARK    3  A    between atoms: C_9  and  S_10
REMARK    4  A    between atoms: S_10  and  N_11
REMARK    5  A    between atoms: N_17  and  S_18
REMARK    6  A    between atoms: S_18  and  C_21
REMARK                            x       y       z     vdW  Elec       q    Type
REMARK                         _______ _______ _______ _____ _____    ______ ____
ROOT
ATOM      1  N   UNL     1      -0.104  10.340  21.530  0.00  0.00    +0.000 N 
ATOM      2  N   UNL     1       0.622   9.364  22.140  0.00  0.00    +0.000 NA
ATOM      3  C   UNL     1       1.071   8.711  21.082  0.00  0.00    +0.000 A 
ATOM      4  N   UNL     1       1.916   7.673  21.241  0.00  0.00    +0.000 N 
ATOM      5  N   UNL     1       0.741   9.160  19.883  0.00  0.00    +0.000 NA
ATOM      6  N   UNL     1      -0.023  10.243  20.235  0.00  0.00    +0.000 N 
ATOM      7  H   UNL     1       2.319   7.526  22.164  0.00  0.00    +0.000 HD
ENDROOT
BRANCH   4   8
ATOM      8  C   UNL     1       2.040   6.510  20.447  0.00  0.00    +0.000 A 
ATOM      9  C   UNL     1       1.451   5.317  20.891  0.00  0.00    +0.000 A 
ATOM     10  C   UNL     1       1.552   4.145  20.135  0.00  0.00    +0.000 A 
ATOM     11  C   UNL     1       2.234   4.168  18.918  0.00  0.00    +0.000 A 
ATOM     12  C   UNL     1       2.856   5.335  18.475  0.00  0.00    +0.000 A 
ATOM     13  C   UNL     1       2.765   6.498  19.243  0.00  0.00    +0.000 A 
BRANCH  11  14
ATOM     14  S   UNL     1       2.338   2.698  17.938  0.00  0.00    +0.000 S 
ATOM     15  O   UNL     1       2.216   3.056  16.545  0.00  0.00    +0.000 OA
ATOM     16  O   UNL     1       3.406   1.873  18.445  0.00  0.00    +0.000 OA
BRANCH  14  17
ATOM     17  N   UNL     1       0.905   1.926  18.352  0.00  0.00    +0.000 NA
ATOM     18  H   UNL     1       1.101   1.128  18.959  0.00  0.00    +0.000 HD
ATOM     19  H   UNL     1       0.255   2.597  18.764  0.00  0.00    +0.000 HD
ENDBRANCH  14  17
ENDBRANCH  11  14
ENDBRANCH   4   8
BRANCH   1  20
ATOM     20  N   UNL     1      -0.850  11.260  22.300  0.00  0.00    +0.000 N 
ATOM     21  H   UNL     1      -0.646  12.216  22.015  0.00  0.00    +0.000 HD
ATOM     22  H   UNL     1      -1.852  11.059  22.286  0.00  0.00    +0.000 HD
ENDBRANCH   1  20
BRANCH   6  23
ATOM     23  S   UNL     1      -0.648  11.335  19.114  0.00  0.00    +0.000 S 
ATOM     24  O   UNL     1      -0.707  10.576  17.876  0.00  0.00    +0.000 OA
ATOM     25  O   UNL     1      -1.822  11.898  19.746  0.00  0.00    +0.000 OA
BRANCH  23  26
ATOM     26  C   UNL     1       0.473  12.636  18.855  0.00  0.00    +0.000 A 
ATOM     27  C   UNL     1       1.774  12.410  18.444  0.00  0.00    +0.000 A 
ATOM     28  F   UNL     1       2.210  11.172  18.185  0.00  0.00    +0.000 F 
ATOM     29  C   UNL     1       2.653  13.478  18.284  0.00  0.00    +0.000 A 
ATOM     30  C   UNL     1       2.216  14.780  18.536  0.00  0.00    +0.000 A 
ATOM     31  C   UNL     1       0.896  15.007  18.932  0.00  0.00    +0.000 A 
ATOM     32  C   UNL     1       0.032  13.929  19.088  0.00  0.00    +0.000 A 
ATOM     33  F   UNL     1      -1.234  14.157  19.457  0.00  0.00    +0.000 F 
ENDBRANCH  23  26
ENDBRANCH   6  23
TORSDOF 6
ENDMDL
