MODEL 1
REMARK VINA RESULT:      -7.4      0.000      0.000
REMARK  Name = 
REMARK  12 active torsions:
REMARK  status: ('A' for Active; 'I' for Inactive)
REMARK    1  A    between atoms: C_1  and  C_2
REMARK    2  A    between atoms: C_2  and  O_3
REMARK    3  A    between atoms: C_2  and  C_4
REMARK    4  A    between atoms: C_4  and  C_5
REMARK    5  A    between atoms: C_5  and  N_6
REMARK    6  A    between atoms: C_7  and  C_9
REMARK    7  A    between atoms: C_12  and  N_13
REMARK    8  A    between atoms: C_18  and  C_19
REMARK    9  A    between atoms: C_25  and  N_26
REMARK   10  A    between atoms: N_26  and  C_27
REMARK   11  A    between atoms: C_27  and  C_28
REMARK   12  A    between atoms: C_27  and  C_29
REMARK                            x       y       z     vdW  Elec       q    Type
REMARK                         _______ _______ _______ _____ _____    ______ ____
ROOT
ATOM      1  C   UNL     1       3.749   6.578  18.189  0.00  0.00    +0.000 A 
ATOM      2  C   UNL     1       3.507   7.739  17.416  0.00  0.00    +0.000 A 
ATOM      3  N   UNL     1       2.549   8.739  17.655  0.00  0.00    +0.000 NA
ATOM      4  C   UNL     1       1.825   8.618  18.794  0.00  0.00    +0.000 A 
ATOM      5  C   UNL     1       2.120   7.547  19.662  0.00  0.00    +0.000 A 
ATOM      6  C   UNL     1       3.047   6.496  19.399  0.00  0.00    +0.000 A 
ENDROOT
BRANCH   4   7
ATOM      7  N   UNL     1       0.631   9.394  19.198  0.00  0.00    +0.000 N 
ATOM      8  N   UNL     1      -0.206   9.767  18.153  0.00  0.00    +0.000 NA
ATOM      9  C   UNL     1      -0.861  10.829  18.588  0.00  0.00    +0.000 A 
ATOM     10  C   UNL     1      -0.496  11.180  19.885  0.00  0.00    +0.000 A 
ATOM     11  C   UNL     1      -0.814  12.235  20.758  0.00  0.00    +0.000 A 
ATOM     12  C   UNL     1      -0.888  11.940  22.100  0.00  0.00    +0.000 A 
ATOM     13  C   UNL     1      -0.633  10.609  22.462  0.00  0.00    +0.000 A 
ATOM     14  N   UNL     1      -0.015   9.639  21.686  0.00  0.00    +0.000 NA
ATOM     15  C   UNL     1       0.097  10.005  20.377  0.00  0.00    +0.000 A 
BRANCH  12  16
ATOM     16  C   UNL     1      -1.264  12.940  23.045  0.00  0.00    +0.000 C 
ATOM     17  N   UNL     1      -1.612  13.792  23.783  0.00  0.00    +0.000 NA
ENDBRANCH  12  16
ENDBRANCH   4   7
BRANCH   1  19
ATOM     18  N   UNL     1       6.034   5.803  17.515  0.00  0.00    +0.000 N 
ATOM     19  C   UNL     1       4.710   5.473  17.792  0.00  0.00    +0.000 C 
ATOM     20  O   UNL     1       4.312   4.320  17.686  0.00  0.00    +0.000 OA
ATOM     21  H   UNL     1       6.269   6.774  17.370  0.00  0.00    +0.000 HD
BRANCH  18  22
ATOM     22  C   UNL     1       6.974   4.833  16.947  0.00  0.00    +0.000 C 
BRANCH  22  23
ATOM     23  C   UNL     1       7.046   4.897  15.417  0.00  0.00    +0.000 C 
BRANCH  23  25
ATOM     24  C   UNL     1       6.330   3.743  13.252  0.00  0.00    +0.000 C 
ATOM     25  C   UNL     1       5.981   4.063  14.701  0.00  0.00    +0.000 C 
BRANCH  25  26
ATOM     26  O   UNL     1       5.806   2.834  15.412  0.00  0.00    +0.000 OA
ATOM     27  H   UNL     1       5.175   2.282  14.920  0.00  0.00    +0.000 HD
ENDBRANCH  25  26
ENDBRANCH  23  25
ENDBRANCH  22  23
ENDBRANCH  18  22
ENDBRANCH   1  19
BRANCH   6  28
ATOM     28  N   UNL     1       3.069   5.390  20.263  0.00  0.00    +0.000 N 
ATOM     29  H   UNL     1       3.622   5.616  21.113  0.00  0.00    +0.000 HD
BRANCH  28  30
ATOM     30  C   UNL     1       1.818   4.654  20.560  0.00  0.00    +0.000 C 
ATOM     31  C   UNL     1       1.271   3.961  19.307  0.00  0.00    +0.000 C 
ATOM     32  C   UNL     1       2.056   3.593  21.636  0.00  0.00    +0.000 C 
ENDBRANCH  28  30
ENDBRANCH   6  28
TORSDOF 9
ENDMDL
MODEL 2
REMARK VINA RESULT:      -7.3      1.244      1.630
REMARK  Name = 
REMARK  12 active torsions:
REMARK  status: ('A' for Active; 'I' for Inactive)
REMARK    1  A    between atoms: C_1  and  C_2
REMARK    2  A    between atoms: C_2  and  O_3
REMARK    3  A    between atoms: C_2  and  C_4
REMARK    4  A    between atoms: C_4  and  C_5
REMARK    5  A    between atoms: C_5  and  N_6
REMARK    6  A    between atoms: C_7  and  C_9
REMARK    7  A    between atoms: C_12  and  N_13
REMARK    8  A    between atoms: C_18  and  C_19
REMARK    9  A    between atoms: C_25  and  N_26
REMARK   10  A    between atoms: N_26  and  C_27
REMARK   11  A    between atoms: C_27  and  C_28
REMARK   12  A    between atoms: C_27  and  C_29
REMARK                            x       y       z     vdW  Elec       q    Type
REMARK                         _______ _______ _______ _____ _____    ______ ____
ROOT
ATOM      1  C   UNL     1       3.118   6.768  18.859  0.00  0.00    +0.000 A 
ATOM      2  C   UNL     1       2.912   7.900  18.035  0.00  0.00    +0.000 A 
ATOM      3  N   UNL     1       1.992   8.943  18.234  0.00  0.00    +0.000 NA
ATOM      4  C   UNL     1       1.272   8.900  19.380  0.00  0.00    +0.000 A 
ATOM      5  C   UNL     1       1.535   7.861  20.295  0.00  0.00    +0.000 A 
ATOM      6  C   UNL     1       2.423   6.766  20.075  0.00  0.00    +0.000 A 
ENDROOT
BRANCH   4   7
ATOM      7  N   UNL     1       0.109   9.736  19.755  0.00  0.00    +0.000 N 
ATOM      8  N   UNL     1      -0.734  10.073  18.702  0.00  0.00    +0.000 NA
ATOM      9  C   UNL     1      -1.349  11.178  19.083  0.00  0.00    +0.000 A 
ATOM     10  C   UNL     1      -0.952  11.593  20.351  0.00  0.00    +0.000 A 
ATOM     11  C   UNL     1      -1.223  12.707  21.164  0.00  0.00    +0.000 A 
ATOM     12  C   UNL     1      -1.284  12.495  22.522  0.00  0.00    +0.000 A 
ATOM     13  C   UNL     1      -1.065  11.180  22.960  0.00  0.00    +0.000 A 
ATOM     14  N   UNL     1      -0.489  10.147  22.234  0.00  0.00    +0.000 NA
ATOM     15  C   UNL     1      -0.387  10.432  20.904  0.00  0.00    +0.000 A 
BRANCH  12  16
ATOM     16  C   UNL     1      -1.615  13.560  23.412  0.00  0.00    +0.000 C 
ATOM     17  N   UNL     1      -1.892  14.399  24.193  0.00  0.00    +0.000 NA
ENDBRANCH  12  16
ENDBRANCH   4   7
BRANCH   1  19
ATOM     18  N   UNL     1       3.907   5.008  17.260  0.00  0.00    +0.000 N 
ATOM     19  C   UNL     1       4.037   5.613  18.508  0.00  0.00    +0.000 C 
ATOM     20  O   UNL     1       4.853   5.205  19.324  0.00  0.00    +0.000 OA
ATOM     21  H   UNL     1       3.078   5.196  16.716  0.00  0.00    +0.000 HD
BRANCH  18  22
ATOM     22  C   UNL     1       4.622   3.775  16.916  0.00  0.00    +0.000 C 
BRANCH  22  23
ATOM     23  C   UNL     1       5.800   4.013  15.965  0.00  0.00    +0.000 C 
BRANCH  23  25
ATOM     24  C   UNL     1       7.193   6.049  16.630  0.00  0.00    +0.000 C 
ATOM     25  C   UNL     1       7.067   4.530  16.651  0.00  0.00    +0.000 C 
BRANCH  25  26
ATOM     26  O   UNL     1       7.066   4.089  18.011  0.00  0.00    +0.000 OA
ATOM     27  H   UNL     1       7.243   3.133  18.023  0.00  0.00    +0.000 HD
ENDBRANCH  25  26
ENDBRANCH  23  25
ENDBRANCH  22  23
ENDBRANCH  18  22
ENDBRANCH   1  19
BRANCH   6  28
ATOM     28  N   UNL     1       2.412   5.700  20.989  0.00  0.00    +0.000 N 
ATOM     29  H   UNL     1       1.879   5.969  21.839  0.00  0.00    +0.000 HD
BRANCH  28  30
ATOM     30  C   UNL     1       2.114   4.325  20.524  0.00  0.00    +0.000 C 
ATOM     31  C   UNL     1       2.366   3.298  21.633  0.00  0.00    +0.000 C 
ATOM     32  C   UNL     1       0.656   4.210  20.077  0.00  0.00    +0.000 C 
ENDBRANCH  28  30
ENDBRANCH   6  28
TORSDOF 9
ENDMDL
MODEL 3
REMARK VINA RESULT:      -7.3      1.029      1.099
REMARK  Name = 
REMARK  12 active torsions:
REMARK  status: ('A' for Active; 'I' for Inactive)
REMARK    1  A    between atoms: C_1  and  C_2
REMARK    2  A    between atoms: C_2  and  O_3
REMARK    3  A    between atoms: C_2  and  C_4
REMARK    4  A    between atoms: C_4  and  C_5
REMARK    5  A    between atoms: C_5  and  N_6
REMARK    6  A    between atoms: C_7  and  C_9
REMARK    7  A    between atoms: C_12  and  N_13
REMARK    8  A    between atoms: C_18  and  C_19
REMARK    9  A    between atoms: C_25  and  N_26
REMARK   10  A    between atoms: N_26  and  C_27
REMARK   11  A    between atoms: C_27  and  C_28
REMARK   12  A    between atoms: C_27  and  C_29
REMARK                            x       y       z     vdW  Elec       q    Type
REMARK                         _______ _______ _______ _____ _____    ______ ____
ROOT
ATOM      1  C   UNL     1       3.536   6.966  18.220  0.00  0.00    +0.000 A 
ATOM      2  C   UNL     1       3.240   8.134  17.477  0.00  0.00    +0.000 A 
ATOM      3  N   UNL     1       2.256   9.097  17.759  0.00  0.00    +0.000 NA
ATOM      4  C   UNL     1       1.563   8.930  18.911  0.00  0.00    +0.000 A 
ATOM      5  C   UNL     1       1.913   7.853  19.750  0.00  0.00    +0.000 A 
ATOM      6  C   UNL     1       2.867   6.838  19.444  0.00  0.00    +0.000 A 
ENDROOT
BRANCH   4   7
ATOM      7  N   UNL     1       0.354   9.659  19.358  0.00  0.00    +0.000 N 
ATOM      8  N   UNL     1      -0.563   9.945  18.353  0.00  0.00    +0.000 NA
ATOM      9  C   UNL     1      -1.248  10.987  18.788  0.00  0.00    +0.000 A 
ATOM     10  C   UNL     1      -0.826  11.409  20.045  0.00  0.00    +0.000 A 
ATOM     11  C   UNL     1      -1.149  12.480  20.897  0.00  0.00    +0.000 A 
ATOM     12  C   UNL     1      -1.127  12.237  22.251  0.00  0.00    +0.000 A 
ATOM     13  C   UNL     1      -0.780  10.936  22.646  0.00  0.00    +0.000 A 
ATOM     14  N   UNL     1      -0.156   9.970  21.870  0.00  0.00    +0.000 NA
ATOM     15  C   UNL     1      -0.142  10.288  20.544  0.00  0.00    +0.000 A 
BRANCH  12  16
ATOM     16  C   UNL     1      -1.501  13.253  23.179  0.00  0.00    +0.000 C 
ATOM     17  N   UNL     1      -1.793  14.055  23.992  0.00  0.00    +0.000 NA
ENDBRANCH  12  16
ENDBRANCH   4   7
BRANCH   1  19
ATOM     18  N   UNL     1       4.241   5.158  16.636  0.00  0.00    +0.000 N 
ATOM     19  C   UNL     1       4.523   5.902  17.778  0.00  0.00    +0.000 C 
ATOM     20  O   UNL     1       5.531   5.685  18.439  0.00  0.00    +0.000 OA
ATOM     21  H   UNL     1       3.303   5.185  16.262  0.00  0.00    +0.000 HD
BRANCH  18  22
ATOM     22  C   UNL     1       5.041   3.992  16.250  0.00  0.00    +0.000 C 
BRANCH  22  23
ATOM     23  C   UNL     1       5.636   4.116  14.843  0.00  0.00    +0.000 C 
BRANCH  23  25
ATOM     24  C   UNL     1       7.529   5.091  13.430  0.00  0.00    +0.000 C 
ATOM     25  C   UNL     1       7.076   4.634  14.811  0.00  0.00    +0.000 C 
BRANCH  25  26
ATOM     26  O   UNL     1       7.187   5.735  15.718  0.00  0.00    +0.000 OA
ATOM     27  H   UNL     1       8.092   5.750  16.072  0.00  0.00    +0.000 HD
ENDBRANCH  25  26
ENDBRANCH  23  25
ENDBRANCH  22  23
ENDBRANCH  18  22
ENDBRANCH   1  19
BRANCH   6  28
ATOM     28  N   UNL     1       2.945   5.716  20.285  0.00  0.00    +0.000 N 
ATOM     29  H   UNL     1       3.358   5.988  21.199  0.00  0.00    +0.000 HD
BRANCH  28  30
ATOM     30  C   UNL     1       1.785   4.804  20.417  0.00  0.00    +0.000 C 
ATOM     31  C   UNL     1       1.491   4.086  19.094  0.00  0.00    +0.000 C 
ATOM     32  C   UNL     1       2.044   3.750  21.494  0.00  0.00    +0.000 C 
ENDBRANCH  28  30
ENDBRANCH   6  28
TORSDOF 9
ENDMDL
MODEL 4
REMARK VINA RESULT:      -7.1      1.530      2.075
REMARK  Name = 
REMARK  12 active torsions:
REMARK  status: ('A' for Active; 'I' for Inactive)
REMARK    1  A    between atoms: C_1  and  C_2
REMARK    2  A    between atoms: C_2  and  O_3
REMARK    3  A    between atoms: C_2  and  C_4
REMARK    4  A    between atoms: C_4  and  C_5
REMARK    5  A    between atoms: C_5  and  N_6
REMARK    6  A    between atoms: C_7  and  C_9
REMARK    7  A    between atoms: C_12  and  N_13
REMARK    8  A    between atoms: C_18  and  C_19
REMARK    9  A    between atoms: C_25  and  N_26
REMARK   10  A    between atoms: N_26  and  C_27
REMARK   11  A    between atoms: C_27  and  C_28
REMARK   12  A    between atoms: C_27  and  C_29
REMARK                            x       y       z     vdW  Elec       q    Type
REMARK                         _______ _______ _______ _____ _____    ______ ____
ROOT
ATOM      1  C   UNL     1       3.190   6.788  18.468  0.00  0.00    +0.000 A 
ATOM      2  C   UNL     1       2.970   7.946  17.684  0.00  0.00    +0.000 A 
ATOM      3  N   UNL     1       2.067   8.991  17.942  0.00  0.00    +0.000 NA
ATOM      4  C   UNL     1       1.382   8.921  19.108  0.00  0.00    +0.000 A 
ATOM      5  C   UNL     1       1.663   7.853  19.984  0.00  0.00    +0.000 A 
ATOM      6  C   UNL     1       2.532   6.757  19.705  0.00  0.00    +0.000 A 
ENDROOT
BRANCH   4   7
ATOM      7  N   UNL     1       0.240   9.757  19.544  0.00  0.00    +0.000 N 
ATOM      8  N   UNL     1      -0.633  10.129  18.528  0.00  0.00    +0.000 NA
ATOM      9  C   UNL     1      -1.225  11.229  18.958  0.00  0.00    +0.000 A 
ATOM     10  C   UNL     1      -0.783  11.606  20.223  0.00  0.00    +0.000 A 
ATOM     11  C   UNL     1      -1.017  12.700  21.075  0.00  0.00    +0.000 A 
ATOM     12  C   UNL     1      -1.036  12.452  22.428  0.00  0.00    +0.000 A 
ATOM     13  C   UNL     1      -0.815  11.123  22.822  0.00  0.00    +0.000 A 
ATOM     14  N   UNL     1      -0.273  10.106  22.050  0.00  0.00    +0.000 NA
ATOM     15  C   UNL     1      -0.212  10.425  20.726  0.00  0.00    +0.000 A 
BRANCH  12  16
ATOM     16  C   UNL     1      -1.327  13.495  23.356  0.00  0.00    +0.000 C 
ATOM     17  N   UNL     1      -1.628  14.350  24.110  0.00  0.00    +0.000 NA
ENDBRANCH  12  16
ENDBRANCH   4   7
BRANCH   1  19
ATOM     18  N   UNL     1       5.098   5.228  18.920  0.00  0.00    +0.000 N 
ATOM     19  C   UNL     1       4.085   5.635  18.055  0.00  0.00    +0.000 C 
ATOM     20  O   UNL     1       3.934   5.099  16.964  0.00  0.00    +0.000 OA
ATOM     21  H   UNL     1       5.352   5.836  19.684  0.00  0.00    +0.000 HD
BRANCH  18  22
ATOM     22  C   UNL     1       6.118   4.255  18.520  0.00  0.00    +0.000 C 
BRANCH  22  23
ATOM     23  C   UNL     1       7.357   4.910  17.900  0.00  0.00    +0.000 C 
BRANCH  23  25
ATOM     24  C   UNL     1       8.079   7.274  18.549  0.00  0.00    +0.000 C 
ATOM     25  C   UNL     1       8.157   5.785  18.868  0.00  0.00    +0.000 C 
BRANCH  25  26
ATOM     26  O   UNL     1       7.661   5.574  20.193  0.00  0.00    +0.000 OA
ATOM     27  H   UNL     1       8.076   6.227  20.783  0.00  0.00    +0.000 HD
ENDBRANCH  25  26
ENDBRANCH  23  25
ENDBRANCH  22  23
ENDBRANCH  18  22
ENDBRANCH   1  19
BRANCH   6  28
ATOM     28  N   UNL     1       2.539   5.665  20.587  0.00  0.00    +0.000 N 
ATOM     29  H   UNL     1       2.753   5.991  21.550  0.00  0.00    +0.000 HD
BRANCH  28  30
ATOM     30  C   UNL     1       1.447   4.665  20.540  0.00  0.00    +0.000 C 
ATOM     31  C   UNL     1       1.268   4.106  19.123  0.00  0.00    +0.000 C 
ATOM     32  C   UNL     1       1.738   3.500  21.488  0.00  0.00    +0.000 C 
ENDBRANCH  28  30
ENDBRANCH   6  28
TORSDOF 9
ENDMDL
MODEL 5
REMARK VINA RESULT:      -6.9      0.933      1.002
REMARK  Name = 
REMARK  12 active torsions:
REMARK  status: ('A' for Active; 'I' for Inactive)
REMARK    1  A    between atoms: C_1  and  C_2
REMARK    2  A    between atoms: C_2  and  O_3
REMARK    3  A    between atoms: C_2  and  C_4
REMARK    4  A    between atoms: C_4  and  C_5
REMARK    5  A    between atoms: C_5  and  N_6
REMARK    6  A    between atoms: C_7  and  C_9
REMARK    7  A    between atoms: C_12  and  N_13
REMARK    8  A    between atoms: C_18  and  C_19
REMARK    9  A    between atoms: C_25  and  N_26
REMARK   10  A    between atoms: N_26  and  C_27
REMARK   11  A    between atoms: C_27  and  C_28
REMARK   12  A    between atoms: C_27  and  C_29
REMARK                            x       y       z     vdW  Elec       q    Type
REMARK                         _______ _______ _______ _____ _____    ______ ____
ROOT
ATOM      1  C   UNL     1       3.800   6.628  18.098  0.00  0.00    +0.000 A 
ATOM      2  C   UNL     1       3.599   7.826  17.372  0.00  0.00    +0.000 A 
ATOM      3  N   UNL     1       2.642   8.824  17.621  0.00  0.00    +0.000 NA
ATOM      4  C   UNL     1       1.873   8.658  18.723  0.00  0.00    +0.000 A 
ATOM      5  C   UNL     1       2.123   7.545  19.551  0.00  0.00    +0.000 A 
ATOM      6  C   UNL     1       3.050   6.497  19.275  0.00  0.00    +0.000 A 
ENDROOT
BRANCH   4   7
ATOM      7  N   UNL     1       0.671   9.428  19.117  0.00  0.00    +0.000 N 
ATOM      8  N   UNL     1      -0.165   9.788  18.065  0.00  0.00    +0.000 NA
ATOM      9  C   UNL     1      -0.830  10.847  18.491  0.00  0.00    +0.000 A 
ATOM     10  C   UNL     1      -0.474  11.209  19.787  0.00  0.00    +0.000 A 
ATOM     11  C   UNL     1      -0.804  12.266  20.652  0.00  0.00    +0.000 A 
ATOM     12  C   UNL     1      -0.882  11.980  21.996  0.00  0.00    +0.000 A 
ATOM     13  C   UNL     1      -0.619  10.653  22.368  0.00  0.00    +0.000 A 
ATOM     14  N   UNL     1       0.011   9.683  21.601  0.00  0.00    +0.000 NA
ATOM     15  C   UNL     1       0.126  10.042  20.290  0.00  0.00    +0.000 A 
BRANCH  12  16
ATOM     16  C   UNL     1      -1.270  12.983  22.933  0.00  0.00    +0.000 C 
ATOM     17  N   UNL     1      -1.616  13.767  23.743  0.00  0.00    +0.000 NA
ENDBRANCH  12  16
ENDBRANCH   4   7
BRANCH   1  19
ATOM     18  N   UNL     1       4.739   5.073  16.372  0.00  0.00    +0.000 N 
ATOM     19  C   UNL     1       4.766   5.532  17.687  0.00  0.00    +0.000 C 
ATOM     20  O   UNL     1       5.529   5.044  18.510  0.00  0.00    +0.000 OA
ATOM     21  H   UNL     1       3.947   5.312  15.794  0.00  0.00    +0.000 HD
BRANCH  18  22
ATOM     22  C   UNL     1       5.502   3.897  15.945  0.00  0.00    +0.000 C 
BRANCH  22  23
ATOM     23  C   UNL     1       6.751   4.258  15.134  0.00  0.00    +0.000 C 
BRANCH  23  25
ATOM     24  C   UNL     1       7.648   5.077  12.885  0.00  0.00    +0.000 C 
ATOM     25  C   UNL     1       6.507   4.391  13.628  0.00  0.00    +0.000 C 
BRANCH  25  26
ATOM     26  O   UNL     1       6.322   3.085  13.077  0.00  0.00    +0.000 OA
ATOM     27  H   UNL     1       6.506   2.430  13.771  0.00  0.00    +0.000 HD
ENDBRANCH  25  26
ENDBRANCH  23  25
ENDBRANCH  22  23
ENDBRANCH  18  22
ENDBRANCH   1  19
BRANCH   6  28
ATOM     28  N   UNL     1       3.029   5.352  20.086  0.00  0.00    +0.000 N 
ATOM     29  H   UNL     1       2.924   5.627  21.082  0.00  0.00    +0.000 HD
BRANCH  28  30
ATOM     30  C   UNL     1       2.188   4.191  19.710  0.00  0.00    +0.000 C 
ATOM     31  C   UNL     1       3.033   2.920  19.560  0.00  0.00    +0.000 C 
ATOM     32  C   UNL     1       1.112   3.936  20.767  0.00  0.00    +0.000 C 
ENDBRANCH  28  30
ENDBRANCH   6  28
TORSDOF 9
ENDMDL
MODEL 6
REMARK VINA RESULT:      -6.8      1.593      1.884
REMARK  Name = 
REMARK  12 active torsions:
REMARK  status: ('A' for Active; 'I' for Inactive)
REMARK    1  A    between atoms: C_1  and  C_2
REMARK    2  A    between atoms: C_2  and  O_3
REMARK    3  A    between atoms: C_2  and  C_4
REMARK    4  A    between atoms: C_4  and  C_5
REMARK    5  A    between atoms: C_5  and  N_6
REMARK    6  A    between atoms: C_7  and  C_9
REMARK    7  A    between atoms: C_12  and  N_13
REMARK    8  A    between atoms: C_18  and  C_19
REMARK    9  A    between atoms: C_25  and  N_26
REMARK   10  A    between atoms: N_26  and  C_27
REMARK   11  A    between atoms: C_27  and  C_28
REMARK   12  A    between atoms: C_27  and  C_29
REMARK                            x       y       z     vdW  Elec       q    Type
REMARK                         _______ _______ _______ _____ _____    ______ ____
ROOT
ATOM      1  C   UNL     1       3.024   6.053  18.333  0.00  0.00    +0.000 A 
ATOM      2  C   UNL     1       2.790   7.357  17.834  0.00  0.00    +0.000 A 
ATOM      3  N   UNL     1       2.199   8.436  18.512  0.00  0.00    +0.000 NA
ATOM      4  C   UNL     1       1.885   8.230  19.814  0.00  0.00    +0.000 A 
ATOM      5  C   UNL     1       2.218   6.988  20.392  0.00  0.00    +0.000 A 
ATOM      6  C   UNL     1       2.762   5.868  19.697  0.00  0.00    +0.000 A 
ENDROOT
BRANCH   4   7
ATOM      7  N   UNL     1       1.085   9.100  20.705  0.00  0.00    +0.000 N 
ATOM      8  N   UNL     1       0.298   8.424  21.631  0.00  0.00    +0.000 NA
ATOM      9  C   UNL     1      -0.679   9.258  21.939  0.00  0.00    +0.000 A 
ATOM     10  C   UNL     1      -0.576  10.467  21.256  0.00  0.00    +0.000 A 
ATOM     11  C   UNL     1      -1.366  11.625  21.156  0.00  0.00    +0.000 A 
ATOM     12  C   UNL     1      -0.709  12.827  21.025  0.00  0.00    +0.000 A 
ATOM     13  C   UNL     1       0.693  12.772  21.001  0.00  0.00    +0.000 A 
ATOM     14  N   UNL     1       1.478  11.651  20.776  0.00  0.00    +0.000 NA
ATOM     15  C   UNL     1       0.769  10.488  20.848  0.00  0.00    +0.000 A 
BRANCH  12  16
ATOM     16  C   UNL     1      -1.436  14.053  20.979  0.00  0.00    +0.000 C 
ATOM     17  N   UNL     1      -2.008  15.084  20.993  0.00  0.00    +0.000 NA
ENDBRANCH  12  16
ENDBRANCH   4   7
BRANCH   1  19
ATOM     18  N   UNL     1       4.862   4.934  17.049  0.00  0.00    +0.000 N 
ATOM     19  C   UNL     1       3.543   4.899  17.495  0.00  0.00    +0.000 C 
ATOM     20  O   UNL     1       2.800   3.974  17.194  0.00  0.00    +0.000 OA
ATOM     21  H   UNL     1       5.365   5.807  17.101  0.00  0.00    +0.000 HD
BRANCH  18  22
ATOM     22  C   UNL     1       5.383   3.960  16.086  0.00  0.00    +0.000 C 
BRANCH  22  23
ATOM     23  C   UNL     1       5.483   4.522  14.664  0.00  0.00    +0.000 C 
BRANCH  23  25
ATOM     24  C   UNL     1       6.629   3.748  12.515  0.00  0.00    +0.000 C 
ATOM     25  C   UNL     1       6.804   4.211  13.956  0.00  0.00    +0.000 C 
BRANCH  25  26
ATOM     26  O   UNL     1       7.616   5.389  13.964  0.00  0.00    +0.000 OA
ATOM     27  H   UNL     1       7.131   6.093  14.426  0.00  0.00    +0.000 HD
ENDBRANCH  25  26
ENDBRANCH  23  25
ENDBRANCH  22  23
ENDBRANCH  18  22
ENDBRANCH   1  19
BRANCH   6  28
ATOM     28  N   UNL     1       2.836   4.635  20.365  0.00  0.00    +0.000 N 
ATOM     29  H   UNL     1       3.633   4.642  21.032  0.00  0.00    +0.000 HD
BRANCH  28  30
ATOM     30  C   UNL     1       1.611   4.020  20.927  0.00  0.00    +0.000 C 
ATOM     31  C   UNL     1       0.699   3.486  19.816  0.00  0.00    +0.000 C 
ATOM     32  C   UNL     1       1.966   2.863  21.863  0.00  0.00    +0.000 C 
ENDBRANCH  28  30
ENDBRANCH   6  28
TORSDOF 9
ENDMDL
MODEL 7
REMARK VINA RESULT:      -6.8      1.641      2.249
REMARK  Name = 
REMARK  12 active torsions:
REMARK  status: ('A' for Active; 'I' for Inactive)
REMARK    1  A    between atoms: C_1  and  C_2
REMARK    2  A    between atoms: C_2  and  O_3
REMARK    3  A    between atoms: C_2  and  C_4
REMARK    4  A    between atoms: C_4  and  C_5
REMARK    5  A    between atoms: C_5  and  N_6
REMARK    6  A    between atoms: C_7  and  C_9
REMARK    7  A    between atoms: C_12  and  N_13
REMARK    8  A    between atoms: C_18  and  C_19
REMARK    9  A    between atoms: C_25  and  N_26
REMARK   10  A    between atoms: N_26  and  C_27
REMARK   11  A    between atoms: C_27  and  C_28
REMARK   12  A    between atoms: C_27  and  C_29
REMARK                            x       y       z     vdW  Elec       q    Type
REMARK                         _______ _______ _______ _____ _____    ______ ____
ROOT
ATOM      1  C   UNL     1       2.587   6.305  18.585  0.00  0.00    +0.000 A 
ATOM      2  C   UNL     1       2.208   7.576  18.091  0.00  0.00    +0.000 A 
ATOM      3  N   UNL     1       1.699   8.660  18.826  0.00  0.00    +0.000 NA
ATOM      4  C   UNL     1       1.633   8.497  20.170  0.00  0.00    +0.000 A 
ATOM      5  C   UNL     1       2.121   7.296  20.721  0.00  0.00    +0.000 A 
ATOM      6  C   UNL     1       2.582   6.169  19.979  0.00  0.00    +0.000 A 
ENDROOT
BRANCH   4   7
ATOM      7  N   UNL     1       0.966   9.373  21.159  0.00  0.00    +0.000 N 
ATOM      8  N   UNL     1       0.414   8.710  22.250  0.00  0.00    +0.000 NA
ATOM      9  C   UNL     1      -0.536   9.509  22.704  0.00  0.00    +0.000 A 
ATOM     10  C   UNL     1      -0.639  10.682  21.961  0.00  0.00    +0.000 A 
ATOM     11  C   UNL     1      -1.504  11.790  21.965  0.00  0.00    +0.000 A 
ATOM     12  C   UNL     1      -0.959  13.015  21.655  0.00  0.00    +0.000 A 
ATOM     13  C   UNL     1       0.413  13.032  21.362  0.00  0.00    +0.000 A 
ATOM     14  N   UNL     1       1.208  11.942  21.039  0.00  0.00    +0.000 NA
ATOM     15  C   UNL     1       0.598  10.750  21.299  0.00  0.00    +0.000 A 
BRANCH  12  16
ATOM     16  C   UNL     1      -1.755  14.198  21.697  0.00  0.00    +0.000 C 
ATOM     17  N   UNL     1      -2.464  15.139  21.736  0.00  0.00    +0.000 NA
ENDBRANCH  12  16
ENDBRANCH   4   7
BRANCH   1  19
ATOM     18  N   UNL     1       4.357   4.909  17.491  0.00  0.00    +0.000 N 
ATOM     19  C   UNL     1       3.000   5.138  17.709  0.00  0.00    +0.000 C 
ATOM     20  O   UNL     1       2.149   4.434  17.180  0.00  0.00    +0.000 OA
ATOM     21  H   UNL     1       5.013   5.638  17.730  0.00  0.00    +0.000 HD
BRANCH  18  22
ATOM     22  C   UNL     1       4.832   3.926  16.514  0.00  0.00    +0.000 C 
BRANCH  22  23
ATOM     23  C   UNL     1       6.173   4.313  15.881  0.00  0.00    +0.000 C 
BRANCH  23  25
ATOM     24  C   UNL     1       7.308   6.253  17.096  0.00  0.00    +0.000 C 
ATOM     25  C   UNL     1       7.242   4.745  16.887  0.00  0.00    +0.000 C 
BRANCH  25  26
ATOM     26  O   UNL     1       6.969   4.119  18.144  0.00  0.00    +0.000 OA
ATOM     27  H   UNL     1       6.124   4.463  18.480  0.00  0.00    +0.000 HD
ENDBRANCH  25  26
ENDBRANCH  23  25
ENDBRANCH  22  23
ENDBRANCH  18  22
ENDBRANCH   1  19
BRANCH   6  28
ATOM     28  N   UNL     1       2.832   4.970  20.667  0.00  0.00    +0.000 N 
ATOM     29  H   UNL     1       3.607   5.106  21.344  0.00  0.00    +0.000 HD
BRANCH  28  30
ATOM     30  C   UNL     1       1.704   4.183  21.220  0.00  0.00    +0.000 C 
ATOM     31  C   UNL     1       0.706   3.798  20.123  0.00  0.00    +0.000 C 
ATOM     32  C   UNL     1       2.213   2.903  21.885  0.00  0.00    +0.000 C 
ENDBRANCH  28  30
ENDBRANCH   6  28
TORSDOF 9
ENDMDL
MODEL 8
REMARK VINA RESULT:      -6.8      4.181      9.843
REMARK  Name = 
REMARK  12 active torsions:
REMARK  status: ('A' for Active; 'I' for Inactive)
REMARK    1  A    between atoms: C_1  and  C_2
REMARK    2  A    between atoms: C_2  and  O_3
REMARK    3  A    between atoms: C_2  and  C_4
REMARK    4  A    between atoms: C_4  and  C_5
REMARK    5  A    between atoms: C_5  and  N_6
REMARK    6  A    between atoms: C_7  and  C_9
REMARK    7  A    between atoms: C_12  and  N_13
REMARK    8  A    between atoms: C_18  and  C_19
REMARK    9  A    between atoms: C_25  and  N_26
REMARK   10  A    between atoms: N_26  and  C_27
REMARK   11  A    between atoms: C_27  and  C_28
REMARK   12  A    between atoms: C_27  and  C_29
REMARK                            x       y       z     vdW  Elec       q    Type
REMARK                         _______ _______ _______ _____ _____    ______ ____
ROOT
ATOM      1  C   UNL     1      -1.254  11.431  19.872  0.00  0.00    +0.000 A 
ATOM      2  C   UNL     1      -0.423  10.948  20.911  0.00  0.00    +0.000 A 
ATOM      3  N   UNL     1       0.631  10.025  20.801  0.00  0.00    +0.000 NA
ATOM      4  C   UNL     1       0.936   9.607  19.549  0.00  0.00    +0.000 A 
ATOM      5  C   UNL     1       0.221  10.160  18.467  0.00  0.00    +0.000 A 
ATOM      6  C   UNL     1      -0.889  11.050  18.574  0.00  0.00    +0.000 A 
ENDROOT
BRANCH   4   7
ATOM      7  N   UNL     1       1.846   8.508  19.154  0.00  0.00    +0.000 N 
ATOM      8  N   UNL     1       2.700   8.806  18.098  0.00  0.00    +0.000 NA
ATOM      9  C   UNL     1       3.020   7.641  17.564  0.00  0.00    +0.000 A 
ATOM     10  C   UNL     1       2.414   6.574  18.223  0.00  0.00    +0.000 A 
ATOM     11  C   UNL     1       2.353   5.184  18.021  0.00  0.00    +0.000 A 
ATOM     12  C   UNL     1       2.318   4.387  19.142  0.00  0.00    +0.000 A 
ATOM     13  C   UNL     1       2.344   5.047  20.380  0.00  0.00    +0.000 A 
ATOM     14  N   UNL     1       2.082   6.390  20.612  0.00  0.00    +0.000 NA
ATOM     15  C   UNL     1       2.059   7.127  19.465  0.00  0.00    +0.000 A 
BRANCH  12  16
ATOM     16  C   UNL     1       2.317   2.965  19.024  0.00  0.00    +0.000 C 
ATOM     17  N   UNL     1       2.316   1.797  18.865  0.00  0.00    +0.000 NA
ENDBRANCH  12  16
ENDBRANCH   4   7
BRANCH   1  19
ATOM     18  N   UNL     1      -2.552  13.053  21.273  0.00  0.00    +0.000 N 
ATOM     19  C   UNL     1      -2.462  12.323  20.090  0.00  0.00    +0.000 C 
ATOM     20  O   UNL     1      -3.352  12.370  19.251  0.00  0.00    +0.000 OA
ATOM     21  H   UNL     1      -1.941  12.809  22.038  0.00  0.00    +0.000 HD
BRANCH  18  22
ATOM     22  C   UNL     1      -3.765  13.788  21.642  0.00  0.00    +0.000 C 
BRANCH  22  23
ATOM     23  C   UNL     1      -4.875  12.876  22.177  0.00  0.00    +0.000 C 
BRANCH  23  25
ATOM     24  C   UNL     1      -6.575  12.789  24.083  0.00  0.00    +0.000 C 
ATOM     25  C   UNL     1      -5.119  13.000  23.683  0.00  0.00    +0.000 C 
BRANCH  25  26
ATOM     26  O   UNL     1      -4.313  12.031  24.360  0.00  0.00    +0.000 OA
ATOM     27  H   UNL     1      -3.438  12.421  24.523  0.00  0.00    +0.000 HD
ENDBRANCH  25  26
ENDBRANCH  23  25
ENDBRANCH  22  23
ENDBRANCH  18  22
ENDBRANCH   1  19
BRANCH   6  28
ATOM     28  N   UNL     1      -1.629  11.340  17.417  0.00  0.00    +0.000 N 
ATOM     29  H   UNL     1      -1.108  12.015  16.824  0.00  0.00    +0.000 HD
BRANCH  28  30
ATOM     30  C   UNL     1      -2.254  10.243  16.640  0.00  0.00    +0.000 C 
ATOM     31  C   UNL     1      -3.320   9.516  17.468  0.00  0.00    +0.000 C 
ATOM     32  C   UNL     1      -2.912  10.786  15.371  0.00  0.00    +0.000 C 
ENDBRANCH  28  30
ENDBRANCH   6  28
TORSDOF 9
ENDMDL
MODEL 9
REMARK VINA RESULT:      -6.8      1.547      2.076
REMARK  Name = 
REMARK  12 active torsions:
REMARK  status: ('A' for Active; 'I' for Inactive)
REMARK    1  A    between atoms: C_1  and  C_2
REMARK    2  A    between atoms: C_2  and  O_3
REMARK    3  A    between atoms: C_2  and  C_4
REMARK    4  A    between atoms: C_4  and  C_5
REMARK    5  A    between atoms: C_5  and  N_6
REMARK    6  A    between atoms: C_7  and  C_9
REMARK    7  A    between atoms: C_12  and  N_13
REMARK    8  A    between atoms: C_18  and  C_19
REMARK    9  A    between atoms: C_25  and  N_26
REMARK   10  A    between atoms: N_26  and  C_27
REMARK   11  A    between atoms: C_27  and  C_28
REMARK   12  A    between atoms: C_27  and  C_29
REMARK                            x       y       z     vdW  Elec       q    Type
REMARK                         _______ _______ _______ _____ _____    ______ ____
ROOT
ATOM      1  C   UNL     1       3.205   7.115  18.541  0.00  0.00    +0.000 A 
ATOM      2  C   UNL     1       2.899   8.263  17.770  0.00  0.00    +0.000 A 
ATOM      3  N   UNL     1       1.918   9.233  18.038  0.00  0.00    +0.000 NA
ATOM      4  C   UNL     1       1.239   9.096  19.201  0.00  0.00    +0.000 A 
ATOM      5  C   UNL     1       1.598   8.042  20.065  0.00  0.00    +0.000 A 
ATOM      6  C   UNL     1       2.549   7.019  19.775  0.00  0.00    +0.000 A 
ENDROOT
BRANCH   4   7
ATOM      7  N   UNL     1       0.035   9.837  19.643  0.00  0.00    +0.000 N 
ATOM      8  N   UNL     1      -0.882  10.118  18.636  0.00  0.00    +0.000 NA
ATOM      9  C   UNL     1      -1.560  11.169  19.062  0.00  0.00    +0.000 A 
ATOM     10  C   UNL     1      -1.134  11.601  20.314  0.00  0.00    +0.000 A 
ATOM     11  C   UNL     1      -1.450  12.682  21.155  0.00  0.00    +0.000 A 
ATOM     12  C   UNL     1      -1.427  12.453  22.511  0.00  0.00    +0.000 A 
ATOM     13  C   UNL     1      -1.087  11.154  22.920  0.00  0.00    +0.000 A 
ATOM     14  N   UNL     1      -0.470  10.176  22.153  0.00  0.00    +0.000 NA
ATOM     15  C   UNL     1      -0.456  10.481  20.823  0.00  0.00    +0.000 A 
BRANCH  12  16
ATOM     16  C   UNL     1      -1.794  13.481  23.430  0.00  0.00    +0.000 C 
ATOM     17  N   UNL     1      -2.037  14.337  24.203  0.00  0.00    +0.000 NA
ENDBRANCH  12  16
ENDBRANCH   4   7
BRANCH   1  19
ATOM     18  N   UNL     1       3.906   5.286  16.978  0.00  0.00    +0.000 N 
ATOM     19  C   UNL     1       4.187   6.040  18.116  0.00  0.00    +0.000 C 
ATOM     20  O   UNL     1       5.189   5.822  18.785  0.00  0.00    +0.000 OA
ATOM     21  H   UNL     1       2.972   5.317  16.598  0.00  0.00    +0.000 HD
BRANCH  18  22
ATOM     22  C   UNL     1       4.701   4.112  16.609  0.00  0.00    +0.000 C 
BRANCH  22  23
ATOM     23  C   UNL     1       4.021   2.789  16.982  0.00  0.00    +0.000 C 
BRANCH  23  25
ATOM     24  C   UNL     1       3.768   1.038  18.826  0.00  0.00    +0.000 C 
ATOM     25  C   UNL     1       3.970   2.511  18.486  0.00  0.00    +0.000 C 
BRANCH  25  26
ATOM     26  O   UNL     1       5.195   2.954  19.077  0.00  0.00    +0.000 OA
ATOM     27  H   UNL     1       4.985   3.618  19.756  0.00  0.00    +0.000 HD
ENDBRANCH  25  26
ENDBRANCH  23  25
ENDBRANCH  22  23
ENDBRANCH  18  22
ENDBRANCH   1  19
BRANCH   6  28
ATOM     28  N   UNL     1       2.637   5.920  20.644  0.00  0.00    +0.000 N 
ATOM     29  H   UNL     1       2.908   6.241  21.594  0.00  0.00    +0.000 HD
BRANCH  28  30
ATOM     30  C   UNL     1       1.566   4.896  20.658  0.00  0.00    +0.000 C 
ATOM     31  C   UNL     1       1.220   4.436  19.237  0.00  0.00    +0.000 C 
ATOM     32  C   UNL     1       1.995   3.675  21.473  0.00  0.00    +0.000 C 
ENDBRANCH  28  30
ENDBRANCH   6  28
TORSDOF 9
ENDMDL
