MODEL 1
REMARK VINA RESULT:      -7.3      0.000      0.000
REMARK  Name = 
REMARK  3 active torsions:
REMARK  status: ('A' for Active; 'I' for Inactive)
REMARK    1  A    between atoms: C_5  and  C_6
REMARK    2  A    between atoms: C_8  and  C_9
REMARK    3  A    between atoms: C_17  and  C_18
REMARK                            x       y       z     vdW  Elec       q    Type
REMARK                         _______ _______ _______ _____ _____    ______ ____
ROOT
ATOM      1  C   UNL     1       2.840   7.263  18.429  0.00  0.00    +0.000 A 
ATOM      2  C   UNL     1       3.770   7.025  17.437  0.00  0.00    +0.000 A 
ATOM      3  C   UNL     1       4.290   5.748  17.338  0.00  0.00    +0.000 A 
ATOM      4  N   UNL     1       3.897   4.782  18.182  0.00  0.00    +0.000 NA
ATOM      5  C   UNL     1       3.011   5.094  19.155  0.00  0.00    +0.000 A 
ATOM      6  N   UNL     1       2.450   6.312  19.296  0.00  0.00    +0.000 NA
ENDROOT
BRANCH   1  11
ATOM      7  N   UNL     1       0.320  11.451  20.080  0.00  0.00    +0.000 N 
ATOM      8  C   UNL     1       0.983  10.535  19.355  0.00  0.00    +0.000 A 
ATOM      9  N   UNL     1       1.502  10.779  18.180  0.00  0.00    +0.000 NA
ATOM     10  C   UNL     1       2.167   9.652  17.720  0.00  0.00    +0.000 A 
ATOM     11  C   UNL     1       2.163   8.557  18.564  0.00  0.00    +0.000 A 
ATOM     12  S   UNL     1       1.191   8.941  19.934  0.00  0.00    +0.000 S 
ATOM     13  H   UNL     1       0.021  12.279  19.578  0.00  0.00    +0.000 HD
ATOM     14  H   UNL     1      -0.320  11.130  20.793  0.00  0.00    +0.000 HD
ENDBRANCH   1  11
BRANCH   3  15
ATOM     15  C   UNL     1       5.265   5.385  16.285  0.00  0.00    +0.000 A 
ATOM     16  C   UNL     1       4.837   4.606  15.183  0.00  0.00    +0.000 A 
ATOM     17  C   UNL     1       5.688   4.283  14.123  0.00  0.00    +0.000 A 
ATOM     18  C   UNL     1       7.010   4.706  14.146  0.00  0.00    +0.000 A 
ATOM     19  C   UNL     1       7.474   5.447  15.228  0.00  0.00    +0.000 A 
ATOM     20  C   UNL     1       6.616   5.791  16.286  0.00  0.00    +0.000 A 
ATOM     21 CL   UNL     1       7.319   6.783  17.522  0.00  0.00    +0.000 Cl
ENDBRANCH   3  15
BRANCH   5  22
ATOM     22  C   UNL     1       2.646   4.005  20.102  0.00  0.00    +0.000 A 
ATOM     23  C   UNL     1       1.369   3.936  20.676  0.00  0.00    +0.000 A 
ATOM     24  C   UNL     1       1.064   2.922  21.581  0.00  0.00    +0.000 A 
ATOM     25  C   UNL     1       2.036   1.986  21.898  0.00  0.00    +0.000 A 
ATOM     26  C   UNL     1       3.273   2.101  21.288  0.00  0.00    +0.000 A 
ATOM     27  N   UNL     1       3.597   3.076  20.408  0.00  0.00    +0.000 NA
ENDBRANCH   5  22
TORSDOF 3
ENDMDL
MODEL 2
REMARK VINA RESULT:      -7.3      3.554      6.483
REMARK  Name = 
REMARK  3 active torsions:
REMARK  status: ('A' for Active; 'I' for Inactive)
REMARK    1  A    between atoms: C_5  and  C_6
REMARK    2  A    between atoms: C_8  and  C_9
REMARK    3  A    between atoms: C_17  and  C_18
REMARK                            x       y       z     vdW  Elec       q    Type
REMARK                         _______ _______ _______ _____ _____    ______ ____
ROOT
ATOM      1  C   UNL     1       4.555   4.759  17.221  0.00  0.00    +0.000 A 
ATOM      2  C   UNL     1       5.335   5.709  17.851  0.00  0.00    +0.000 A 
ATOM      3  C   UNL     1       6.385   6.253  17.136  0.00  0.00    +0.000 A 
ATOM      4  N   UNL     1       6.629   5.864  15.876  0.00  0.00    +0.000 NA
ATOM      5  C   UNL     1       5.850   4.901  15.333  0.00  0.00    +0.000 A 
ATOM      6  N   UNL     1       4.798   4.343  15.966  0.00  0.00    +0.000 NA
ENDROOT
BRANCH   1  11
ATOM      7  N   UNL     1       0.547   3.655  20.276  0.00  0.00    +0.000 N 
ATOM      8  C   UNL     1       1.469   3.677  19.300  0.00  0.00    +0.000 A 
ATOM      9  N   UNL     1       1.356   3.010  18.182  0.00  0.00    +0.000 NA
ATOM     10  C   UNL     1       2.439   3.287  17.361  0.00  0.00    +0.000 A 
ATOM     11  C   UNL     1       3.366   4.184  17.858  0.00  0.00    +0.000 A 
ATOM     12  S   UNL     1       2.897   4.602  19.463  0.00  0.00    +0.000 S 
ATOM     13  H   UNL     1      -0.133   2.907  20.223  0.00  0.00    +0.000 HD
ATOM     14  H   UNL     1       0.831   3.908  21.213  0.00  0.00    +0.000 HD
ENDBRANCH   1  11
BRANCH   3  15
ATOM     15  C   UNL     1       7.255   7.303  17.711  0.00  0.00    +0.000 A 
ATOM     16  C   UNL     1       7.202   8.614  17.179  0.00  0.00    +0.000 A 
ATOM     17  C   UNL     1       7.948   9.668  17.717  0.00  0.00    +0.000 A 
ATOM     18  C   UNL     1       8.797   9.434  18.790  0.00  0.00    +0.000 A 
ATOM     19  C   UNL     1       8.899   8.151  19.318  0.00  0.00    +0.000 A 
ATOM     20  C   UNL     1       8.135   7.095  18.795  0.00  0.00    +0.000 A 
ATOM     21 CL   UNL     1       8.311   5.574  19.608  0.00  0.00    +0.000 Cl
ENDBRANCH   3  15
BRANCH   5  22
ATOM     22  C   UNL     1       6.191   4.463  13.952  0.00  0.00    +0.000 A 
ATOM     23  C   UNL     1       5.432   3.489  13.288  0.00  0.00    +0.000 A 
ATOM     24  C   UNL     1       5.791   3.077  12.007  0.00  0.00    +0.000 A 
ATOM     25  C   UNL     1       6.902   3.646  11.402  0.00  0.00    +0.000 A 
ATOM     26  C   UNL     1       7.602   4.611  12.105  0.00  0.00    +0.000 A 
ATOM     27  N   UNL     1       7.277   5.027  13.350  0.00  0.00    +0.000 NA
ENDBRANCH   5  22
TORSDOF 3
ENDMDL
MODEL 3
REMARK VINA RESULT:      -7.1      4.419      9.849
REMARK  Name = 
REMARK  3 active torsions:
REMARK  status: ('A' for Active; 'I' for Inactive)
REMARK    1  A    between atoms: C_5  and  C_6
REMARK    2  A    between atoms: C_8  and  C_9
REMARK    3  A    between atoms: C_17  and  C_18
REMARK                            x       y       z     vdW  Elec       q    Type
REMARK                         _______ _______ _______ _____ _____    ______ ____
ROOT
ATOM      1  C   UNL     1       0.644  10.351  18.807  0.00  0.00    +0.000 A 
ATOM      2  C   UNL     1      -0.730  10.344  18.668  0.00  0.00    +0.000 A 
ATOM      3  C   UNL     1      -1.360  11.555  18.457  0.00  0.00    +0.000 A 
ATOM      4  N   UNL     1      -0.652  12.693  18.392  0.00  0.00    +0.000 NA
ATOM      5  C   UNL     1       0.687  12.633  18.575  0.00  0.00    +0.000 A 
ATOM      6  N   UNL     1       1.367  11.483  18.764  0.00  0.00    +0.000 NA
ENDROOT
BRANCH   1  11
ATOM      7  N   UNL     1       2.709   5.880  20.341  0.00  0.00    +0.000 N 
ATOM      8  C   UNL     1       2.378   6.996  19.672  0.00  0.00    +0.000 A 
ATOM      9  N   UNL     1       2.704   7.216  18.425  0.00  0.00    +0.000 NA
ATOM     10  C   UNL     1       2.167   8.425  18.010  0.00  0.00    +0.000 A 
ATOM     11  C   UNL     1       1.417   9.112  18.946  0.00  0.00    +0.000 A 
ATOM     12  S   UNL     1       1.490   8.243  20.432  0.00  0.00    +0.000 S 
ATOM     13  H   UNL     1       3.434   5.312  19.921  0.00  0.00    +0.000 HD
ATOM     14  H   UNL     1       2.723   5.910  21.352  0.00  0.00    +0.000 HD
ENDBRANCH   1  11
BRANCH   3  15
ATOM     15  C   UNL     1      -2.824  11.646  18.260  0.00  0.00    +0.000 A 
ATOM     16  C   UNL     1      -3.641  12.089  19.329  0.00  0.00    +0.000 A 
ATOM     17  C   UNL     1      -5.021  12.261  19.190  0.00  0.00    +0.000 A 
ATOM     18  C   UNL     1      -5.636  11.965  17.982  0.00  0.00    +0.000 A 
ATOM     19  C   UNL     1      -4.869  11.497  16.919  0.00  0.00    +0.000 A 
ATOM     20  C   UNL     1      -3.479  11.343  17.047  0.00  0.00    +0.000 A 
ATOM     21 CL   UNL     1      -2.651  10.827  15.614  0.00  0.00    +0.000 Cl
ENDBRANCH   3  15
BRANCH   5  22
ATOM     22  C   UNL     1       1.425  13.925  18.548  0.00  0.00    +0.000 A 
ATOM     23  C   UNL     1       0.807  15.125  18.925  0.00  0.00    +0.000 A 
ATOM     24  C   UNL     1       1.514  16.324  18.864  0.00  0.00    +0.000 A 
ATOM     25  C   UNL     1       2.831  16.309  18.431  0.00  0.00    +0.000 A 
ATOM     26  C   UNL     1       3.388  15.090  18.085  0.00  0.00    +0.000 A 
ATOM     27  N   UNL     1       2.724  13.913  18.132  0.00  0.00    +0.000 NA
ENDBRANCH   5  22
TORSDOF 3
ENDMDL
MODEL 4
REMARK VINA RESULT:      -7.1      4.649      8.528
REMARK  Name = 
REMARK  3 active torsions:
REMARK  status: ('A' for Active; 'I' for Inactive)
REMARK    1  A    between atoms: C_5  and  C_6
REMARK    2  A    between atoms: C_8  and  C_9
REMARK    3  A    between atoms: C_17  and  C_18
REMARK                            x       y       z     vdW  Elec       q    Type
REMARK                         _______ _______ _______ _____ _____    ______ ____
ROOT
ATOM      1  C   UNL     1      -1.475  11.660  18.577  0.00  0.00    +0.000 A 
ATOM      2  C   UNL     1      -0.874  10.422  18.688  0.00  0.00    +0.000 A 
ATOM      3  C   UNL     1       0.504  10.383  18.774  0.00  0.00    +0.000 A 
ATOM      4  N   UNL     1       1.224  11.516  18.750  0.00  0.00    +0.000 NA
ATOM      5  C   UNL     1       0.573  12.692  18.601  0.00  0.00    +0.000 A 
ATOM      6  N   UNL     1      -0.769  12.803  18.531  0.00  0.00    +0.000 NA
ENDROOT
BRANCH   1  11
ATOM      7  N   UNL     1      -6.540  11.369  17.641  0.00  0.00    +0.000 N 
ATOM      8  C   UNL     1      -5.323  11.665  18.127  0.00  0.00    +0.000 A 
ATOM      9  N   UNL     1      -5.129  12.301  19.252  0.00  0.00    +0.000 NA
ATOM     10  C   UNL     1      -3.768  12.400  19.503  0.00  0.00    +0.000 A 
ATOM     11  C   UNL     1      -2.933  11.817  18.568  0.00  0.00    +0.000 A 
ATOM     12  S   UNL     1      -3.908  11.223  17.277  0.00  0.00    +0.000 S 
ATOM     13  H   UNL     1      -7.315  11.871  18.056  0.00  0.00    +0.000 HD
ATOM     14  H   UNL     1      -6.631  11.185  16.651  0.00  0.00    +0.000 HD
ENDBRANCH   1  11
BRANCH   3  15
ATOM     15  C   UNL     1       1.239   9.108  18.932  0.00  0.00    +0.000 A 
ATOM     16  C   UNL     1       1.937   8.569  17.825  0.00  0.00    +0.000 A 
ATOM     17  C   UNL     1       2.704   7.404  17.922  0.00  0.00    +0.000 A 
ATOM     18  C   UNL     1       2.771   6.721  19.128  0.00  0.00    +0.000 A 
ATOM     19  C   UNL     1       2.072   7.204  20.230  0.00  0.00    +0.000 A 
ATOM     20  C   UNL     1       1.318   8.386  20.142  0.00  0.00    +0.000 A 
ATOM     21 CL   UNL     1       0.568   8.902  21.617  0.00  0.00    +0.000 Cl
ENDBRANCH   3  15
BRANCH   5  22
ATOM     22  C   UNL     1       1.415  13.918  18.524  0.00  0.00    +0.000 A 
ATOM     23  C   UNL     1       2.780  13.846  18.211  0.00  0.00    +0.000 A 
ATOM     24  C   UNL     1       3.549  15.007  18.174  0.00  0.00    +0.000 A 
ATOM     25  C   UNL     1       2.945  16.225  18.446  0.00  0.00    +0.000 A 
ATOM     26  C   UNL     1       1.592  16.230  18.736  0.00  0.00    +0.000 A 
ATOM     27  N   UNL     1       0.822  15.119  18.782  0.00  0.00    +0.000 NA
ENDBRANCH   5  22
TORSDOF 3
ENDMDL
MODEL 5
REMARK VINA RESULT:      -7.1      4.640      8.591
REMARK  Name = 
REMARK  3 active torsions:
REMARK  status: ('A' for Active; 'I' for Inactive)
REMARK    1  A    between atoms: C_5  and  C_6
REMARK    2  A    between atoms: C_8  and  C_9
REMARK    3  A    between atoms: C_17  and  C_18
REMARK                            x       y       z     vdW  Elec       q    Type
REMARK                         _______ _______ _______ _____ _____    ______ ____
ROOT
ATOM      1  C   UNL     1       0.709  13.003  18.618  0.00  0.00    +0.000 A 
ATOM      2  C   UNL     1      -0.661  13.042  18.444  0.00  0.00    +0.000 A 
ATOM      3  C   UNL     1      -1.344  11.841  18.461  0.00  0.00    +0.000 A 
ATOM      4  N   UNL     1      -0.689  10.684  18.640  0.00  0.00    +0.000 NA
ATOM      5  C   UNL     1       0.657  10.714  18.765  0.00  0.00    +0.000 A 
ATOM      6  N   UNL     1       1.383  11.851  18.778  0.00  0.00    +0.000 NA
ENDROOT
BRANCH   1  11
ATOM      7  N   UNL     1       4.447  16.556  18.508  0.00  0.00    +0.000 N 
ATOM      8  C   UNL     1       3.284  15.898  18.639  0.00  0.00    +0.000 A 
ATOM      9  N   UNL     1       2.128  16.492  18.784  0.00  0.00    +0.000 NA
ATOM     10  C   UNL     1       1.118  15.542  18.832  0.00  0.00    +0.000 A 
ATOM     11  C   UNL     1       1.516  14.224  18.704  0.00  0.00    +0.000 A 
ATOM     12  S   UNL     1       3.237  14.190  18.629  0.00  0.00    +0.000 S 
ATOM     13  H   UNL     1       4.432  17.534  18.772  0.00  0.00    +0.000 HD
ATOM     14  H   UNL     1       5.304  16.068  18.728  0.00  0.00    +0.000 HD
ENDBRANCH   1  11
BRANCH   3  15
ATOM     15  C   UNL     1      -2.816  11.782  18.320  0.00  0.00    +0.000 A 
ATOM     16  C   UNL     1      -3.633  12.173  19.408  0.00  0.00    +0.000 A 
ATOM     17  C   UNL     1      -5.028  12.204  19.321  0.00  0.00    +0.000 A 
ATOM     18  C   UNL     1      -5.654  11.814  18.145  0.00  0.00    +0.000 A 
ATOM     19  C   UNL     1      -4.884  11.394  17.065  0.00  0.00    +0.000 A 
ATOM     20  C   UNL     1      -3.482  11.381  17.142  0.00  0.00    +0.000 A 
ATOM     21 CL   UNL     1      -2.660  10.909  15.690  0.00  0.00    +0.000 Cl
ENDBRANCH   3  15
BRANCH   5  22
ATOM     22  C   UNL     1       1.346   9.402  18.907  0.00  0.00    +0.000 A 
ATOM     23  C   UNL     1       2.036   8.822  17.834  0.00  0.00    +0.000 A 
ATOM     24  C   UNL     1       2.648   7.580  17.987  0.00  0.00    +0.000 A 
ATOM     25  C   UNL     1       2.568   6.935  19.212  0.00  0.00    +0.000 A 
ATOM     26  C   UNL     1       1.883   7.567  20.236  0.00  0.00    +0.000 A 
ATOM     27  N   UNL     1       1.278   8.770  20.113  0.00  0.00    +0.000 NA
ENDBRANCH   5  22
TORSDOF 3
ENDMDL
MODEL 6
REMARK VINA RESULT:      -7.1      4.562      7.864
REMARK  Name = 
REMARK  3 active torsions:
REMARK  status: ('A' for Active; 'I' for Inactive)
REMARK    1  A    between atoms: C_5  and  C_6
REMARK    2  A    between atoms: C_8  and  C_9
REMARK    3  A    between atoms: C_17  and  C_18
REMARK                            x       y       z     vdW  Elec       q    Type
REMARK                         _______ _______ _______ _____ _____    ______ ____
ROOT
ATOM      1  C   UNL     1       0.827  12.802  18.696  0.00  0.00    +0.000 A 
ATOM      2  C   UNL     1       1.508  11.615  18.889  0.00  0.00    +0.000 A 
ATOM      3  C   UNL     1       0.796  10.439  18.754  0.00  0.00    +0.000 A 
ATOM      4  N   UNL     1      -0.510  10.460  18.448  0.00  0.00    +0.000 NA
ATOM      5  C   UNL     1      -1.123  11.658  18.311  0.00  0.00    +0.000 A 
ATOM      6  N   UNL     1      -0.485  12.842  18.409  0.00  0.00    +0.000 NA
ENDROOT
BRANCH   1  11
ATOM      7  N   UNL     1       4.174  16.715  18.372  0.00  0.00    +0.000 N 
ATOM      8  C   UNL     1       3.090  15.944  18.562  0.00  0.00    +0.000 A 
ATOM      9  N   UNL     1       1.887  16.420  18.745  0.00  0.00    +0.000 NA
ATOM     10  C   UNL     1       0.982  15.374  18.851  0.00  0.00    +0.000 A 
ATOM     11  C   UNL     1       1.507  14.101  18.728  0.00  0.00    +0.000 A 
ATOM     12  S   UNL     1       3.219  14.240  18.583  0.00  0.00    +0.000 S 
ATOM     13  H   UNL     1       4.070  17.691  18.620  0.00  0.00    +0.000 HD
ATOM     14  H   UNL     1       5.085  16.320  18.565  0.00  0.00    +0.000 HD
ENDBRANCH   1  11
BRANCH   3  15
ATOM     15  C   UNL     1       1.443   9.117  18.905  0.00  0.00    +0.000 A 
ATOM     16  C   UNL     1       2.158   8.566  17.814  0.00  0.00    +0.000 A 
ATOM     17  C   UNL     1       2.848   7.354  17.910  0.00  0.00    +0.000 A 
ATOM     18  C   UNL     1       2.818   6.636  19.096  0.00  0.00    +0.000 A 
ATOM     19  C   UNL     1       2.100   7.130  20.180  0.00  0.00    +0.000 A 
ATOM     20  C   UNL     1       1.423   8.358  20.095  0.00  0.00    +0.000 A 
ATOM     21 CL   UNL     1       0.639   8.879  21.551  0.00  0.00    +0.000 Cl
ENDBRANCH   3  15
BRANCH   5  22
ATOM     22  C   UNL     1      -2.584  11.634  18.025  0.00  0.00    +0.000 A 
ATOM     23  C   UNL     1      -3.525  11.978  19.006  0.00  0.00    +0.000 A 
ATOM     24  C   UNL     1      -4.886  11.920  18.719  0.00  0.00    +0.000 A 
ATOM     25  C   UNL     1      -5.292  11.522  17.454  0.00  0.00    +0.000 A 
ATOM     26  C   UNL     1      -4.315  11.208  16.526  0.00  0.00    +0.000 A 
ATOM     27  N   UNL     1      -2.987  11.253  16.779  0.00  0.00    +0.000 NA
ENDBRANCH   5  22
TORSDOF 3
ENDMDL
MODEL 7
REMARK VINA RESULT:      -7.1      4.539      7.790
REMARK  Name = 
REMARK  3 active torsions:
REMARK  status: ('A' for Active; 'I' for Inactive)
REMARK    1  A    between atoms: C_5  and  C_6
REMARK    2  A    between atoms: C_8  and  C_9
REMARK    3  A    between atoms: C_17  and  C_18
REMARK                            x       y       z     vdW  Elec       q    Type
REMARK                         _______ _______ _______ _____ _____    ______ ____
ROOT
ATOM      1  C   UNL     1       0.824  12.722  18.688  0.00  0.00    +0.000 A 
ATOM      2  C   UNL     1       1.524  11.546  18.873  0.00  0.00    +0.000 A 
ATOM      3  C   UNL     1       0.837  10.359  18.714  0.00  0.00    +0.000 A 
ATOM      4  N   UNL     1      -0.466  10.360  18.391  0.00  0.00    +0.000 NA
ATOM      5  C   UNL     1      -1.099  11.547  18.262  0.00  0.00    +0.000 A 
ATOM      6  N   UNL     1      -0.485  12.742  18.384  0.00  0.00    +0.000 NA
ENDROOT
BRANCH   1  11
ATOM      7  N   UNL     1       2.145  17.627  19.586  0.00  0.00    +0.000 N 
ATOM      8  C   UNL     1       2.100  16.347  19.185  0.00  0.00    +0.000 A 
ATOM      9  N   UNL     1       3.128  15.707  18.689  0.00  0.00    +0.000 NA
ATOM     10  C   UNL     1       2.776  14.391  18.428  0.00  0.00    +0.000 A 
ATOM     11  C   UNL     1       1.479  14.033  18.746  0.00  0.00    +0.000 A 
ATOM     12  S   UNL     1       0.654  15.443  19.293  0.00  0.00    +0.000 S 
ATOM     13  H   UNL     1       2.942  18.163  19.265  0.00  0.00    +0.000 HD
ATOM     14  H   UNL     1       1.278  18.145  19.642  0.00  0.00    +0.000 HD
ENDBRANCH   1  11
BRANCH   3  15
ATOM     15  C   UNL     1       1.507   9.047  18.856  0.00  0.00    +0.000 A 
ATOM     16  C   UNL     1       2.273   8.540  17.779  0.00  0.00    +0.000 A 
ATOM     17  C   UNL     1       2.985   7.340  17.869  0.00  0.00    +0.000 A 
ATOM     18  C   UNL     1       2.928   6.591  19.036  0.00  0.00    +0.000 A 
ATOM     19  C   UNL     1       2.160   7.042  20.105  0.00  0.00    +0.000 A 
ATOM     20  C   UNL     1       1.460   8.258  20.025  0.00  0.00    +0.000 A 
ATOM     21 CL   UNL     1       0.613   8.725  21.464  0.00  0.00    +0.000 Cl
ENDBRANCH   3  15
BRANCH   5  22
ATOM     22  C   UNL     1      -2.556  11.500  17.957  0.00  0.00    +0.000 A 
ATOM     23  C   UNL     1      -3.024  11.084  16.702  0.00  0.00    +0.000 A 
ATOM     24  C   UNL     1      -4.391  11.077  16.435  0.00  0.00    +0.000 A 
ATOM     25  C   UNL     1      -5.274  11.480  17.425  0.00  0.00    +0.000 A 
ATOM     26  C   UNL     1      -4.750  11.866  18.647  0.00  0.00    +0.000 A 
ATOM     27  N   UNL     1      -3.428  11.886  18.932  0.00  0.00    +0.000 NA
ENDBRANCH   5  22
TORSDOF 3
ENDMDL
MODEL 8
REMARK VINA RESULT:      -7.1      2.637      5.900
REMARK  Name = 
REMARK  3 active torsions:
REMARK  status: ('A' for Active; 'I' for Inactive)
REMARK    1  A    between atoms: C_5  and  C_6
REMARK    2  A    between atoms: C_8  and  C_9
REMARK    3  A    between atoms: C_17  and  C_18
REMARK                            x       y       z     vdW  Elec       q    Type
REMARK                         _______ _______ _______ _____ _____    ______ ____
ROOT
ATOM      1  C   UNL     1       4.385   5.864  17.415  0.00  0.00    +0.000 A 
ATOM      2  C   UNL     1       3.770   7.097  17.511  0.00  0.00    +0.000 A 
ATOM      3  C   UNL     1       2.828   7.268  18.506  0.00  0.00    +0.000 A 
ATOM      4  N   UNL     1       2.527   6.265  19.344  0.00  0.00    +0.000 NA
ATOM      5  C   UNL     1       3.139   5.071  19.171  0.00  0.00    +0.000 A 
ATOM      6  N   UNL     1       4.082   4.842  18.234  0.00  0.00    +0.000 NA
ENDROOT
BRANCH   1  11
ATOM      7  N   UNL     1       7.231   4.601  13.302  0.00  0.00    +0.000 N 
ATOM      8  C   UNL     1       6.796   5.017  14.503  0.00  0.00    +0.000 A 
ATOM      9  N   UNL     1       7.532   5.693  15.345  0.00  0.00    +0.000 NA
ATOM     10  C   UNL     1       6.779   6.022  16.463  0.00  0.00    +0.000 A 
ATOM     11  C   UNL     1       5.461   5.605  16.453  0.00  0.00    +0.000 A 
ATOM     12  S   UNL     1       5.206   4.673  15.026  0.00  0.00    +0.000 S 
ATOM     13  H   UNL     1       8.235   4.617  13.167  0.00  0.00    +0.000 HD
ATOM     14  H   UNL     1       6.753   3.829  12.857  0.00  0.00    +0.000 HD
ENDBRANCH   1  11
BRANCH   3  15
ATOM     15  C   UNL     1       2.140   8.563  18.711  0.00  0.00    +0.000 A 
ATOM     16  C   UNL     1       2.206   9.550  17.699  0.00  0.00    +0.000 A 
ATOM     17  C   UNL     1       1.526  10.768  17.800  0.00  0.00    +0.000 A 
ATOM     18  C   UNL     1       0.782  11.050  18.936  0.00  0.00    +0.000 A 
ATOM     19  C   UNL     1       0.720  10.116  19.966  0.00  0.00    +0.000 A 
ATOM     20  C   UNL     1       1.384   8.883  19.859  0.00  0.00    +0.000 A 
ATOM     21 CL   UNL     1       1.150   7.793  21.187  0.00  0.00    +0.000 Cl
ENDBRANCH   3  15
BRANCH   5  22
ATOM     22  C   UNL     1       2.735   3.972  20.090  0.00  0.00    +0.000 A 
ATOM     23  C   UNL     1       1.444   3.914  20.633  0.00  0.00    +0.000 A 
ATOM     24  C   UNL     1       1.103   2.888  21.513  0.00  0.00    +0.000 A 
ATOM     25  C   UNL     1       2.053   1.932  21.835  0.00  0.00    +0.000 A 
ATOM     26  C   UNL     1       3.305   2.037  21.254  0.00  0.00    +0.000 A 
ATOM     27  N   UNL     1       3.664   3.023  20.400  0.00  0.00    +0.000 NA
ENDBRANCH   5  22
TORSDOF 3
ENDMDL
MODEL 9
REMARK VINA RESULT:      -7.0      4.161      7.706
REMARK  Name = 
REMARK  3 active torsions:
REMARK  status: ('A' for Active; 'I' for Inactive)
REMARK    1  A    between atoms: C_5  and  C_6
REMARK    2  A    between atoms: C_8  and  C_9
REMARK    3  A    between atoms: C_17  and  C_18
REMARK                            x       y       z     vdW  Elec       q    Type
REMARK                         _______ _______ _______ _____ _____    ______ ____
ROOT
ATOM      1  C   UNL     1      -0.972  10.932  17.971  0.00  0.00    +0.000 A 
ATOM      2  C   UNL     1      -0.248   9.755  17.976  0.00  0.00    +0.000 A 
ATOM      3  C   UNL     1       0.977   9.759  18.615  0.00  0.00    +0.000 A 
ATOM      4  N   UNL     1       1.438  10.873  19.204  0.00  0.00    +0.000 NA
ATOM      5  C   UNL     1       0.696  12.000  19.128  0.00  0.00    +0.000 A 
ATOM      6  N   UNL     1      -0.516  12.062  18.539  0.00  0.00    +0.000 NA
ENDROOT
BRANCH   1  11
ATOM      7  N   UNL     1      -5.942  11.885  16.972  0.00  0.00    +0.000 N 
ATOM      8  C   UNL     1      -4.664  11.476  16.930  0.00  0.00    +0.000 A 
ATOM      9  N   UNL     1      -4.093  10.998  15.855  0.00  0.00    +0.000 NA
ATOM     10  C   UNL     1      -2.759  10.722  16.120  0.00  0.00    +0.000 A 
ATOM     11  C   UNL     1      -2.320  11.011  17.399  0.00  0.00    +0.000 A 
ATOM     12  S   UNL     1      -3.673  11.548  18.320  0.00  0.00    +0.000 S 
ATOM     13  H   UNL     1      -6.528  11.584  16.203  0.00  0.00    +0.000 HD
ATOM     14  H   UNL     1      -6.406  11.926  17.870  0.00  0.00    +0.000 HD
ENDBRANCH   1  11
BRANCH   3  15
ATOM     15  C   UNL     1       1.810   8.539  18.706  0.00  0.00    +0.000 A 
ATOM     16  C   UNL     1       2.659   8.197  17.626  0.00  0.00    +0.000 A 
ATOM     17  C   UNL     1       3.519   7.096  17.674  0.00  0.00    +0.000 A 
ATOM     18  C   UNL     1       3.535   6.281  18.796  0.00  0.00    +0.000 A 
ATOM     19  C   UNL     1       2.691   6.568  19.865  0.00  0.00    +0.000 A 
ATOM     20  C   UNL     1       1.840   7.685  19.830  0.00  0.00    +0.000 A 
ATOM     21 CL   UNL     1       0.907   7.956  21.265  0.00  0.00    +0.000 Cl
ENDBRANCH   3  15
BRANCH   5  22
ATOM     22  C   UNL     1       1.272  13.225  19.748  0.00  0.00    +0.000 A 
ATOM     23  C   UNL     1       1.005  14.499  19.230  0.00  0.00    +0.000 A 
ATOM     24  C   UNL     1       1.580  15.625  19.814  0.00  0.00    +0.000 A 
ATOM     25  C   UNL     1       2.412  15.465  20.912  0.00  0.00    +0.000 A 
ATOM     26  C   UNL     1       2.625  14.182  21.385  0.00  0.00    +0.000 A 
ATOM     27  N   UNL     1       2.082  13.072  20.835  0.00  0.00    +0.000 NA
ENDBRANCH   5  22
TORSDOF 3
ENDMDL
