MODEL 1
REMARK VINA RESULT:      -7.8      0.000      0.000
REMARK  Name = 
REMARK  12 active torsions:
REMARK  status: ('A' for Active; 'I' for Inactive)
REMARK    1  A    between atoms: C_2  and  O_3
REMARK    2  A    between atoms: C_2  and  C_24
REMARK    3  A    between atoms: O_3  and  C_4
REMARK    4  A    between atoms: C_7  and  C_8
REMARK    5  A    between atoms: C_8  and  C_9
REMARK    6  A    between atoms: C_9  and  O_10
REMARK    7  A    between atoms: O_10  and  C_11
REMARK    8  A    between atoms: C_13  and  C_14
REMARK    9  A    between atoms: C_14  and  O_15
REMARK   10  A    between atoms: C_16  and  O_17
REMARK   11  A    between atoms: C_18  and  O_19
REMARK   12  A    between atoms: C_20  and  O_21
REMARK                            x       y       z     vdW  Elec       q    Type
REMARK                         _______ _______ _______ _____ _____    ______ ____
ROOT
ATOM      1  C   UNL     1       8.917   9.539  18.568  0.00  0.00    +0.000 C 
ENDROOT
BRANCH   1   2
ATOM      2  C   UNL     1       7.871   8.966  17.598  0.00  0.00    +0.000 C 
BRANCH   2   6
ATOM      3  C   UNL     1       6.273   5.089  18.619  0.00  0.00    +0.000 A 
ATOM      4  C   UNL     1       5.735   5.767  17.531  0.00  0.00    +0.000 A 
ATOM      5  C   UNL     1       6.284   6.995  17.140  0.00  0.00    +0.000 A 
ATOM      6  C   UNL     1       7.373   7.550  17.824  0.00  0.00    +0.000 A 
ATOM      7  C   UNL     1       7.978   6.785  18.836  0.00  0.00    +0.000 A 
ATOM      8  C   UNL     1       7.435   5.559  19.230  0.00  0.00    +0.000 A 
BRANCH   3   9
ATOM      9  O   UNL     1       5.696   3.943  19.216  0.00  0.00    +0.000 OA
BRANCH   9  11
ATOM     10  O   UNL     1       4.085   2.587  18.205  0.00  0.00    +0.000 OA
ATOM     11  C   UNL     1       4.397   3.507  18.954  0.00  0.00    +0.000 C 
BRANCH  11  12
ATOM     12  C   UNL     1       3.350   4.314  19.727  0.00  0.00    +0.000 C 
ATOM     13  C   UNL     1       2.319   4.900  18.762  0.00  0.00    +0.000 C 
ATOM     14  C   UNL     1       1.418   3.806  18.204  0.00  0.00    +0.000 C 
ATOM     15  C   UNL     1       0.669   3.091  19.323  0.00  0.00    +0.000 C 
ATOM     16  C   UNL     1       1.577   2.595  20.447  0.00  0.00    +0.000 C 
ATOM     17  C   UNL     1       2.643   3.602  20.885  0.00  0.00    +0.000 C 
ENDBRANCH  11  12
ENDBRANCH   9  11
ENDBRANCH   3   9
ENDBRANCH   2   6
ENDBRANCH   1   2
BRANCH   1  18
ATOM     18  O   UNL     1       9.762  10.479  17.900  0.00  0.00    +0.000 OA
BRANCH  18  19
ATOM     19  C   UNL     1      10.318  11.490  18.745  0.00  0.00    +0.000 C 
ATOM     20  O   UNL     1       9.563  11.608  19.952  0.00  0.00    +0.000 OA
ATOM     21  C   UNL     1      10.139  12.506  20.902  0.00  0.00    +0.000 C 
ATOM     22  C   UNL     1      10.238  13.929  20.310  0.00  0.00    +0.000 C 
ATOM     23  C   UNL     1      11.036  13.894  18.999  0.00  0.00    +0.000 C 
ATOM     24  C   UNL     1      10.461  12.853  18.025  0.00  0.00    +0.000 C 
BRANCH  22  25
ATOM     25  O   UNL     1      10.830  14.817  21.268  0.00  0.00    +0.000 OA
ATOM     26  H   UNL     1      11.116  14.294  22.041  0.00  0.00    +0.000 HD
ENDBRANCH  22  25
BRANCH  23  27
ATOM     27  O   UNL     1      11.064  15.203  18.422  0.00  0.00    +0.000 OA
ATOM     28  H   UNL     1      10.934  15.859  19.131  0.00  0.00    +0.000 HD
ENDBRANCH  23  27
BRANCH  24  29
ATOM     29  O   UNL     1      11.283  12.767  16.854  0.00  0.00    +0.000 OA
ATOM     30  H   UNL     1      11.008  13.455  16.223  0.00  0.00    +0.000 HD
ENDBRANCH  24  29
BRANCH  21  31
ATOM     31  C   UNL     1       9.261  12.501  22.166  0.00  0.00    +0.000 C 
BRANCH  31  32
ATOM     32  O   UNL     1       8.662  11.234  22.413  0.00  0.00    +0.000 OA
ATOM     33  H   UNL     1       8.040  11.061  21.674  0.00  0.00    +0.000 HD
ENDBRANCH  31  32
ENDBRANCH  21  31
ENDBRANCH  18  19
ENDBRANCH   1  18
TORSDOF 12
ENDMDL
MODEL 2
REMARK VINA RESULT:      -7.8      1.624      1.993
REMARK  Name = 
REMARK  12 active torsions:
REMARK  status: ('A' for Active; 'I' for Inactive)
REMARK    1  A    between atoms: C_2  and  O_3
REMARK    2  A    between atoms: C_2  and  C_24
REMARK    3  A    between atoms: O_3  and  C_4
REMARK    4  A    between atoms: C_7  and  C_8
REMARK    5  A    between atoms: C_8  and  C_9
REMARK    6  A    between atoms: C_9  and  O_10
REMARK    7  A    between atoms: O_10  and  C_11
REMARK    8  A    between atoms: C_13  and  C_14
REMARK    9  A    between atoms: C_14  and  O_15
REMARK   10  A    between atoms: C_16  and  O_17
REMARK   11  A    between atoms: C_18  and  O_19
REMARK   12  A    between atoms: C_20  and  O_21
REMARK                            x       y       z     vdW  Elec       q    Type
REMARK                         _______ _______ _______ _____ _____    ______ ____
ROOT
ATOM      1  C   UNL     1       9.000  10.005  19.257  0.00  0.00    +0.000 C 
ENDROOT
BRANCH   1   2
ATOM      2  C   UNL     1       8.339   9.484  17.971  0.00  0.00    +0.000 C 
BRANCH   2   6
ATOM      3  C   UNL     1       7.043   5.368  18.020  0.00  0.00    +0.000 A 
ATOM      4  C   UNL     1       6.805   6.128  16.881  0.00  0.00    +0.000 A 
ATOM      5  C   UNL     1       7.277   7.446  16.816  0.00  0.00    +0.000 A 
ATOM      6  C   UNL     1       7.993   8.009  17.881  0.00  0.00    +0.000 A 
ATOM      7  C   UNL     1       8.331   7.179  18.964  0.00  0.00    +0.000 A 
ATOM      8  C   UNL     1       7.863   5.864  19.032  0.00  0.00    +0.000 A 
BRANCH   3   9
ATOM      9  O   UNL     1       6.465   4.101  18.275  0.00  0.00    +0.000 OA
BRANCH   9  11
ATOM     10  O   UNL     1       4.881   3.902  19.981  0.00  0.00    +0.000 OA
ATOM     11  C   UNL     1       5.181   3.929  18.791  0.00  0.00    +0.000 C 
BRANCH  11  12
ATOM     12  C   UNL     1       4.130   3.777  17.687  0.00  0.00    +0.000 C 
ATOM     13  C   UNL     1       3.552   2.361  17.703  0.00  0.00    +0.000 C 
ATOM     14  C   UNL     1       2.657   2.156  18.918  0.00  0.00    +0.000 C 
ATOM     15  C   UNL     1       1.495   3.145  18.915  0.00  0.00    +0.000 C 
ATOM     16  C   UNL     1       1.931   4.599  18.737  0.00  0.00    +0.000 C 
ATOM     17  C   UNL     1       2.998   4.808  17.661  0.00  0.00    +0.000 C 
ENDBRANCH  11  12
ENDBRANCH   9  11
ENDBRANCH   3   9
ENDBRANCH   2   6
ENDBRANCH   1   2
BRANCH   1  18
ATOM     18  O   UNL     1      10.297  10.536  18.977  0.00  0.00    +0.000 OA
BRANCH  18  19
ATOM     19  C   UNL     1      10.358  11.964  18.911  0.00  0.00    +0.000 C 
ATOM     20  O   UNL     1       9.104  12.539  19.279  0.00  0.00    +0.000 OA
ATOM     21  C   UNL     1       9.131  13.965  19.365  0.00  0.00    +0.000 C 
ATOM     22  C   UNL     1       9.510  14.582  18.001  0.00  0.00    +0.000 C 
ATOM     23  C   UNL     1      10.853  14.012  17.526  0.00  0.00    +0.000 C 
ATOM     24  C   UNL     1      10.839  12.475  17.531  0.00  0.00    +0.000 C 
BRANCH  22  25
ATOM     25  O   UNL     1       9.547  16.012  18.104  0.00  0.00    +0.000 OA
ATOM     26  H   UNL     1      10.429  16.277  18.428  0.00  0.00    +0.000 HD
ENDBRANCH  22  25
BRANCH  23  27
ATOM     27  O   UNL     1      11.163  14.535  16.231  0.00  0.00    +0.000 OA
ATOM     28  H   UNL     1      12.009  15.017  16.284  0.00  0.00    +0.000 HD
ENDBRANCH  23  27
BRANCH  24  29
ATOM     29  O   UNL     1      12.135  11.969  17.184  0.00  0.00    +0.000 OA
ATOM     30  H   UNL     1      12.598  12.632  16.641  0.00  0.00    +0.000 HD
ENDBRANCH  24  29
BRANCH  21  31
ATOM     31  C   UNL     1       7.741  14.448  19.815  0.00  0.00    +0.000 C 
BRANCH  31  32
ATOM     32  O   UNL     1       7.585  14.432  21.229  0.00  0.00    +0.000 OA
ATOM     33  H   UNL     1       7.408  15.356  21.509  0.00  0.00    +0.000 HD
ENDBRANCH  31  32
ENDBRANCH  21  31
ENDBRANCH  18  19
ENDBRANCH   1  18
TORSDOF 12
ENDMDL
MODEL 3
REMARK VINA RESULT:      -7.8      5.683      8.614
REMARK  Name = 
REMARK  12 active torsions:
REMARK  status: ('A' for Active; 'I' for Inactive)
REMARK    1  A    between atoms: C_2  and  O_3
REMARK    2  A    between atoms: C_2  and  C_24
REMARK    3  A    between atoms: O_3  and  C_4
REMARK    4  A    between atoms: C_7  and  C_8
REMARK    5  A    between atoms: C_8  and  C_9
REMARK    6  A    between atoms: C_9  and  O_10
REMARK    7  A    between atoms: O_10  and  C_11
REMARK    8  A    between atoms: C_13  and  C_14
REMARK    9  A    between atoms: C_14  and  O_15
REMARK   10  A    between atoms: C_16  and  O_17
REMARK   11  A    between atoms: C_18  and  O_19
REMARK   12  A    between atoms: C_20  and  O_21
REMARK                            x       y       z     vdW  Elec       q    Type
REMARK                         _______ _______ _______ _____ _____    ______ ____
ROOT
ATOM      1  C   UNL     1       2.468   2.526  17.841  0.00  0.00    +0.000 C 
ENDROOT
BRANCH   1   2
ATOM      2  C   UNL     1       2.027   3.948  17.463  0.00  0.00    +0.000 C 
BRANCH   2   6
ATOM      3  C   UNL     1       1.937   7.240  20.253  0.00  0.00    +0.000 A 
ATOM      4  C   UNL     1       1.592   5.972  20.707  0.00  0.00    +0.000 A 
ATOM      5  C   UNL     1       1.679   4.877  19.836  0.00  0.00    +0.000 A 
ATOM      6  C   UNL     1       2.117   5.038  18.515  0.00  0.00    +0.000 A 
ATOM      7  C   UNL     1       2.583   6.305  18.122  0.00  0.00    +0.000 A 
ATOM      8  C   UNL     1       2.497   7.400  18.987  0.00  0.00    +0.000 A 
BRANCH   3   9
ATOM      9  O   UNL     1       1.718   8.437  20.975  0.00  0.00    +0.000 OA
BRANCH   9  11
ATOM     10  O   UNL     1      -0.562   8.583  21.468  0.00  0.00    +0.000 OA
ATOM     11  C   UNL     1       0.480   9.077  21.050  0.00  0.00    +0.000 C 
BRANCH  11  12
ATOM     12  C   UNL     1       0.547  10.523  20.548  0.00  0.00    +0.000 C 
ATOM     13  C   UNL     1       1.111  10.561  19.127  0.00  0.00    +0.000 C 
ATOM     14  C   UNL     1       0.101  10.005  18.130  0.00  0.00    +0.000 C 
ATOM     15  C   UNL     1      -1.191  10.815  18.151  0.00  0.00    +0.000 C 
ATOM     16  C   UNL     1      -1.776  10.995  19.552  0.00  0.00    +0.000 C 
ATOM     17  C   UNL     1      -0.744  11.344  20.625  0.00  0.00    +0.000 C 
ENDBRANCH  11  12
ENDBRANCH   9  11
ENDBRANCH   3   9
ENDBRANCH   2   6
ENDBRANCH   1   2
BRANCH   1  18
ATOM     18  O   UNL     1       3.859   2.341  17.570  0.00  0.00    +0.000 OA
BRANCH  18  19
ATOM     19  C   UNL     1       4.595   3.550  17.364  0.00  0.00    +0.000 C 
ATOM     20  O   UNL     1       5.178   3.569  16.060  0.00  0.00    +0.000 OA
ATOM     21  C   UNL     1       5.816   4.805  15.736  0.00  0.00    +0.000 C 
ATOM     22  C   UNL     1       6.961   5.099  16.729  0.00  0.00    +0.000 C 
ATOM     23  C   UNL     1       6.420   5.095  18.165  0.00  0.00    +0.000 C 
ATOM     24  C   UNL     1       5.653   3.797  18.466  0.00  0.00    +0.000 C 
BRANCH  22  25
ATOM     25  O   UNL     1       7.584   6.349  16.401  0.00  0.00    +0.000 OA
ATOM     26  H   UNL     1       8.356   6.474  16.986  0.00  0.00    +0.000 HD
ENDBRANCH  22  25
BRANCH  23  27
ATOM     27  O   UNL     1       7.499   5.299  19.083  0.00  0.00    +0.000 OA
ATOM     28  H   UNL     1       8.321   5.421  18.574  0.00  0.00    +0.000 HD
ENDBRANCH  23  27
BRANCH  24  29
ATOM     29  O   UNL     1       5.071   3.862  19.775  0.00  0.00    +0.000 OA
ATOM     30  H   UNL     1       4.276   4.424  19.741  0.00  0.00    +0.000 HD
ENDBRANCH  24  29
BRANCH  21  31
ATOM     31  C   UNL     1       6.353   4.708  14.296  0.00  0.00    +0.000 C 
BRANCH  31  32
ATOM     32  O   UNL     1       6.320   3.381  13.785  0.00  0.00    +0.000 OA
ATOM     33  H   UNL     1       6.408   3.446  12.810  0.00  0.00    +0.000 HD
ENDBRANCH  31  32
ENDBRANCH  21  31
ENDBRANCH  18  19
ENDBRANCH   1  18
TORSDOF 12
ENDMDL
MODEL 4
REMARK VINA RESULT:      -7.7      1.453      2.443
REMARK  Name = 
REMARK  12 active torsions:
REMARK  status: ('A' for Active; 'I' for Inactive)
REMARK    1  A    between atoms: C_2  and  O_3
REMARK    2  A    between atoms: C_2  and  C_24
REMARK    3  A    between atoms: O_3  and  C_4
REMARK    4  A    between atoms: C_7  and  C_8
REMARK    5  A    between atoms: C_8  and  C_9
REMARK    6  A    between atoms: C_9  and  O_10
REMARK    7  A    between atoms: O_10  and  C_11
REMARK    8  A    between atoms: C_13  and  C_14
REMARK    9  A    between atoms: C_14  and  O_15
REMARK   10  A    between atoms: C_16  and  O_17
REMARK   11  A    between atoms: C_18  and  O_19
REMARK   12  A    between atoms: C_20  and  O_21
REMARK                            x       y       z     vdW  Elec       q    Type
REMARK                         _______ _______ _______ _____ _____    ______ ____
ROOT
ATOM      1  C   UNL     1       8.454   9.813  17.792  0.00  0.00    +0.000 C 
ENDROOT
BRANCH   1   2
ATOM      2  C   UNL     1       8.649   8.497  18.561  0.00  0.00    +0.000 C 
BRANCH   2   6
ATOM      3  C   UNL     1       5.942   5.198  17.917  0.00  0.00    +0.000 A 
ATOM      4  C   UNL     1       5.851   6.307  17.085  0.00  0.00    +0.000 A 
ATOM      5  C   UNL     1       6.764   7.361  17.231  0.00  0.00    +0.000 A 
ATOM      6  C   UNL     1       7.774   7.311  18.201  0.00  0.00    +0.000 A 
ATOM      7  C   UNL     1       7.924   6.124  18.940  0.00  0.00    +0.000 A 
ATOM      8  C   UNL     1       7.016   5.071  18.797  0.00  0.00    +0.000 A 
BRANCH   3   9
ATOM      9  O   UNL     1       4.977   4.165  17.987  0.00  0.00    +0.000 OA
BRANCH   9  11
ATOM     10  O   UNL     1       4.770   2.762  19.844  0.00  0.00    +0.000 OA
ATOM     11  C   UNL     1       4.402   3.726  19.180  0.00  0.00    +0.000 C 
BRANCH  11  12
ATOM     12  C   UNL     1       3.221   4.603  19.608  0.00  0.00    +0.000 C 
ATOM     13  C   UNL     1       2.228   4.747  18.454  0.00  0.00    +0.000 C 
ATOM     14  C   UNL     1       1.484   3.440  18.214  0.00  0.00    +0.000 C 
ATOM     15  C   UNL     1       0.710   3.014  19.457  0.00  0.00    +0.000 C 
ATOM     16  C   UNL     1       1.560   2.989  20.727  0.00  0.00    +0.000 C 
ATOM     17  C   UNL     1       2.486   4.197  20.889  0.00  0.00    +0.000 C 
ENDBRANCH  11  12
ENDBRANCH   9  11
ENDBRANCH   3   9
ENDBRANCH   2   6
ENDBRANCH   1   2
BRANCH   1  18
ATOM     18  O   UNL     1       9.453  10.766  18.163  0.00  0.00    +0.000 OA
BRANCH  18  19
ATOM     19  C   UNL     1       8.964  11.889  18.903  0.00  0.00    +0.000 C 
ATOM     20  O   UNL     1       9.154  13.098  18.167  0.00  0.00    +0.000 OA
ATOM     21  C   UNL     1       8.569  14.244  18.788  0.00  0.00    +0.000 C 
ATOM     22  C   UNL     1       9.189  14.480  20.182  0.00  0.00    +0.000 C 
ATOM     23  C   UNL     1       9.032  13.220  21.044  0.00  0.00    +0.000 C 
ATOM     24  C   UNL     1       9.580  11.979  20.320  0.00  0.00    +0.000 C 
BRANCH  22  25
ATOM     25  O   UNL     1       8.584  15.624  20.799  0.00  0.00    +0.000 OA
ATOM     26  H   UNL     1       8.531  16.342  20.139  0.00  0.00    +0.000 HD
ENDBRANCH  22  25
BRANCH  23  27
ATOM     27  O   UNL     1       9.670  13.423  22.308  0.00  0.00    +0.000 OA
ATOM     28  H   UNL     1      10.055  14.318  22.322  0.00  0.00    +0.000 HD
ENDBRANCH  23  27
BRANCH  24  29
ATOM     29  O   UNL     1       9.327  10.803  21.100  0.00  0.00    +0.000 OA
ATOM     30  H   UNL     1       9.668  10.027  20.621  0.00  0.00    +0.000 HD
ENDBRANCH  24  29
BRANCH  21  31
ATOM     31  C   UNL     1       8.801  15.460  17.873  0.00  0.00    +0.000 C 
BRANCH  31  32
ATOM     32  O   UNL     1       7.805  16.464  18.031  0.00  0.00    +0.000 OA
ATOM     33  H   UNL     1       7.986  16.917  18.883  0.00  0.00    +0.000 HD
ENDBRANCH  31  32
ENDBRANCH  21  31
ENDBRANCH  18  19
ENDBRANCH   1  18
TORSDOF 12
ENDMDL
MODEL 5
REMARK VINA RESULT:      -7.7      5.787      9.581
REMARK  Name = 
REMARK  12 active torsions:
REMARK  status: ('A' for Active; 'I' for Inactive)
REMARK    1  A    between atoms: C_2  and  O_3
REMARK    2  A    between atoms: C_2  and  C_24
REMARK    3  A    between atoms: O_3  and  C_4
REMARK    4  A    between atoms: C_7  and  C_8
REMARK    5  A    between atoms: C_8  and  C_9
REMARK    6  A    between atoms: C_9  and  O_10
REMARK    7  A    between atoms: O_10  and  C_11
REMARK    8  A    between atoms: C_13  and  C_14
REMARK    9  A    between atoms: C_14  and  O_15
REMARK   10  A    between atoms: C_16  and  O_17
REMARK   11  A    between atoms: C_18  and  O_19
REMARK   12  A    between atoms: C_20  and  O_21
REMARK                            x       y       z     vdW  Elec       q    Type
REMARK                         _______ _______ _______ _____ _____    ______ ____
ROOT
ATOM      1  C   UNL     1       2.508   5.096  18.662  0.00  0.00    +0.000 C 
ENDROOT
BRANCH   1   2
ATOM      2  C   UNL     1       2.919   6.466  18.099  0.00  0.00    +0.000 C 
BRANCH   2   6
ATOM      3  C   UNL     1       0.768   9.900  19.583  0.00  0.00    +0.000 A 
ATOM      4  C   UNL     1       1.122   8.898  20.478  0.00  0.00    +0.000 A 
ATOM      5  C   UNL     1       1.879   7.806  20.032  0.00  0.00    +0.000 A 
ATOM      6  C   UNL     1       2.293   7.712  18.697  0.00  0.00    +0.000 A 
ATOM      7  C   UNL     1       2.034   8.801  17.846  0.00  0.00    +0.000 A 
ATOM      8  C   UNL     1       1.279   9.891  18.286  0.00  0.00    +0.000 A 
BRANCH   3   9
ATOM      9  O   UNL     1      -0.140  10.948  19.869  0.00  0.00    +0.000 OA
BRANCH   9  11
ATOM     10  O   UNL     1       0.220  11.638  22.072  0.00  0.00    +0.000 OA
ATOM     11  C   UNL     1       0.059  11.887  20.881  0.00  0.00    +0.000 C 
BRANCH  11  12
ATOM     12  C   UNL     1       0.068  13.321  20.344  0.00  0.00    +0.000 C 
ATOM     13  C   UNL     1       1.071  14.170  21.127  0.00  0.00    +0.000 C 
ATOM     14  C   UNL     1       2.500  13.774  20.780  0.00  0.00    +0.000 C 
ATOM     15  C   UNL     1       2.776  13.963  19.293  0.00  0.00    +0.000 C 
ATOM     16  C   UNL     1       1.739  13.295  18.390  0.00  0.00    +0.000 C 
ATOM     17  C   UNL     1       0.291  13.497  18.839  0.00  0.00    +0.000 C 
ENDBRANCH  11  12
ENDBRANCH   9  11
ENDBRANCH   3   9
ENDBRANCH   2   6
ENDBRANCH   1   2
BRANCH   1  18
ATOM     18  O   UNL     1       3.367   4.068  18.164  0.00  0.00    +0.000 OA
BRANCH  18  19
ATOM     19  C   UNL     1       4.506   4.539  17.438  0.00  0.00    +0.000 C 
ATOM     20  O   UNL     1       4.435   4.133  16.071  0.00  0.00    +0.000 OA
ATOM     21  C   UNL     1       5.472   4.681  15.256  0.00  0.00    +0.000 C 
ATOM     22  C   UNL     1       6.858   4.234  15.772  0.00  0.00    +0.000 C 
ATOM     23  C   UNL     1       7.019   4.631  17.245  0.00  0.00    +0.000 C 
ATOM     24  C   UNL     1       5.844   4.115  18.092  0.00  0.00    +0.000 C 
BRANCH  22  25
ATOM     25  O   UNL     1       7.890   4.802  14.954  0.00  0.00    +0.000 OA
ATOM     26  H   UNL     1       8.573   4.121  14.799  0.00  0.00    +0.000 HD
ENDBRANCH  22  25
BRANCH  23  27
ATOM     27  O   UNL     1       8.275   4.153  17.735  0.00  0.00    +0.000 OA
ATOM     28  H   UNL     1       8.205   3.192  17.885  0.00  0.00    +0.000 HD
ENDBRANCH  23  27
BRANCH  24  29
ATOM     29  O   UNL     1       5.964   4.586  19.441  0.00  0.00    +0.000 OA
ATOM     30  H   UNL     1       6.331   5.488  19.429  0.00  0.00    +0.000 HD
ENDBRANCH  24  29
BRANCH  21  31
ATOM     31  C   UNL     1       5.250   4.208  13.808  0.00  0.00    +0.000 C 
BRANCH  31  32
ATOM     32  O   UNL     1       6.223   3.261  13.383  0.00  0.00    +0.000 OA
ATOM     33  H   UNL     1       5.759   2.403  13.268  0.00  0.00    +0.000 HD
ENDBRANCH  31  32
ENDBRANCH  21  31
ENDBRANCH  18  19
ENDBRANCH   1  18
TORSDOF 12
ENDMDL
MODEL 6
REMARK VINA RESULT:      -7.7      6.859      9.403
REMARK  Name = 
REMARK  12 active torsions:
REMARK  status: ('A' for Active; 'I' for Inactive)
REMARK    1  A    between atoms: C_2  and  O_3
REMARK    2  A    between atoms: C_2  and  C_24
REMARK    3  A    between atoms: O_3  and  C_4
REMARK    4  A    between atoms: C_7  and  C_8
REMARK    5  A    between atoms: C_8  and  C_9
REMARK    6  A    between atoms: C_9  and  O_10
REMARK    7  A    between atoms: O_10  and  C_11
REMARK    8  A    between atoms: C_13  and  C_14
REMARK    9  A    between atoms: C_14  and  O_15
REMARK   10  A    between atoms: C_16  and  O_17
REMARK   11  A    between atoms: C_18  and  O_19
REMARK   12  A    between atoms: C_20  and  O_21
REMARK                            x       y       z     vdW  Elec       q    Type
REMARK                         _______ _______ _______ _____ _____    ______ ____
ROOT
ATOM      1  C   UNL     1       1.015  11.465  20.793  0.00  0.00    +0.000 C 
ENDROOT
BRANCH   1   2
ATOM      2  C   UNL     1       0.400  10.065  20.941  0.00  0.00    +0.000 C 
BRANCH   2   6
ATOM      3  C   UNL     1       2.630   6.996  18.884  0.00  0.00    +0.000 A 
ATOM      4  C   UNL     1       2.130   6.721  20.152  0.00  0.00    +0.000 A 
ATOM      5  C   UNL     1       1.346   7.677  20.810  0.00  0.00    +0.000 A 
ATOM      6  C   UNL     1       1.049   8.907  20.207  0.00  0.00    +0.000 A 
ATOM      7  C   UNL     1       1.456   9.107  18.876  0.00  0.00    +0.000 A 
ATOM      8  C   UNL     1       2.239   8.155  18.216  0.00  0.00    +0.000 A 
BRANCH   3   9
ATOM      9  O   UNL     1       3.575   6.193  18.202  0.00  0.00    +0.000 OA
BRANCH   9  11
ATOM     10  O   UNL     1       5.169   5.373  19.701  0.00  0.00    +0.000 OA
ATOM     11  C   UNL     1       4.332   5.198  18.821  0.00  0.00    +0.000 C 
BRANCH  11  12
ATOM     12  C   UNL     1       4.001   3.803  18.282  0.00  0.00    +0.000 C 
ATOM     13  C   UNL     1       3.910   2.802  19.434  0.00  0.00    +0.000 C 
ATOM     14  C   UNL     1       2.654   3.045  20.263  0.00  0.00    +0.000 C 
ATOM     15  C   UNL     1       1.399   2.903  19.409  0.00  0.00    +0.000 C 
ATOM     16  C   UNL     1       1.435   3.735  18.127  0.00  0.00    +0.000 C 
ATOM     17  C   UNL     1       2.769   3.683  17.380  0.00  0.00    +0.000 C 
ENDBRANCH  11  12
ENDBRANCH   9  11
ENDBRANCH   3   9
ENDBRANCH   2   6
ENDBRANCH   1   2
BRANCH   1  18
ATOM     18  O   UNL     1       0.272  12.246  19.854  0.00  0.00    +0.000 OA
BRANCH  18  19
ATOM     19  C   UNL     1      -1.047  11.761  19.583  0.00  0.00    +0.000 C 
ATOM     20  O   UNL     1      -1.148  11.302  18.235  0.00  0.00    +0.000 OA
ATOM     21  C   UNL     1      -2.399  10.682  17.934  0.00  0.00    +0.000 C 
ATOM     22  C   UNL     1      -3.561  11.677  18.144  0.00  0.00    +0.000 C 
ATOM     23  C   UNL     1      -3.526  12.226  19.576  0.00  0.00    +0.000 C 
ATOM     24  C   UNL     1      -2.142  12.803  19.917  0.00  0.00    +0.000 C 
BRANCH  22  25
ATOM     25  O   UNL     1      -4.811  11.038  17.851  0.00  0.00    +0.000 OA
ATOM     26  H   UNL     1      -5.434  11.712  17.518  0.00  0.00    +0.000 HD
ENDBRANCH  22  25
BRANCH  23  27
ATOM     27  O   UNL     1      -4.562  13.198  19.742  0.00  0.00    +0.000 OA
ATOM     28  H   UNL     1      -5.417  12.781  19.529  0.00  0.00    +0.000 HD
ENDBRANCH  23  27
BRANCH  24  29
ATOM     29  O   UNL     1      -2.104  13.214  21.290  0.00  0.00    +0.000 OA
ATOM     30  H   UNL     1      -3.014  13.371  21.599  0.00  0.00    +0.000 HD
ENDBRANCH  24  29
BRANCH  21  31
ATOM     31  C   UNL     1      -2.356  10.191  16.475  0.00  0.00    +0.000 C 
BRANCH  31  32
ATOM     32  O   UNL     1      -2.568  11.239  15.537  0.00  0.00    +0.000 OA
ATOM     33  H   UNL     1      -2.219  12.063  15.942  0.00  0.00    +0.000 HD
ENDBRANCH  31  32
ENDBRANCH  21  31
ENDBRANCH  18  19
ENDBRANCH   1  18
TORSDOF 12
ENDMDL
MODEL 7
REMARK VINA RESULT:      -7.7      7.672     10.463
REMARK  Name = 
REMARK  12 active torsions:
REMARK  status: ('A' for Active; 'I' for Inactive)
REMARK    1  A    between atoms: C_2  and  O_3
REMARK    2  A    between atoms: C_2  and  C_24
REMARK    3  A    between atoms: O_3  and  C_4
REMARK    4  A    between atoms: C_7  and  C_8
REMARK    5  A    between atoms: C_8  and  C_9
REMARK    6  A    between atoms: C_9  and  O_10
REMARK    7  A    between atoms: O_10  and  C_11
REMARK    8  A    between atoms: C_13  and  C_14
REMARK    9  A    between atoms: C_14  and  O_15
REMARK   10  A    between atoms: C_16  and  O_17
REMARK   11  A    between atoms: C_18  and  O_19
REMARK   12  A    between atoms: C_20  and  O_21
REMARK                            x       y       z     vdW  Elec       q    Type
REMARK                         _______ _______ _______ _____ _____    ______ ____
ROOT
ATOM      1  C   UNL     1      -1.019  10.742  19.288  0.00  0.00    +0.000 C 
ENDROOT
BRANCH   1   2
ATOM      2  C   UNL     1       0.466  10.783  18.896  0.00  0.00    +0.000 C 
BRANCH   2   6
ATOM      3  C   UNL     1       2.390   6.932  19.193  0.00  0.00    +0.000 A 
ATOM      4  C   UNL     1       2.542   7.664  18.022  0.00  0.00    +0.000 A 
ATOM      5  C   UNL     1       1.983   8.946  17.928  0.00  0.00    +0.000 A 
ATOM      6  C   UNL     1       1.278   9.506  19.002  0.00  0.00    +0.000 A 
ATOM      7  C   UNL     1       1.252   8.799  20.217  0.00  0.00    +0.000 A 
ATOM      8  C   UNL     1       1.808   7.521  20.314  0.00  0.00    +0.000 A 
BRANCH   3   9
ATOM      9  O   UNL     1       2.747   5.570  19.341  0.00  0.00    +0.000 OA
BRANCH   9  11
ATOM     10  O   UNL     1       1.696   4.424  17.597  0.00  0.00    +0.000 OA
ATOM     11  C   UNL     1       2.674   4.637  18.307  0.00  0.00    +0.000 C 
BRANCH  11  12
ATOM     12  C   UNL     1       3.990   3.875  18.124  0.00  0.00    +0.000 C 
ATOM     13  C   UNL     1       4.467   3.988  16.675  0.00  0.00    +0.000 C 
ATOM     14  C   UNL     1       4.961   5.398  16.377  0.00  0.00    +0.000 C 
ATOM     15  C   UNL     1       6.122   5.775  17.291  0.00  0.00    +0.000 C 
ATOM     16  C   UNL     1       5.831   5.549  18.774  0.00  0.00    +0.000 C 
ATOM     17  C   UNL     1       5.133   4.223  19.083  0.00  0.00    +0.000 C 
ENDBRANCH  11  12
ENDBRANCH   9  11
ENDBRANCH   3   9
ENDBRANCH   2   6
ENDBRANCH   1   2
BRANCH   1  18
ATOM     18  O   UNL     1      -1.555  12.065  19.374  0.00  0.00    +0.000 OA
BRANCH  18  19
ATOM     19  C   UNL     1      -2.848  12.227  18.783  0.00  0.00    +0.000 C 
ATOM     20  O   UNL     1      -3.875  11.950  19.736  0.00  0.00    +0.000 OA
ATOM     21  C   UNL     1      -5.192  12.222  19.253  0.00  0.00    +0.000 C 
ATOM     22  C   UNL     1      -5.502  11.355  18.014  0.00  0.00    +0.000 C 
ATOM     23  C   UNL     1      -4.438  11.589  16.933  0.00  0.00    +0.000 C 
ATOM     24  C   UNL     1      -3.021  11.387  17.495  0.00  0.00    +0.000 C 
BRANCH  22  25
ATOM     25  O   UNL     1      -6.821  11.647  17.531  0.00  0.00    +0.000 OA
ATOM     26  H   UNL     1      -7.457  11.071  17.998  0.00  0.00    +0.000 HD
ENDBRANCH  22  25
BRANCH  23  27
ATOM     27  O   UNL     1      -4.693  10.732  15.816  0.00  0.00    +0.000 OA
ATOM     28  H   UNL     1      -5.569  10.320  15.934  0.00  0.00    +0.000 HD
ENDBRANCH  23  27
BRANCH  24  29
ATOM     29  O   UNL     1      -2.045  11.713  16.496  0.00  0.00    +0.000 OA
ATOM     30  H   UNL     1      -2.341  12.502  16.010  0.00  0.00    +0.000 HD
ENDBRANCH  24  29
BRANCH  21  31
ATOM     31  C   UNL     1      -6.191  11.931  20.387  0.00  0.00    +0.000 C 
BRANCH  31  32
ATOM     32  O   UNL     1      -6.704  10.605  20.341  0.00  0.00    +0.000 OA
ATOM     33  H   UNL     1      -7.521  10.631  19.797  0.00  0.00    +0.000 HD
ENDBRANCH  31  32
ENDBRANCH  21  31
ENDBRANCH  18  19
ENDBRANCH   1  18
TORSDOF 12
ENDMDL
MODEL 8
REMARK VINA RESULT:      -7.6      1.859      2.675
REMARK  Name = 
REMARK  12 active torsions:
REMARK  status: ('A' for Active; 'I' for Inactive)
REMARK    1  A    between atoms: C_2  and  O_3
REMARK    2  A    between atoms: C_2  and  C_24
REMARK    3  A    between atoms: O_3  and  C_4
REMARK    4  A    between atoms: C_7  and  C_8
REMARK    5  A    between atoms: C_8  and  C_9
REMARK    6  A    between atoms: C_9  and  O_10
REMARK    7  A    between atoms: O_10  and  C_11
REMARK    8  A    between atoms: C_13  and  C_14
REMARK    9  A    between atoms: C_14  and  O_15
REMARK   10  A    between atoms: C_16  and  O_17
REMARK   11  A    between atoms: C_18  and  O_19
REMARK   12  A    between atoms: C_20  and  O_21
REMARK                            x       y       z     vdW  Elec       q    Type
REMARK                         _______ _______ _______ _____ _____    ______ ____
ROOT
ATOM      1  C   UNL     1       8.082   9.325  18.212  0.00  0.00    +0.000 C 
ENDROOT
BRANCH   1   2
ATOM      2  C   UNL     1       8.262   7.851  17.819  0.00  0.00    +0.000 C 
BRANCH   2   6
ATOM      3  C   UNL     1       4.970   5.072  17.561  0.00  0.00    +0.000 A 
ATOM      4  C   UNL     1       5.901   4.910  18.580  0.00  0.00    +0.000 A 
ATOM      5  C   UNL     1       6.939   5.839  18.725  0.00  0.00    +0.000 A 
ATOM      6  C   UNL     1       7.051   6.937  17.861  0.00  0.00    +0.000 A 
ATOM      7  C   UNL     1       6.025   7.149  16.924  0.00  0.00    +0.000 A 
ATOM      8  C   UNL     1       4.987   6.224  16.776  0.00  0.00    +0.000 A 
BRANCH   3   9
ATOM      9  O   UNL     1       3.995   4.111  17.204  0.00  0.00    +0.000 OA
BRANCH   9  11
ATOM     10  O   UNL     1       1.953   5.089  17.781  0.00  0.00    +0.000 OA
ATOM     11  C   UNL     1       2.691   4.112  17.701  0.00  0.00    +0.000 C 
BRANCH  11  12
ATOM     12  C   UNL     1       2.243   2.718  18.151  0.00  0.00    +0.000 C 
ATOM     13  C   UNL     1       3.332   2.066  19.004  0.00  0.00    +0.000 C 
ATOM     14  C   UNL     1       3.428   2.741  20.367  0.00  0.00    +0.000 C 
ATOM     15  C   UNL     1       2.107   2.640  21.122  0.00  0.00    +0.000 C 
ATOM     16  C   UNL     1       0.901   3.110  20.310  0.00  0.00    +0.000 C 
ATOM     17  C   UNL     1       0.889   2.621  18.860  0.00  0.00    +0.000 C 
ENDBRANCH  11  12
ENDBRANCH   9  11
ENDBRANCH   3   9
ENDBRANCH   2   6
ENDBRANCH   1   2
BRANCH   1  18
ATOM     18  O   UNL     1       9.142  10.122  17.678  0.00  0.00    +0.000 OA
BRANCH  18  19
ATOM     19  C   UNL     1       9.230  11.443  18.222  0.00  0.00    +0.000 C 
ATOM     20  O   UNL     1       8.225  12.287  17.659  0.00  0.00    +0.000 OA
ATOM     21  C   UNL     1       8.169  13.585  18.253  0.00  0.00    +0.000 C 
ATOM     22  C   UNL     1       9.512  14.323  18.068  0.00  0.00    +0.000 C 
ATOM     23  C   UNL     1      10.656  13.479  18.646  0.00  0.00    +0.000 C 
ATOM     24  C   UNL     1      10.644  12.055  18.067  0.00  0.00    +0.000 C 
BRANCH  22  25
ATOM     25  O   UNL     1       9.447  15.619  18.681  0.00  0.00    +0.000 OA
ATOM     26  H   UNL     1       8.574  16.011  18.485  0.00  0.00    +0.000 HD
ENDBRANCH  22  25
BRANCH  23  27
ATOM     27  O   UNL     1      11.904  14.138  18.409  0.00  0.00    +0.000 OA
ATOM     28  H   UNL     1      11.832  14.652  17.584  0.00  0.00    +0.000 HD
ENDBRANCH  23  27
BRANCH  24  29
ATOM     29  O   UNL     1      11.655  11.258  18.699  0.00  0.00    +0.000 OA
ATOM     30  H   UNL     1      11.578  11.357  19.665  0.00  0.00    +0.000 HD
ENDBRANCH  24  29
BRANCH  21  31
ATOM     31  C   UNL     1       7.019  14.368  17.594  0.00  0.00    +0.000 C 
BRANCH  31  32
ATOM     32  O   UNL     1       6.584  15.471  18.381  0.00  0.00    +0.000 OA
ATOM     33  H   UNL     1       6.625  15.188  19.320  0.00  0.00    +0.000 HD
ENDBRANCH  31  32
ENDBRANCH  21  31
ENDBRANCH  18  19
ENDBRANCH   1  18
TORSDOF 12
ENDMDL
MODEL 9
REMARK VINA RESULT:      -7.6      2.305     10.305
REMARK  Name = 
REMARK  12 active torsions:
REMARK  status: ('A' for Active; 'I' for Inactive)
REMARK    1  A    between atoms: C_2  and  O_3
REMARK    2  A    between atoms: C_2  and  C_24
REMARK    3  A    between atoms: O_3  and  C_4
REMARK    4  A    between atoms: C_7  and  C_8
REMARK    5  A    between atoms: C_8  and  C_9
REMARK    6  A    between atoms: C_9  and  O_10
REMARK    7  A    between atoms: O_10  and  C_11
REMARK    8  A    between atoms: C_13  and  C_14
REMARK    9  A    between atoms: C_14  and  O_15
REMARK   10  A    between atoms: C_16  and  O_17
REMARK   11  A    between atoms: C_18  and  O_19
REMARK   12  A    between atoms: C_20  and  O_21
REMARK                            x       y       z     vdW  Elec       q    Type
REMARK                         _______ _______ _______ _____ _____    ______ ____
ROOT
ATOM      1  C   UNL     1       7.725   8.544  17.568  0.00  0.00    +0.000 C 
ENDROOT
BRANCH   1   2
ATOM      2  C   UNL     1       8.678   8.790  18.748  0.00  0.00    +0.000 C 
BRANCH   2   6
ATOM      3  C   UNL     1      10.660  12.562  19.430  0.00  0.00    +0.000 A 
ATOM      4  C   UNL     1      10.319  12.214  18.128  0.00  0.00    +0.000 A 
ATOM      5  C   UNL     1       9.614  11.026  17.891  0.00  0.00    +0.000 A 
ATOM      6  C   UNL     1       9.240  10.185  18.947  0.00  0.00    +0.000 A 
ATOM      7  C   UNL     1       9.483  10.624  20.261  0.00  0.00    +0.000 A 
ATOM      8  C   UNL     1      10.185  11.808  20.502  0.00  0.00    +0.000 A 
BRANCH   3   9
ATOM      9  O   UNL     1      11.520  13.631  19.776  0.00  0.00    +0.000 OA
BRANCH   9  11
ATOM     10  O   UNL     1      12.327  14.851  17.953  0.00  0.00    +0.000 OA
ATOM     11  C   UNL     1      11.682  14.775  18.995  0.00  0.00    +0.000 C 
BRANCH  11  12
ATOM     12  C   UNL     1      10.941  15.982  19.578  0.00  0.00    +0.000 C 
ATOM     13  C   UNL     1      10.428  16.880  18.451  0.00  0.00    +0.000 C 
ATOM     14  C   UNL     1       9.270  16.217  17.716  0.00  0.00    +0.000 C 
ATOM     15  C   UNL     1       8.110  15.934  18.664  0.00  0.00    +0.000 C 
ATOM     16  C   UNL     1       8.522  15.179  19.927  0.00  0.00    +0.000 C 
ATOM     17  C   UNL     1       9.813  15.688  20.572  0.00  0.00    +0.000 C 
ENDBRANCH  11  12
ENDBRANCH   9  11
ENDBRANCH   3   9
ENDBRANCH   2   6
ENDBRANCH   1   2
BRANCH   1  18
ATOM     18  O   UNL     1       7.890   7.220  17.055  0.00  0.00    +0.000 OA
BRANCH  18  19
ATOM     19  C   UNL     1       6.717   6.402  17.121  0.00  0.00    +0.000 C 
ATOM     20  O   UNL     1       5.572   7.190  17.447  0.00  0.00    +0.000 OA
ATOM     21  C   UNL     1       4.343   6.463  17.398  0.00  0.00    +0.000 C 
ATOM     22  C   UNL     1       4.368   5.293  18.405  0.00  0.00    +0.000 C 
ATOM     23  C   UNL     1       5.578   4.390  18.128  0.00  0.00    +0.000 C 
ATOM     24  C   UNL     1       6.882   5.205  18.088  0.00  0.00    +0.000 C 
BRANCH  22  25
ATOM     25  O   UNL     1       3.136   4.562  18.337  0.00  0.00    +0.000 OA
ATOM     26  H   UNL     1       2.627   4.884  17.568  0.00  0.00    +0.000 HD
ENDBRANCH  22  25
BRANCH  23  27
ATOM     27  O   UNL     1       5.633   3.349  19.107  0.00  0.00    +0.000 OA
ATOM     28  H   UNL     1       5.644   3.756  19.993  0.00  0.00    +0.000 HD
ENDBRANCH  23  27
BRANCH  24  29
ATOM     29  O   UNL     1       7.980   4.358  17.725  0.00  0.00    +0.000 OA
ATOM     30  H   UNL     1       8.754   4.913  17.522  0.00  0.00    +0.000 HD
ENDBRANCH  24  29
BRANCH  21  31
ATOM     31  C   UNL     1       3.193   7.434  17.718  0.00  0.00    +0.000 C 
BRANCH  31  32
ATOM     32  O   UNL     1       2.626   7.210  19.003  0.00  0.00    +0.000 OA
ATOM     33  H   UNL     1       2.723   8.045  19.510  0.00  0.00    +0.000 HD
ENDBRANCH  31  32
ENDBRANCH  21  31
ENDBRANCH  18  19
ENDBRANCH   1  18
TORSDOF 12
ENDMDL
