MODEL 1
REMARK VINA RESULT:      -8.8      0.000      0.000
REMARK  Name = 
REMARK  5 active torsions:
REMARK  status: ('A' for Active; 'I' for Inactive)
REMARK    1  A    between atoms: C_1  and  C_2
REMARK    2  A    between atoms: C_3  and  C_4
REMARK    3  A    between atoms: C_6  and  C_7
REMARK    4  A    between atoms: N_21  and  C_22
REMARK    5  A    between atoms: C_22  and  C_23
REMARK                            x       y       z     vdW  Elec       q    Type
REMARK                         _______ _______ _______ _____ _____    ______ ____
ROOT
ATOM      1  C   UNL     1       5.248   7.261  17.504  0.00  0.00    +0.000 C 
ATOM      2  C   UNL     1       4.340   6.089  17.699  0.00  0.00    +0.000 A 
ATOM      3  C   UNL     1       2.972   6.045  17.943  0.00  0.00    +0.000 A 
ATOM      4  C   UNL     1       2.611   4.662  18.076  0.00  0.00    +0.000 A 
ATOM      5  C   UNL     1       1.386   4.003  18.314  0.00  0.00    +0.000 A 
ATOM      6  C   UNL     1       1.363   2.618  18.493  0.00  0.00    +0.000 A 
ATOM      7  C   UNL     1       2.547   1.891  18.465  0.00  0.00    +0.000 A 
ATOM      8  C   UNL     1       3.774   2.518  18.221  0.00  0.00    +0.000 A 
ATOM      9  C   UNL     1       3.780   3.907  18.002  0.00  0.00    +0.000 A 
ATOM     10  N   UNL     1       4.807   4.784  17.703  0.00  0.00    +0.000 N 
ENDROOT
BRANCH   3  11
ATOM     11  C   UNL     1       2.004   7.165  18.191  0.00  0.00    +0.000 C 
ATOM     12  C   UNL     1       1.883   7.421  19.674  0.00  0.00    +0.000 C 
ATOM     13  C   UNL     1       1.501   8.853  19.618  0.00  0.00    +0.000 C 
ATOM     14  N   UNL     1       1.777   9.441  18.494  0.00  0.00    +0.000 NA
ATOM     15  O   UNL     1       2.362   8.449  17.651  0.00  0.00    +0.000 OA
BRANCH  13  16
ATOM     16  C   UNL     1       0.896   9.522  20.786  0.00  0.00    +0.000 A 
ATOM     17  C   UNL     1       0.839   8.875  22.025  0.00  0.00    +0.000 A 
ATOM     18  C   UNL     1       0.236   9.538  23.078  0.00  0.00    +0.000 A 
ATOM     19  N   UNL     1      -0.292  10.773  22.977  0.00  0.00    +0.000 NA
ATOM     20  C   UNL     1      -0.208  11.380  21.772  0.00  0.00    +0.000 A 
ATOM     21  C   UNL     1       0.370  10.802  20.657  0.00  0.00    +0.000 A 
ENDBRANCH  13  16
ENDBRANCH   3  11
BRANCH  10  22
ATOM     22  C   UNL     1       6.182   4.374  17.399  0.00  0.00    +0.000 C 
BRANCH  22  23
ATOM     23  C   UNL     1       6.547   4.388  15.928  0.00  0.00    +0.000 A 
ATOM     24  C   UNL     1       7.564   5.191  15.388  0.00  0.00    +0.000 A 
ATOM     25  C   UNL     1       7.767   5.253  14.006  0.00  0.00    +0.000 A 
ATOM     26  C   UNL     1       6.977   4.489  13.152  0.00  0.00    +0.000 A 
ATOM     27 CL   UNL     1       7.178   4.625  11.449  0.00  0.00    +0.000 Cl
ATOM     28  C   UNL     1       6.011   3.632  13.670  0.00  0.00    +0.000 A 
ATOM     29  C   UNL     1       5.801   3.578  15.051  0.00  0.00    +0.000 A 
ENDBRANCH  22  23
ENDBRANCH  10  22
TORSDOF 4
ENDMDL
MODEL 2
REMARK VINA RESULT:      -8.7      1.209      1.731
REMARK  Name = 
REMARK  5 active torsions:
REMARK  status: ('A' for Active; 'I' for Inactive)
REMARK    1  A    between atoms: C_1  and  C_2
REMARK    2  A    between atoms: C_3  and  C_4
REMARK    3  A    between atoms: C_6  and  C_7
REMARK    4  A    between atoms: N_21  and  C_22
REMARK    5  A    between atoms: C_22  and  C_23
REMARK                            x       y       z     vdW  Elec       q    Type
REMARK                         _______ _______ _______ _____ _____    ______ ____
ROOT
ATOM      1  C   UNL     1       4.623   7.257  17.450  0.00  0.00    +0.000 C 
ATOM      2  C   UNL     1       3.905   6.229  18.263  0.00  0.00    +0.000 A 
ATOM      3  C   UNL     1       2.636   6.258  18.830  0.00  0.00    +0.000 A 
ATOM      4  C   UNL     1       2.457   5.017  19.529  0.00  0.00    +0.000 A 
ATOM      5  C   UNL     1       1.388   4.475  20.276  0.00  0.00    +0.000 A 
ATOM      6  C   UNL     1       1.548   3.255  20.936  0.00  0.00    +0.000 A 
ATOM      7  C   UNL     1       2.765   2.585  20.882  0.00  0.00    +0.000 A 
ATOM      8  C   UNL     1       3.837   3.095  20.141  0.00  0.00    +0.000 A 
ATOM      9  C   UNL     1       3.652   4.305  19.448  0.00  0.00    +0.000 A 
ATOM     10  N   UNL     1       4.493   5.024  18.617  0.00  0.00    +0.000 N 
ENDROOT
BRANCH   3  11
ATOM     11  C   UNL     1       1.636   7.376  18.891  0.00  0.00    +0.000 C 
ATOM     12  C   UNL     1       1.483   7.851  20.316  0.00  0.00    +0.000 C 
ATOM     13  C   UNL     1       1.067   9.247  20.037  0.00  0.00    +0.000 C 
ATOM     14  N   UNL     1       1.349   9.665  18.840  0.00  0.00    +0.000 NA
ATOM     15  O   UNL     1       1.973   8.572  18.167  0.00  0.00    +0.000 OA
BRANCH  13  16
ATOM     16  C   UNL     1       0.424  10.070  21.080  0.00  0.00    +0.000 A 
ATOM     17  C   UNL     1       0.324  11.457  20.929  0.00  0.00    +0.000 A 
ATOM     18  C   UNL     1      -0.262  12.182  21.950  0.00  0.00    +0.000 A 
ATOM     19  N   UNL     1      -0.747  11.625  23.077  0.00  0.00    +0.000 NA
ATOM     20  C   UNL     1      -0.651  10.281  23.188  0.00  0.00    +0.000 A 
ATOM     21  C   UNL     1      -0.079   9.468  22.227  0.00  0.00    +0.000 A 
ENDBRANCH  13  16
ENDBRANCH   3  11
BRANCH  10  22
ATOM     22  C   UNL     1       5.801   4.550  18.156  0.00  0.00    +0.000 C 
BRANCH  22  23
ATOM     23  C   UNL     1       5.968   4.484  16.651  0.00  0.00    +0.000 A 
ATOM     24  C   UNL     1       5.009   3.933  15.786  0.00  0.00    +0.000 A 
ATOM     25  C   UNL     1       5.278   3.786  14.421  0.00  0.00    +0.000 A 
ATOM     26  C   UNL     1       6.495   4.217  13.902  0.00  0.00    +0.000 A 
ATOM     27 CL   UNL     1       6.853   3.966  12.238  0.00  0.00    +0.000 Cl
ATOM     28  C   UNL     1       7.431   4.831  14.728  0.00  0.00    +0.000 A 
ATOM     29  C   UNL     1       7.167   4.968  16.094  0.00  0.00    +0.000 A 
ENDBRANCH  22  23
ENDBRANCH  10  22
TORSDOF 4
ENDMDL
MODEL 3
REMARK VINA RESULT:      -8.1      4.678     10.179
REMARK  Name = 
REMARK  5 active torsions:
REMARK  status: ('A' for Active; 'I' for Inactive)
REMARK    1  A    between atoms: C_1  and  C_2
REMARK    2  A    between atoms: C_3  and  C_4
REMARK    3  A    between atoms: C_6  and  C_7
REMARK    4  A    between atoms: N_21  and  C_22
REMARK    5  A    between atoms: C_22  and  C_23
REMARK                            x       y       z     vdW  Elec       q    Type
REMARK                         _______ _______ _______ _____ _____    ______ ____
ROOT
ATOM      1  C   UNL     1       1.431  12.639  20.638  0.00  0.00    +0.000 C 
ATOM      2  C   UNL     1       0.414  11.968  19.771  0.00  0.00    +0.000 A 
ATOM      3  C   UNL     1       0.513  10.817  18.998  0.00  0.00    +0.000 A 
ATOM      4  C   UNL     1      -0.752  10.636  18.346  0.00  0.00    +0.000 A 
ATOM      5  C   UNL     1      -1.250   9.656  17.459  0.00  0.00    +0.000 A 
ATOM      6  C   UNL     1      -2.522   9.802  16.903  0.00  0.00    +0.000 A 
ATOM      7  C   UNL     1      -3.289  10.923  17.196  0.00  0.00    +0.000 A 
ATOM      8  C   UNL     1      -2.823  11.905  18.079  0.00  0.00    +0.000 A 
ATOM      9  C   UNL     1      -1.558  11.727  18.665  0.00  0.00    +0.000 A 
ATOM     10  N   UNL     1      -0.858  12.487  19.586  0.00  0.00    +0.000 N 
ENDROOT
BRANCH   3  11
ATOM     11  C   UNL     1       1.707   9.954  18.709  0.00  0.00    +0.000 C 
ATOM     12  C   UNL     1       1.542   8.609  19.376  0.00  0.00    +0.000 C 
ATOM     13  C   UNL     1       2.378   7.804  18.453  0.00  0.00    +0.000 C 
ATOM     14  N   UNL     1       2.594   8.358  17.299  0.00  0.00    +0.000 NA
ATOM     15  O   UNL     1       1.937   9.624  17.328  0.00  0.00    +0.000 OA
BRANCH  13  16
ATOM     16  C   UNL     1       2.869   6.468  18.844  0.00  0.00    +0.000 A 
ATOM     17  C   UNL     1       2.300   5.792  19.930  0.00  0.00    +0.000 A 
ATOM     18  C   UNL     1       2.817   4.556  20.269  0.00  0.00    +0.000 A 
ATOM     19  N   UNL     1       3.831   3.965  19.608  0.00  0.00    +0.000 NA
ATOM     20  C   UNL     1       4.350   4.634  18.554  0.00  0.00    +0.000 A 
ATOM     21  C   UNL     1       3.908   5.875  18.137  0.00  0.00    +0.000 A 
ENDBRANCH  13  16
ENDBRANCH   3  11
BRANCH  10  22
ATOM     22  C   UNL     1      -1.410  13.651  20.286  0.00  0.00    +0.000 C 
BRANCH  22  23
ATOM     23  C   UNL     1      -2.205  13.332  21.537  0.00  0.00    +0.000 A 
ATOM     24  C   UNL     1      -1.899  12.272  22.404  0.00  0.00    +0.000 A 
ATOM     25  C   UNL     1      -2.745  11.953  23.470  0.00  0.00    +0.000 A 
ATOM     26  C   UNL     1      -3.891  12.708  23.699  0.00  0.00    +0.000 A 
ATOM     27 CL   UNL     1      -4.970  12.267  24.964  0.00  0.00    +0.000 Cl
ATOM     28  C   UNL     1      -4.177  13.808  22.895  0.00  0.00    +0.000 A 
ATOM     29  C   UNL     1      -3.336  14.120  21.823  0.00  0.00    +0.000 A 
ENDBRANCH  22  23
ENDBRANCH  10  22
TORSDOF 4
ENDMDL
MODEL 4
REMARK VINA RESULT:      -8.1      4.742     10.270
REMARK  Name = 
REMARK  5 active torsions:
REMARK  status: ('A' for Active; 'I' for Inactive)
REMARK    1  A    between atoms: C_1  and  C_2
REMARK    2  A    between atoms: C_3  and  C_4
REMARK    3  A    between atoms: C_6  and  C_7
REMARK    4  A    between atoms: N_21  and  C_22
REMARK    5  A    between atoms: C_22  and  C_23
REMARK                            x       y       z     vdW  Elec       q    Type
REMARK                         _______ _______ _______ _____ _____    ______ ____
ROOT
ATOM      1  C   UNL     1       1.133  12.620  20.712  0.00  0.00    +0.000 C 
ATOM      2  C   UNL     1       0.177  11.936  19.788  0.00  0.00    +0.000 A 
ATOM      3  C   UNL     1       0.350  10.812  18.989  0.00  0.00    +0.000 A 
ATOM      4  C   UNL     1      -0.882  10.602  18.283  0.00  0.00    +0.000 A 
ATOM      5  C   UNL     1      -1.308   9.630  17.352  0.00  0.00    +0.000 A 
ATOM      6  C   UNL     1      -2.562   9.744  16.749  0.00  0.00    +0.000 A 
ATOM      7  C   UNL     1      -3.382  10.827  17.042  0.00  0.00    +0.000 A 
ATOM      8  C   UNL     1      -2.989  11.800  17.969  0.00  0.00    +0.000 A 
ATOM      9  C   UNL     1      -1.741  11.653  18.600  0.00  0.00    +0.000 A 
ATOM     10  N   UNL     1      -1.106  12.412  19.568  0.00  0.00    +0.000 N 
ENDROOT
BRANCH   3  11
ATOM     11  C   UNL     1       1.586  10.002  18.724  0.00  0.00    +0.000 C 
ATOM     12  C   UNL     1       1.462   8.647  19.378  0.00  0.00    +0.000 C 
ATOM     13  C   UNL     1       2.354   7.885  18.471  0.00  0.00    +0.000 C 
ATOM     14  N   UNL     1       2.574   8.456  17.326  0.00  0.00    +0.000 NA
ATOM     15  O   UNL     1       1.863   9.693  17.347  0.00  0.00    +0.000 OA
BRANCH  13  16
ATOM     16  C   UNL     1       2.891   6.568  18.865  0.00  0.00    +0.000 A 
ATOM     17  C   UNL     1       3.991   6.020  18.197  0.00  0.00    +0.000 A 
ATOM     18  C   UNL     1       4.435   4.771  18.590  0.00  0.00    +0.000 A 
ATOM     19  N   UNL     1       3.871   4.058  19.584  0.00  0.00    +0.000 NA
ATOM     20  C   UNL     1       2.820   4.620  20.223  0.00  0.00    +0.000 A 
ATOM     21  C   UNL     1       2.298   5.859  19.903  0.00  0.00    +0.000 A 
ENDBRANCH  13  16
ENDBRANCH   3  11
BRANCH  10  22
ATOM     22  C   UNL     1      -1.730  13.534  20.276  0.00  0.00    +0.000 C 
BRANCH  22  23
ATOM     23  C   UNL     1      -2.721  13.144  21.354  0.00  0.00    +0.000 A 
ATOM     24  C   UNL     1      -4.101  13.388  21.266  0.00  0.00    +0.000 A 
ATOM     25  C   UNL     1      -4.945  13.120  22.348  0.00  0.00    +0.000 A 
ATOM     26  C   UNL     1      -4.424  12.576  23.518  0.00  0.00    +0.000 A 
ATOM     27 CL   UNL     1      -5.451  12.318  24.873  0.00  0.00    +0.000 Cl
ATOM     28  C   UNL     1      -3.072  12.259  23.602  0.00  0.00    +0.000 A 
ATOM     29  C   UNL     1      -2.226  12.538  22.523  0.00  0.00    +0.000 A 
ENDBRANCH  22  23
ENDBRANCH  10  22
TORSDOF 4
ENDMDL
MODEL 5
REMARK VINA RESULT:      -7.9      1.714      2.423
REMARK  Name = 
REMARK  5 active torsions:
REMARK  status: ('A' for Active; 'I' for Inactive)
REMARK    1  A    between atoms: C_1  and  C_2
REMARK    2  A    between atoms: C_3  and  C_4
REMARK    3  A    between atoms: C_6  and  C_7
REMARK    4  A    between atoms: N_21  and  C_22
REMARK    5  A    between atoms: C_22  and  C_23
REMARK                            x       y       z     vdW  Elec       q    Type
REMARK                         _______ _______ _______ _____ _____    ______ ____
ROOT
ATOM      1  C   UNL     1       6.094   7.185  17.644  0.00  0.00    +0.000 C 
ATOM      2  C   UNL     1       4.922   6.261  17.736  0.00  0.00    +0.000 A 
ATOM      3  C   UNL     1       3.615   6.506  18.141  0.00  0.00    +0.000 A 
ATOM      4  C   UNL     1       2.908   5.260  18.063  0.00  0.00    +0.000 A 
ATOM      5  C   UNL     1       1.572   4.889  18.332  0.00  0.00    +0.000 A 
ATOM      6  C   UNL     1       1.193   3.547  18.255  0.00  0.00    +0.000 A 
ATOM      7  C   UNL     1       2.132   2.572  17.943  0.00  0.00    +0.000 A 
ATOM      8  C   UNL     1       3.460   2.914  17.662  0.00  0.00    +0.000 A 
ATOM      9  C   UNL     1       3.822   4.272  17.702  0.00  0.00    +0.000 A 
ATOM     10  N   UNL     1       5.021   4.911  17.440  0.00  0.00    +0.000 N 
ENDROOT
BRANCH   3  11
ATOM     11  C   UNL     1       3.005   7.752  18.713  0.00  0.00    +0.000 C 
ATOM     12  C   UNL     1       1.935   8.275  17.784  0.00  0.00    +0.000 C 
ATOM     13  C   UNL     1       1.098   8.976  18.788  0.00  0.00    +0.000 C 
ATOM     14  N   UNL     1       1.298   8.601  20.014  0.00  0.00    +0.000 NA
ATOM     15  O   UNL     1       2.323   7.609  19.972  0.00  0.00    +0.000 OA
BRANCH  13  16
ATOM     16  C   UNL     1       0.101   9.983  18.373  0.00  0.00    +0.000 A 
ATOM     17  C   UNL     1       0.213  11.310  18.800  0.00  0.00    +0.000 A 
ATOM     18  C   UNL     1      -0.764  12.205  18.404  0.00  0.00    +0.000 A 
ATOM     19  N   UNL     1      -1.811  11.870  17.625  0.00  0.00    +0.000 NA
ATOM     20  C   UNL     1      -1.884  10.583  17.215  0.00  0.00    +0.000 A 
ATOM     21  C   UNL     1      -0.962   9.612  17.559  0.00  0.00    +0.000 A 
ENDBRANCH  13  16
ENDBRANCH   3  11
BRANCH  10  22
ATOM     22  C   UNL     1       6.208   4.246  16.892  0.00  0.00    +0.000 C 
BRANCH  22  23
ATOM     23  C   UNL     1       6.355   4.329  15.386  0.00  0.00    +0.000 A 
ATOM     24  C   UNL     1       5.517   3.654  14.485  0.00  0.00    +0.000 A 
ATOM     25  C   UNL     1       5.783   3.670  13.112  0.00  0.00    +0.000 A 
ATOM     26  C   UNL     1       6.871   4.386  12.623  0.00  0.00    +0.000 A 
ATOM     27 CL   UNL     1       7.240   4.341  10.944  0.00  0.00    +0.000 Cl
ATOM     28  C   UNL     1       7.673   5.121  13.490  0.00  0.00    +0.000 A 
ATOM     29  C   UNL     1       7.413   5.097  14.864  0.00  0.00    +0.000 A 
ENDBRANCH  22  23
ENDBRANCH  10  22
TORSDOF 4
ENDMDL
MODEL 6
REMARK VINA RESULT:      -7.9      1.147      1.232
REMARK  Name = 
REMARK  5 active torsions:
REMARK  status: ('A' for Active; 'I' for Inactive)
REMARK    1  A    between atoms: C_1  and  C_2
REMARK    2  A    between atoms: C_3  and  C_4
REMARK    3  A    between atoms: C_6  and  C_7
REMARK    4  A    between atoms: N_21  and  C_22
REMARK    5  A    between atoms: C_22  and  C_23
REMARK                            x       y       z     vdW  Elec       q    Type
REMARK                         _______ _______ _______ _____ _____    ______ ____
ROOT
ATOM      1  C   UNL     1       4.937   7.359  17.027  0.00  0.00    +0.000 C 
ATOM      2  C   UNL     1       4.134   6.388  17.831  0.00  0.00    +0.000 A 
ATOM      3  C   UNL     1       2.816   6.457  18.267  0.00  0.00    +0.000 A 
ATOM      4  C   UNL     1       2.558   5.266  19.024  0.00  0.00    +0.000 A 
ATOM      5  C   UNL     1       1.415   4.776  19.695  0.00  0.00    +0.000 A 
ATOM      6  C   UNL     1       1.498   3.602  20.446  0.00  0.00    +0.000 A 
ATOM      7  C   UNL     1       2.708   2.928  20.557  0.00  0.00    +0.000 A 
ATOM      8  C   UNL     1       3.853   3.385  19.894  0.00  0.00    +0.000 A 
ATOM      9  C   UNL     1       3.748   4.547  19.108  0.00  0.00    +0.000 A 
ATOM     10  N   UNL     1       4.673   5.208  18.319  0.00  0.00    +0.000 N 
ENDROOT
BRANCH   3  11
ATOM     11  C   UNL     1       1.825   7.579  18.155  0.00  0.00    +0.000 C 
ATOM     12  C   UNL     1       1.483   8.102  19.530  0.00  0.00    +0.000 C 
ATOM     13  C   UNL     1       1.119   9.489  19.151  0.00  0.00    +0.000 C 
ATOM     14  N   UNL     1       1.563   9.866  17.991  0.00  0.00    +0.000 NA
ATOM     15  O   UNL     1       2.265   8.750  17.444  0.00  0.00    +0.000 OA
BRANCH  13  16
ATOM     16  C   UNL     1       0.347  10.348  20.070  0.00  0.00    +0.000 A 
ATOM     17  C   UNL     1       0.569  10.291  21.450  0.00  0.00    +0.000 A 
ATOM     18  C   UNL     1      -0.201  11.098  22.267  0.00  0.00    +0.000 A 
ATOM     19  N   UNL     1      -1.147  11.939  21.806  0.00  0.00    +0.000 NA
ATOM     20  C   UNL     1      -1.328  11.985  20.467  0.00  0.00    +0.000 A 
ATOM     21  C   UNL     1      -0.614  11.216  19.566  0.00  0.00    +0.000 A 
ENDBRANCH  13  16
ENDBRANCH   3  11
BRANCH  10  22
ATOM     22  C   UNL     1       6.016   4.701  18.022  0.00  0.00    +0.000 C 
BRANCH  22  23
ATOM     23  C   UNL     1       6.306   4.467  16.553  0.00  0.00    +0.000 A 
ATOM     24  C   UNL     1       7.399   5.031  15.876  0.00  0.00    +0.000 A 
ATOM     25  C   UNL     1       7.539   4.880  14.493  0.00  0.00    +0.000 A 
ATOM     26  C   UNL     1       6.604   4.139  13.777  0.00  0.00    +0.000 A 
ATOM     27 CL   UNL     1       6.737   4.020  12.066  0.00  0.00    +0.000 Cl
ATOM     28  C   UNL     1       5.552   3.512  14.436  0.00  0.00    +0.000 A 
ATOM     29  C   UNL     1       5.406   3.672  15.818  0.00  0.00    +0.000 A 
ENDBRANCH  22  23
ENDBRANCH  10  22
TORSDOF 4
ENDMDL
MODEL 7
REMARK VINA RESULT:      -7.5      2.031      2.639
REMARK  Name = 
REMARK  5 active torsions:
REMARK  status: ('A' for Active; 'I' for Inactive)
REMARK    1  A    between atoms: C_1  and  C_2
REMARK    2  A    between atoms: C_3  and  C_4
REMARK    3  A    between atoms: C_6  and  C_7
REMARK    4  A    between atoms: N_21  and  C_22
REMARK    5  A    between atoms: C_22  and  C_23
REMARK                            x       y       z     vdW  Elec       q    Type
REMARK                         _______ _______ _______ _____ _____    ______ ____
ROOT
ATOM      1  C   UNL     1       5.402   7.022  17.909  0.00  0.00    +0.000 C 
ATOM      2  C   UNL     1       4.310   6.170  18.472  0.00  0.00    +0.000 A 
ATOM      3  C   UNL     1       3.083   6.528  19.017  0.00  0.00    +0.000 A 
ATOM      4  C   UNL     1       2.433   5.315  19.428  0.00  0.00    +0.000 A 
ATOM      5  C   UNL     1       1.183   5.044  20.027  0.00  0.00    +0.000 A 
ATOM      6  C   UNL     1       0.862   3.740  20.407  0.00  0.00    +0.000 A 
ATOM      7  C   UNL     1       1.779   2.713  20.224  0.00  0.00    +0.000 A 
ATOM      8  C   UNL     1       3.020   2.952  19.624  0.00  0.00    +0.000 A 
ATOM      9  C   UNL     1       3.318   4.261  19.208  0.00  0.00    +0.000 A 
ATOM     10  N   UNL     1       4.421   4.791  18.563  0.00  0.00    +0.000 N 
ENDROOT
BRANCH   3  11
ATOM     11  C   UNL     1       2.520   7.889  19.307  0.00  0.00    +0.000 C 
ATOM     12  C   UNL     1       1.461   8.236  18.289  0.00  0.00    +0.000 C 
ATOM     13  C   UNL     1       0.658   9.167  19.119  0.00  0.00    +0.000 C 
ATOM     14  N   UNL     1       0.857   9.058  20.397  0.00  0.00    +0.000 NA
ATOM     15  O   UNL     1       1.846   8.044  20.568  0.00  0.00    +0.000 OA
BRANCH  13  16
ATOM     16  C   UNL     1      -0.307  10.096  18.499  0.00  0.00    +0.000 A 
ATOM     17  C   UNL     1      -1.285   9.620  17.618  0.00  0.00    +0.000 A 
ATOM     18  C   UNL     1      -2.145  10.538  17.045  0.00  0.00    +0.000 A 
ATOM     19  N   UNL     1      -2.097  11.861  17.293  0.00  0.00    +0.000 NA
ATOM     20  C   UNL     1      -1.152  12.290  18.160  0.00  0.00    +0.000 A 
ATOM     21  C   UNL     1      -0.243  11.455  18.782  0.00  0.00    +0.000 A 
ENDBRANCH  13  16
ENDBRANCH   3  11
BRANCH  10  22
ATOM     22  C   UNL     1       5.526   3.991  18.025  0.00  0.00    +0.000 C 
BRANCH  22  23
ATOM     23  C   UNL     1       5.828   4.215  16.556  0.00  0.00    +0.000 A 
ATOM     24  C   UNL     1       4.917   3.937  15.525  0.00  0.00    +0.000 A 
ATOM     25  C   UNL     1       5.300   4.045  14.185  0.00  0.00    +0.000 A 
ATOM     26  C   UNL     1       6.588   4.460  13.861  0.00  0.00    +0.000 A 
ATOM     27 CL   UNL     1       7.081   4.518  12.214  0.00  0.00    +0.000 Cl
ATOM     28  C   UNL     1       7.485   4.809  14.866  0.00  0.00    +0.000 A 
ATOM     29  C   UNL     1       7.105   4.691  16.206  0.00  0.00    +0.000 A 
ENDBRANCH  22  23
ENDBRANCH  10  22
TORSDOF 4
ENDMDL
MODEL 8
REMARK VINA RESULT:      -7.4      4.381      9.259
REMARK  Name = 
REMARK  5 active torsions:
REMARK  status: ('A' for Active; 'I' for Inactive)
REMARK    1  A    between atoms: C_1  and  C_2
REMARK    2  A    between atoms: C_3  and  C_4
REMARK    3  A    between atoms: C_6  and  C_7
REMARK    4  A    between atoms: N_21  and  C_22
REMARK    5  A    between atoms: C_22  and  C_23
REMARK                            x       y       z     vdW  Elec       q    Type
REMARK                         _______ _______ _______ _____ _____    ______ ____
ROOT
ATOM      1  C   UNL     1       0.989  10.185  17.560  0.00  0.00    +0.000 C 
ATOM      2  C   UNL     1       0.728  10.101  19.029  0.00  0.00    +0.000 A 
ATOM      3  C   UNL     1       1.245   9.232  19.984  0.00  0.00    +0.000 A 
ATOM      4  C   UNL     1       0.637   9.574  21.239  0.00  0.00    +0.000 A 
ATOM      5  C   UNL     1       0.772   9.061  22.548  0.00  0.00    +0.000 A 
ATOM      6  C   UNL     1      -0.044   9.546  23.572  0.00  0.00    +0.000 A 
ATOM      7  C   UNL     1      -1.006  10.511  23.302  0.00  0.00    +0.000 A 
ATOM      8  C   UNL     1      -1.153  11.043  22.016  0.00  0.00    +0.000 A 
ATOM      9  C   UNL     1      -0.300  10.577  21.000  0.00  0.00    +0.000 A 
ATOM     10  N   UNL     1      -0.179  10.931  19.668  0.00  0.00    +0.000 N 
ENDROOT
BRANCH   3  11
ATOM     11  C   UNL     1       2.144   8.042  19.814  0.00  0.00    +0.000 C 
ATOM     12  C   UNL     1       1.337   6.770  19.919  0.00  0.00    +0.000 C 
ATOM     13  C   UNL     1       2.202   5.895  19.091  0.00  0.00    +0.000 C 
ATOM     14  N   UNL     1       3.019   6.529  18.307  0.00  0.00    +0.000 NA
ATOM     15  O   UNL     1       2.808   7.921  18.544  0.00  0.00    +0.000 OA
BRANCH  13  16
ATOM     16  C   UNL     1       2.077   4.425  19.156  0.00  0.00    +0.000 A 
ATOM     17  C   UNL     1       2.486   3.629  18.080  0.00  0.00    +0.000 A 
ATOM     18  C   UNL     1       2.320   2.261  18.184  0.00  0.00    +0.000 A 
ATOM     19  N   UNL     1       1.794   1.653  19.265  0.00  0.00    +0.000 NA
ATOM     20  C   UNL     1       1.422   2.446  20.295  0.00  0.00    +0.000 A 
ATOM     21  C   UNL     1       1.542   3.824  20.289  0.00  0.00    +0.000 A 
ENDBRANCH  13  16
ENDBRANCH   3  11
BRANCH  10  22
ATOM     22  C   UNL     1      -0.889  12.052  19.045  0.00  0.00    +0.000 C 
BRANCH  22  23
ATOM     23  C   UNL     1      -2.373  11.835  18.830  0.00  0.00    +0.000 A 
ATOM     24  C   UNL     1      -3.371  12.497  19.563  0.00  0.00    +0.000 A 
ATOM     25  C   UNL     1      -4.718  12.159  19.405  0.00  0.00    +0.000 A 
ATOM     26  C   UNL     1      -5.085  11.176  18.491  0.00  0.00    +0.000 A 
ATOM     27 CL   UNL     1      -6.735  10.709  18.354  0.00  0.00    +0.000 Cl
ATOM     28  C   UNL     1      -4.121  10.557  17.702  0.00  0.00    +0.000 A 
ATOM     29  C   UNL     1      -2.773  10.888  17.868  0.00  0.00    +0.000 A 
ENDBRANCH  22  23
ENDBRANCH  10  22
TORSDOF 4
ENDMDL
MODEL 9
REMARK VINA RESULT:      -7.4      4.374      9.296
REMARK  Name = 
REMARK  5 active torsions:
REMARK  status: ('A' for Active; 'I' for Inactive)
REMARK    1  A    between atoms: C_1  and  C_2
REMARK    2  A    between atoms: C_3  and  C_4
REMARK    3  A    between atoms: C_6  and  C_7
REMARK    4  A    between atoms: N_21  and  C_22
REMARK    5  A    between atoms: C_22  and  C_23
REMARK                            x       y       z     vdW  Elec       q    Type
REMARK                         _______ _______ _______ _____ _____    ______ ____
ROOT
ATOM      1  C   UNL     1       0.921  10.070  17.529  0.00  0.00    +0.000 C 
ATOM      2  C   UNL     1       0.702  10.006  19.007  0.00  0.00    +0.000 A 
ATOM      3  C   UNL     1       1.257   9.161  19.961  0.00  0.00    +0.000 A 
ATOM      4  C   UNL     1       0.679   9.515  21.226  0.00  0.00    +0.000 A 
ATOM      5  C   UNL     1       0.856   9.026  22.539  0.00  0.00    +0.000 A 
ATOM      6  C   UNL     1       0.062   9.516  23.577  0.00  0.00    +0.000 A 
ATOM      7  C   UNL     1      -0.921  10.462  23.318  0.00  0.00    +0.000 A 
ATOM      8  C   UNL     1      -1.111  10.971  22.028  0.00  0.00    +0.000 A 
ATOM      9  C   UNL     1      -0.279  10.501  20.997  0.00  0.00    +0.000 A 
ATOM     10  N   UNL     1      -0.199  10.835  19.657  0.00  0.00    +0.000 N 
ENDROOT
BRANCH   3  11
ATOM     11  C   UNL     1       2.168   7.981  19.785  0.00  0.00    +0.000 C 
ATOM     12  C   UNL     1       1.372   6.701  19.862  0.00  0.00    +0.000 C 
ATOM     13  C   UNL     1       2.254   5.845  19.032  0.00  0.00    +0.000 C 
ATOM     14  N   UNL     1       3.076   6.498  18.269  0.00  0.00    +0.000 NA
ATOM     15  O   UNL     1       2.850   7.884  18.522  0.00  0.00    +0.000 OA
BRANCH  13  16
ATOM     16  C   UNL     1       2.141   4.374  19.074  0.00  0.00    +0.000 A 
ATOM     17  C   UNL     1       1.621   3.734  20.204  0.00  0.00    +0.000 A 
ATOM     18  C   UNL     1       1.564   2.352  20.200  0.00  0.00    +0.000 A 
ATOM     19  N   UNL     1       1.975   1.592  19.167  0.00  0.00    +0.000 NA
ATOM     20  C   UNL     1       2.458   2.239  18.083  0.00  0.00    +0.000 A 
ATOM     21  C   UNL     1       2.561   3.614  17.989  0.00  0.00    +0.000 A 
ENDBRANCH  13  16
ENDBRANCH   3  11
BRANCH  10  22
ATOM     22  C   UNL     1      -0.942  11.935  19.035  0.00  0.00    +0.000 C 
BRANCH  22  23
ATOM     23  C   UNL     1      -2.421  11.676  18.824  0.00  0.00    +0.000 A 
ATOM     24  C   UNL     1      -2.924  10.776  17.870  0.00  0.00    +0.000 A 
ATOM     25  C   UNL     1      -4.298  10.676  17.638  0.00  0.00    +0.000 A 
ATOM     26  C   UNL     1      -5.187  11.452  18.376  0.00  0.00    +0.000 A 
ATOM     27 CL   UNL     1      -6.872  11.383  18.034  0.00  0.00    +0.000 Cl
ATOM     28  C   UNL     1      -4.716  12.298  19.375  0.00  0.00    +0.000 A 
ATOM     29  C   UNL     1      -3.340  12.405  19.600  0.00  0.00    +0.000 A 
ENDBRANCH  22  23
ENDBRANCH  10  22
TORSDOF 4
ENDMDL
