MODEL 1
REMARK VINA RESULT:      -8.5      0.000      0.000
REMARK  Name = 
REMARK  9 active torsions:
REMARK  status: ('A' for Active; 'I' for Inactive)
REMARK    1  A    between atoms: C_1  and  C_2
REMARK    2  A    between atoms: C_2  and  O_3
REMARK    3  A    between atoms: O_3  and  C_4
REMARK    4  A    between atoms: C_4  and  C_6
REMARK    5  A    between atoms: C_9  and  N_10
REMARK    6  A    between atoms: N_10  and  C_11
REMARK    7  A    between atoms: C_12  and  C_13
REMARK    8  A    between atoms: C_16  and  O_17
REMARK    9  A    between atoms: O_17  and  C_18
REMARK                            x       y       z     vdW  Elec       q    Type
REMARK                         _______ _______ _______ _____ _____    ______ ____
ROOT
ATOM      1  C   UNL     1       3.979   5.445  19.502  0.00  0.00    +0.000 A 
ATOM      2  C   UNL     1       2.699   5.878  19.864  0.00  0.00    +0.000 A 
ATOM      3  N   UNL     1       1.942   4.847  20.444  0.00  0.00    +0.000 NA
ATOM      4  C   UNL     1       2.752   3.829  20.404  0.00  0.00    +0.000 A 
ATOM      5  N   UNL     1       2.809   2.527  20.683  0.00  0.00    +0.000 N 
ATOM      6  C   UNL     1       4.059   2.111  20.297  0.00  0.00    +0.000 A 
ATOM      7  N   UNL     1       4.835   3.046  19.811  0.00  0.00    +0.000 NA
ATOM      8  N   UNL     1       3.973   4.125  19.878  0.00  0.00    +0.000 N 
ATOM      9  H   UNL     1       2.070   1.943  21.045  0.00  0.00    +0.000 HD
ENDROOT
BRANCH   2  10
ATOM     10  C   UNL     1       2.128   7.201  19.633  0.00  0.00    +0.000 A 
ATOM     11  C   UNL     1       1.566   7.959  20.670  0.00  0.00    +0.000 A 
ATOM     12  C   UNL     1       1.040   9.231  20.422  0.00  0.00    +0.000 A 
ATOM     13  C   UNL     1       1.109   9.791  19.148  0.00  0.00    +0.000 A 
ATOM     14  C   UNL     1       1.672   9.054  18.108  0.00  0.00    +0.000 A 
ATOM     15  C   UNL     1       2.179   7.767  18.353  0.00  0.00    +0.000 A 
BRANCH  13  16
ATOM     16  O   UNL     1       0.561  11.038  19.029  0.00  0.00    +0.000 OA
ATOM     17  C   UNL     1      -0.753  11.082  18.484  0.00  0.00    +0.000 C 
ENDBRANCH  13  16
ENDBRANCH   2  10
BRANCH   1  18
ATOM     18  N   UNL     1       5.074   6.049  18.954  0.00  0.00    +0.000 N 
ATOM     19  H   UNL     1       5.317   6.993  19.240  0.00  0.00    +0.000 HD
BRANCH  18  23
ATOM     20  C   UNL     1       6.612   5.052  15.146  0.00  0.00    +0.000 A 
ATOM     21  C   UNL     1       5.369   5.677  15.247  0.00  0.00    +0.000 A 
ATOM     22  C   UNL     1       4.869   6.031  16.497  0.00  0.00    +0.000 A 
ATOM     23  C   UNL     1       5.585   5.751  17.670  0.00  0.00    +0.000 A 
ATOM     24  C   UNL     1       6.828   5.115  17.562  0.00  0.00    +0.000 A 
ATOM     25  C   UNL     1       7.340   4.764  16.308  0.00  0.00    +0.000 A 
BRANCH  20  26
ATOM     26  C   UNL     1       7.069   4.668  13.789  0.00  0.00    +0.000 C 
ATOM     27  O   UNL     1       7.769   5.379  13.087  0.00  0.00    +0.000 OA
BRANCH  26  28
ATOM     28  O   UNL     1       6.513   3.487  13.431  0.00  0.00    +0.000 OA
BRANCH  28  30
ATOM     29  C   UNL     1       4.716   3.398  11.871  0.00  0.00    +0.000 C 
ATOM     30  C   UNL     1       6.226   3.363  12.033  0.00  0.00    +0.000 C 
ENDBRANCH  28  30
ENDBRANCH  26  28
ENDBRANCH  20  26
ENDBRANCH  18  23
ENDBRANCH   1  18
TORSDOF 7
ENDMDL
MODEL 2
REMARK VINA RESULT:      -8.5      0.518      1.045
REMARK  Name = 
REMARK  9 active torsions:
REMARK  status: ('A' for Active; 'I' for Inactive)
REMARK    1  A    between atoms: C_1  and  C_2
REMARK    2  A    between atoms: C_2  and  O_3
REMARK    3  A    between atoms: O_3  and  C_4
REMARK    4  A    between atoms: C_4  and  C_6
REMARK    5  A    between atoms: C_9  and  N_10
REMARK    6  A    between atoms: N_10  and  C_11
REMARK    7  A    between atoms: C_12  and  C_13
REMARK    8  A    between atoms: C_16  and  O_17
REMARK    9  A    between atoms: O_17  and  C_18
REMARK                            x       y       z     vdW  Elec       q    Type
REMARK                         _______ _______ _______ _____ _____    ______ ____
ROOT
ATOM      1  C   UNL     1       3.624   5.335  19.658  0.00  0.00    +0.000 A 
ATOM      2  C   UNL     1       2.370   5.910  19.894  0.00  0.00    +0.000 A 
ATOM      3  N   UNL     1       1.432   4.960  20.330  0.00  0.00    +0.000 NA
ATOM      4  C   UNL     1       2.115   3.851  20.327  0.00  0.00    +0.000 A 
ATOM      5  N   UNL     1       1.982   2.543  20.541  0.00  0.00    +0.000 N 
ATOM      6  C   UNL     1       3.211   1.989  20.277  0.00  0.00    +0.000 A 
ATOM      7  N   UNL     1       4.145   2.838  19.933  0.00  0.00    +0.000 NA
ATOM      8  N   UNL     1       3.416   4.013  19.960  0.00  0.00    +0.000 N 
ATOM      9  H   UNL     1       1.142   2.041  20.785  0.00  0.00    +0.000 HD
ENDROOT
BRANCH   2  10
ATOM     10  C   UNL     1       1.993   7.302  19.672  0.00  0.00    +0.000 A 
ATOM     11  C   UNL     1       2.154   7.926  18.427  0.00  0.00    +0.000 A 
ATOM     12  C   UNL     1       1.769   9.258  18.240  0.00  0.00    +0.000 A 
ATOM     13  C   UNL     1       1.171   9.976  19.274  0.00  0.00    +0.000 A 
ATOM     14  C   UNL     1       0.995   9.366  20.514  0.00  0.00    +0.000 A 
ATOM     15  C   UNL     1       1.404   8.037  20.709  0.00  0.00    +0.000 A 
BRANCH  13  16
ATOM     16  O   UNL     1       0.839  11.267  18.971  0.00  0.00    +0.000 OA
ATOM     17  C   UNL     1      -0.531  11.491  18.657  0.00  0.00    +0.000 C 
ENDBRANCH  13  16
ENDBRANCH   2  10
BRANCH   1  18
ATOM     18  N   UNL     1       4.840   5.820  19.270  0.00  0.00    +0.000 N 
ATOM     19  H   UNL     1       5.198   6.669  19.698  0.00  0.00    +0.000 HD
BRANCH  18  23
ATOM     20  C   UNL     1       6.533   5.076  15.469  0.00  0.00    +0.000 A 
ATOM     21  C   UNL     1       5.365   5.831  15.570  0.00  0.00    +0.000 A 
ATOM     22  C   UNL     1       4.817   6.101  16.820  0.00  0.00    +0.000 A 
ATOM     23  C   UNL     1       5.408   5.607  17.993  0.00  0.00    +0.000 A 
ATOM     24  C   UNL     1       6.576   4.842  17.885  0.00  0.00    +0.000 A 
ATOM     25  C   UNL     1       7.136   4.575  16.631  0.00  0.00    +0.000 A 
BRANCH  20  26
ATOM     26  C   UNL     1       7.043   4.794  14.106  0.00  0.00    +0.000 C 
ATOM     27  O   UNL     1       7.921   5.447  13.566  0.00  0.00    +0.000 OA
BRANCH  26  28
ATOM     28  O   UNL     1       6.326   3.794  13.542  0.00  0.00    +0.000 OA
BRANCH  28  30
ATOM     29  C   UNL     1       5.659   2.491  11.664  0.00  0.00    +0.000 C 
ATOM     30  C   UNL     1       6.620   3.557  12.160  0.00  0.00    +0.000 C 
ENDBRANCH  28  30
ENDBRANCH  26  28
ENDBRANCH  20  26
ENDBRANCH  18  23
ENDBRANCH   1  18
TORSDOF 7
ENDMDL
MODEL 3
REMARK VINA RESULT:      -8.5      1.449      7.172
REMARK  Name = 
REMARK  9 active torsions:
REMARK  status: ('A' for Active; 'I' for Inactive)
REMARK    1  A    between atoms: C_1  and  C_2
REMARK    2  A    between atoms: C_2  and  O_3
REMARK    3  A    between atoms: O_3  and  C_4
REMARK    4  A    between atoms: C_4  and  C_6
REMARK    5  A    between atoms: C_9  and  N_10
REMARK    6  A    between atoms: N_10  and  C_11
REMARK    7  A    between atoms: C_12  and  C_13
REMARK    8  A    between atoms: C_16  and  O_17
REMARK    9  A    between atoms: O_17  and  C_18
REMARK                            x       y       z     vdW  Elec       q    Type
REMARK                         _______ _______ _______ _____ _____    ______ ____
ROOT
ATOM      1  C   UNL     1       3.369   4.812  19.315  0.00  0.00    +0.000 A 
ATOM      2  C   UNL     1       3.852   3.994  18.288  0.00  0.00    +0.000 A 
ATOM      3  N   UNL     1       3.254   2.723  18.305  0.00  0.00    +0.000 NA
ATOM      4  C   UNL     1       2.456   2.789  19.332  0.00  0.00    +0.000 A 
ATOM      5  N   UNL     1       1.608   2.048  20.044  0.00  0.00    +0.000 N 
ATOM      6  C   UNL     1       1.165   2.854  21.064  0.00  0.00    +0.000 A 
ATOM      7  N   UNL     1       1.636   4.075  21.058  0.00  0.00    +0.000 NA
ATOM      8  N   UNL     1       2.466   4.001  19.953  0.00  0.00    +0.000 N 
ATOM      9  H   UNL     1       1.379   1.075  19.910  0.00  0.00    +0.000 HD
ENDROOT
BRANCH   2  10
ATOM     10  C   UNL     1       4.897   4.328  17.325  0.00  0.00    +0.000 A 
ATOM     11  C   UNL     1       4.624   4.491  15.960  0.00  0.00    +0.000 A 
ATOM     12  C   UNL     1       5.643   4.826  15.062  0.00  0.00    +0.000 A 
ATOM     13  C   UNL     1       6.942   5.052  15.515  0.00  0.00    +0.000 A 
ATOM     14  C   UNL     1       7.227   4.903  16.871  0.00  0.00    +0.000 A 
ATOM     15  C   UNL     1       6.208   4.543  17.768  0.00  0.00    +0.000 A 
BRANCH  13  16
ATOM     16  O   UNL     1       7.851   5.372  14.545  0.00  0.00    +0.000 OA
ATOM     17  C   UNL     1       7.502   4.977  13.223  0.00  0.00    +0.000 C 
ENDBRANCH  13  16
ENDBRANCH   2  10
BRANCH   1  18
ATOM     18  N   UNL     1       3.595   6.104  19.695  0.00  0.00    +0.000 N 
ATOM     19  H   UNL     1       4.185   6.289  20.502  0.00  0.00    +0.000 HD
BRANCH  18  23
ATOM     20  C   UNL     1       0.967   9.351  19.056  0.00  0.00    +0.000 A 
ATOM     21  C   UNL     1       1.757   8.884  18.006  0.00  0.00    +0.000 A 
ATOM     22  C   UNL     1       2.605   7.799  18.204  0.00  0.00    +0.000 A 
ATOM     23  C   UNL     1       2.700   7.171  19.455  0.00  0.00    +0.000 A 
ATOM     24  C   UNL     1       1.911   7.649  20.507  0.00  0.00    +0.000 A 
ATOM     25  C   UNL     1       1.050   8.735  20.313  0.00  0.00    +0.000 A 
BRANCH  20  26
ATOM     26  C   UNL     1       0.113  10.533  18.790  0.00  0.00    +0.000 C 
ATOM     27  O   UNL     1       0.556  11.638  18.519  0.00  0.00    +0.000 OA
BRANCH  26  28
ATOM     28  O   UNL     1      -1.188  10.220  18.995  0.00  0.00    +0.000 OA
BRANCH  28  30
ATOM     29  C   UNL     1      -2.118   9.919  16.824  0.00  0.00    +0.000 C 
ATOM     30  C   UNL     1      -2.097  10.806  18.056  0.00  0.00    +0.000 C 
ENDBRANCH  28  30
ENDBRANCH  26  28
ENDBRANCH  20  26
ENDBRANCH  18  23
ENDBRANCH   1  18
TORSDOF 7
ENDMDL
MODEL 4
REMARK VINA RESULT:      -8.4      0.916      1.547
REMARK  Name = 
REMARK  9 active torsions:
REMARK  status: ('A' for Active; 'I' for Inactive)
REMARK    1  A    between atoms: C_1  and  C_2
REMARK    2  A    between atoms: C_2  and  O_3
REMARK    3  A    between atoms: O_3  and  C_4
REMARK    4  A    between atoms: C_4  and  C_6
REMARK    5  A    between atoms: C_9  and  N_10
REMARK    6  A    between atoms: N_10  and  C_11
REMARK    7  A    between atoms: C_12  and  C_13
REMARK    8  A    between atoms: C_16  and  O_17
REMARK    9  A    between atoms: O_17  and  C_18
REMARK                            x       y       z     vdW  Elec       q    Type
REMARK                         _______ _______ _______ _____ _____    ______ ____
ROOT
ATOM      1  C   UNL     1       3.287   5.273  19.997  0.00  0.00    +0.000 A 
ATOM      2  C   UNL     1       2.088   5.988  20.082  0.00  0.00    +0.000 A 
ATOM      3  N   UNL     1       1.030   5.183  20.538  0.00  0.00    +0.000 NA
ATOM      4  C   UNL     1       1.593   4.019  20.694  0.00  0.00    +0.000 A 
ATOM      5  N   UNL     1       1.312   2.760  21.024  0.00  0.00    +0.000 N 
ATOM      6  C   UNL     1       2.491   2.065  20.908  0.00  0.00    +0.000 A 
ATOM      7  N   UNL     1       3.529   2.780  20.553  0.00  0.00    +0.000 NA
ATOM      8  N   UNL     1       2.925   4.016  20.411  0.00  0.00    +0.000 N 
ATOM      9  H   UNL     1       0.410   2.370  21.253  0.00  0.00    +0.000 HD
ENDROOT
BRANCH   2  10
ATOM     10  C   UNL     1       1.872   7.379  19.698  0.00  0.00    +0.000 A 
ATOM     11  C   UNL     1       2.166   7.848  18.410  0.00  0.00    +0.000 A 
ATOM     12  C   UNL     1       1.934   9.183  18.066  0.00  0.00    +0.000 A 
ATOM     13  C   UNL     1       1.360  10.063  18.981  0.00  0.00    +0.000 A 
ATOM     14  C   UNL     1       1.053   9.610  20.263  0.00  0.00    +0.000 A 
ATOM     15  C   UNL     1       1.309   8.274  20.616  0.00  0.00    +0.000 A 
BRANCH  13  16
ATOM     16  O   UNL     1       1.182  11.342  18.530  0.00  0.00    +0.000 OA
ATOM     17  C   UNL     1      -0.113  11.893  18.741  0.00  0.00    +0.000 C 
ENDBRANCH  13  16
ENDBRANCH   2  10
BRANCH   1  18
ATOM     18  N   UNL     1       4.570   5.594  19.656  0.00  0.00    +0.000 N 
ATOM     19  H   UNL     1       5.021   6.386  20.104  0.00  0.00    +0.000 HD
BRANCH  18  23
ATOM     20  C   UNL     1       6.236   4.834  15.846  0.00  0.00    +0.000 A 
ATOM     21  C   UNL     1       7.062   5.240  16.894  0.00  0.00    +0.000 A 
ATOM     22  C   UNL     1       6.523   5.467  18.157  0.00  0.00    +0.000 A 
ATOM     23  C   UNL     1       5.150   5.315  18.397  0.00  0.00    +0.000 A 
ATOM     24  C   UNL     1       4.324   4.915  17.339  0.00  0.00    +0.000 A 
ATOM     25  C   UNL     1       4.861   4.677  16.069  0.00  0.00    +0.000 A 
BRANCH  20  26
ATOM     26  C   UNL     1       6.866   4.645  14.518  0.00  0.00    +0.000 C 
ATOM     27  O   UNL     1       7.735   5.378  14.074  0.00  0.00    +0.000 OA
BRANCH  26  28
ATOM     28  O   UNL     1       6.264   3.626  13.861  0.00  0.00    +0.000 OA
BRANCH  28  30
ATOM     29  C   UNL     1       5.116   3.176  11.824  0.00  0.00    +0.000 C 
ATOM     30  C   UNL     1       6.417   3.663  12.437  0.00  0.00    +0.000 C 
ENDBRANCH  28  30
ENDBRANCH  26  28
ENDBRANCH  20  26
ENDBRANCH  18  23
ENDBRANCH   1  18
TORSDOF 7
ENDMDL
MODEL 5
REMARK VINA RESULT:      -8.2      2.858      6.903
REMARK  Name = 
REMARK  9 active torsions:
REMARK  status: ('A' for Active; 'I' for Inactive)
REMARK    1  A    between atoms: C_1  and  C_2
REMARK    2  A    between atoms: C_2  and  O_3
REMARK    3  A    between atoms: O_3  and  C_4
REMARK    4  A    between atoms: C_4  and  C_6
REMARK    5  A    between atoms: C_9  and  N_10
REMARK    6  A    between atoms: N_10  and  C_11
REMARK    7  A    between atoms: C_12  and  C_13
REMARK    8  A    between atoms: C_16  and  O_17
REMARK    9  A    between atoms: O_17  and  C_18
REMARK                            x       y       z     vdW  Elec       q    Type
REMARK                         _______ _______ _______ _____ _____    ______ ____
ROOT
ATOM      1  C   UNL     1       3.063   4.897  19.288  0.00  0.00    +0.000 A 
ATOM      2  C   UNL     1       4.062   4.730  18.323  0.00  0.00    +0.000 A 
ATOM      3  N   UNL     1       3.873   3.558  17.571  0.00  0.00    +0.000 NA
ATOM      4  C   UNL     1       2.801   3.041  18.099  0.00  0.00    +0.000 A 
ATOM      5  N   UNL     1       2.012   1.970  18.022  0.00  0.00    +0.000 N 
ATOM      6  C   UNL     1       1.055   2.134  18.994  0.00  0.00    +0.000 A 
ATOM      7  N   UNL     1       1.140   3.244  19.682  0.00  0.00    +0.000 NA
ATOM      8  N   UNL     1       2.268   3.794  19.100  0.00  0.00    +0.000 N 
ATOM      9  H   UNL     1       2.122   1.167  17.422  0.00  0.00    +0.000 HD
ENDROOT
BRANCH   2  10
ATOM     10  C   UNL     1       5.224   5.587  18.112  0.00  0.00    +0.000 A 
ATOM     11  C   UNL     1       5.215   6.634  17.180  0.00  0.00    +0.000 A 
ATOM     12  C   UNL     1       6.339   7.449  17.011  0.00  0.00    +0.000 A 
ATOM     13  C   UNL     1       7.473   7.268  17.800  0.00  0.00    +0.000 A 
ATOM     14  C   UNL     1       7.493   6.238  18.738  0.00  0.00    +0.000 A 
ATOM     15  C   UNL     1       6.373   5.404  18.891  0.00  0.00    +0.000 A 
BRANCH  13  16
ATOM     16  O   UNL     1       8.507   8.125  17.542  0.00  0.00    +0.000 OA
ATOM     17  C   UNL     1       8.448   9.378  18.214  0.00  0.00    +0.000 C 
ENDBRANCH  13  16
ENDBRANCH   2  10
BRANCH   1  18
ATOM     18  N   UNL     1       2.781   5.857  20.217  0.00  0.00    +0.000 N 
ATOM     19  H   UNL     1       2.579   5.580  21.174  0.00  0.00    +0.000 HD
BRANCH  18  23
ATOM     20  C   UNL     1       1.017   9.566  19.223  0.00  0.00    +0.000 A 
ATOM     21  C   UNL     1       0.894   9.068  20.521  0.00  0.00    +0.000 A 
ATOM     22  C   UNL     1       1.495   7.860  20.860  0.00  0.00    +0.000 A 
ATOM     23  C   UNL     1       2.211   7.114  19.912  0.00  0.00    +0.000 A 
ATOM     24  C   UNL     1       2.322   7.615  18.610  0.00  0.00    +0.000 A 
ATOM     25  C   UNL     1       1.728   8.833  18.264  0.00  0.00    +0.000 A 
BRANCH  20  26
ATOM     26  C   UNL     1       0.322  10.840  18.917  0.00  0.00    +0.000 C 
ATOM     27  O   UNL     1       0.903  11.868  18.610  0.00  0.00    +0.000 OA
BRANCH  26  28
ATOM     28  O   UNL     1      -1.008  10.704  19.132  0.00  0.00    +0.000 OA
BRANCH  28  30
ATOM     29  C   UNL     1      -1.929   9.919  17.081  0.00  0.00    +0.000 C 
ATOM     30  C   UNL     1      -1.832  11.101  18.030  0.00  0.00    +0.000 C 
ENDBRANCH  28  30
ENDBRANCH  26  28
ENDBRANCH  20  26
ENDBRANCH  18  23
ENDBRANCH   1  18
TORSDOF 7
ENDMDL
MODEL 6
REMARK VINA RESULT:      -8.2      1.442      7.249
REMARK  Name = 
REMARK  9 active torsions:
REMARK  status: ('A' for Active; 'I' for Inactive)
REMARK    1  A    between atoms: C_1  and  C_2
REMARK    2  A    between atoms: C_2  and  O_3
REMARK    3  A    between atoms: O_3  and  C_4
REMARK    4  A    between atoms: C_4  and  C_6
REMARK    5  A    between atoms: C_9  and  N_10
REMARK    6  A    between atoms: N_10  and  C_11
REMARK    7  A    between atoms: C_12  and  C_13
REMARK    8  A    between atoms: C_16  and  O_17
REMARK    9  A    between atoms: O_17  and  C_18
REMARK                            x       y       z     vdW  Elec       q    Type
REMARK                         _______ _______ _______ _____ _____    ______ ____
ROOT
ATOM      1  C   UNL     1       3.409   4.793  19.364  0.00  0.00    +0.000 A 
ATOM      2  C   UNL     1       3.887   3.967  18.341  0.00  0.00    +0.000 A 
ATOM      3  N   UNL     1       3.291   2.696  18.373  0.00  0.00    +0.000 NA
ATOM      4  C   UNL     1       2.499   2.768  19.404  0.00  0.00    +0.000 A 
ATOM      5  N   UNL     1       1.657   2.032  20.128  0.00  0.00    +0.000 N 
ATOM      6  C   UNL     1       1.219   2.846  21.144  0.00  0.00    +0.000 A 
ATOM      7  N   UNL     1       1.689   4.067  21.124  0.00  0.00    +0.000 NA
ATOM      8  N   UNL     1       2.511   3.985  20.015  0.00  0.00    +0.000 N 
ATOM      9  H   UNL     1       1.429   1.058  20.003  0.00  0.00    +0.000 HD
ENDROOT
BRANCH   2  10
ATOM     10  C   UNL     1       4.925   4.295  17.369  0.00  0.00    +0.000 A 
ATOM     11  C   UNL     1       4.657   4.373  15.995  0.00  0.00    +0.000 A 
ATOM     12  C   UNL     1       5.670   4.704  15.088  0.00  0.00    +0.000 A 
ATOM     13  C   UNL     1       6.953   5.011  15.537  0.00  0.00    +0.000 A 
ATOM     14  C   UNL     1       7.231   4.947  16.901  0.00  0.00    +0.000 A 
ATOM     15  C   UNL     1       6.221   4.591  17.809  0.00  0.00    +0.000 A 
BRANCH  13  16
ATOM     16  O   UNL     1       7.856   5.318  14.557  0.00  0.00    +0.000 OA
ATOM     17  C   UNL     1       7.458   4.990  13.231  0.00  0.00    +0.000 C 
ENDBRANCH  13  16
ENDBRANCH   2  10
BRANCH   1  18
ATOM     18  N   UNL     1       3.636   6.088  19.733  0.00  0.00    +0.000 N 
ATOM     19  H   UNL     1       4.203   6.279  20.554  0.00  0.00    +0.000 HD
BRANCH  18  23
ATOM     20  C   UNL     1       0.962   9.229  18.812  0.00  0.00    +0.000 A 
ATOM     21  C   UNL     1       1.018   8.728  20.112  0.00  0.00    +0.000 A 
ATOM     22  C   UNL     1       1.914   7.711  20.427  0.00  0.00    +0.000 A 
ATOM     23  C   UNL     1       2.757   7.159  19.451  0.00  0.00    +0.000 A 
ATOM     24  C   UNL     1       2.690   7.660  18.146  0.00  0.00    +0.000 A 
ATOM     25  C   UNL     1       1.797   8.688  17.824  0.00  0.00    +0.000 A 
BRANCH  20  26
ATOM     26  C   UNL     1      -0.040  10.285  18.534  0.00  0.00    +0.000 C 
ATOM     27  O   UNL     1      -0.891  10.195  17.663  0.00  0.00    +0.000 OA
BRANCH  26  28
ATOM     28  O   UNL     1       0.204  11.369  19.306  0.00  0.00    +0.000 OA
BRANCH  28  30
ATOM     29  C   UNL     1       1.891  12.911  19.973  0.00  0.00    +0.000 C 
ATOM     30  C   UNL     1       1.203  12.256  18.789  0.00  0.00    +0.000 C 
ENDBRANCH  28  30
ENDBRANCH  26  28
ENDBRANCH  20  26
ENDBRANCH  18  23
ENDBRANCH   1  18
TORSDOF 7
ENDMDL
MODEL 7
REMARK VINA RESULT:      -8.1      2.808      6.996
REMARK  Name = 
REMARK  9 active torsions:
REMARK  status: ('A' for Active; 'I' for Inactive)
REMARK    1  A    between atoms: C_1  and  C_2
REMARK    2  A    between atoms: C_2  and  O_3
REMARK    3  A    between atoms: O_3  and  C_4
REMARK    4  A    between atoms: C_4  and  C_6
REMARK    5  A    between atoms: C_9  and  N_10
REMARK    6  A    between atoms: N_10  and  C_11
REMARK    7  A    between atoms: C_12  and  C_13
REMARK    8  A    between atoms: C_16  and  O_17
REMARK    9  A    between atoms: O_17  and  C_18
REMARK                            x       y       z     vdW  Elec       q    Type
REMARK                         _______ _______ _______ _____ _____    ______ ____
ROOT
ATOM      1  C   UNL     1       2.941   4.883  19.387  0.00  0.00    +0.000 A 
ATOM      2  C   UNL     1       3.882   4.699  18.368  0.00  0.00    +0.000 A 
ATOM      3  N   UNL     1       3.645   3.519  17.644  0.00  0.00    +0.000 NA
ATOM      4  C   UNL     1       2.604   3.013  18.239  0.00  0.00    +0.000 A 
ATOM      5  N   UNL     1       1.808   1.944  18.223  0.00  0.00    +0.000 N 
ATOM      6  C   UNL     1       0.909   2.125  19.245  0.00  0.00    +0.000 A 
ATOM      7  N   UNL     1       1.038   3.244  19.912  0.00  0.00    +0.000 NA
ATOM      8  N   UNL     1       2.132   3.782  19.259  0.00  0.00    +0.000 N 
ATOM      9  H   UNL     1       1.880   1.133  17.628  0.00  0.00    +0.000 HD
ENDROOT
BRANCH   2  10
ATOM     10  C   UNL     1       5.033   5.549  18.079  0.00  0.00    +0.000 A 
ATOM     11  C   UNL     1       4.979   6.572  17.124  0.00  0.00    +0.000 A 
ATOM     12  C   UNL     1       6.094   7.381  16.879  0.00  0.00    +0.000 A 
ATOM     13  C   UNL     1       7.265   7.216  17.615  0.00  0.00    +0.000 A 
ATOM     14  C   UNL     1       7.331   6.208  18.575  0.00  0.00    +0.000 A 
ATOM     15  C   UNL     1       6.219   5.381  18.804  0.00  0.00    +0.000 A 
BRANCH  13  16
ATOM     16  O   UNL     1       8.286   8.064  17.286  0.00  0.00    +0.000 OA
ATOM     17  C   UNL     1       8.396   9.234  18.089  0.00  0.00    +0.000 C 
ENDBRANCH  13  16
ENDBRANCH   2  10
BRANCH   1  18
ATOM     18  N   UNL     1       2.717   5.857  20.317  0.00  0.00    +0.000 N 
ATOM     19  H   UNL     1       2.612   5.597  21.294  0.00  0.00    +0.000 HD
BRANCH  18  23
ATOM     20  C   UNL     1       0.873   9.586  19.572  0.00  0.00    +0.000 A 
ATOM     21  C   UNL     1       1.610   8.966  18.564  0.00  0.00    +0.000 A 
ATOM     22  C   UNL     1       2.198   7.726  18.795  0.00  0.00    +0.000 A 
ATOM     23  C   UNL     1       2.082   7.089  20.040  0.00  0.00    +0.000 A 
ATOM     24  C   UNL     1       1.348   7.721  21.050  0.00  0.00    +0.000 A 
ATOM     25  C   UNL     1       0.747   8.963  20.822  0.00  0.00    +0.000 A 
BRANCH  20  26
ATOM     26  C   UNL     1       0.304  10.922  19.273  0.00  0.00    +0.000 C 
ATOM     27  O   UNL     1       0.365  11.868  20.042  0.00  0.00    +0.000 OA
BRANCH  26  28
ATOM     28  O   UNL     1      -0.362  10.888  18.095  0.00  0.00    +0.000 OA
BRANCH  28  30
ATOM     29  C   UNL     1      -2.530   9.941  17.828  0.00  0.00    +0.000 C 
ATOM     30  C   UNL     1      -1.757  11.196  18.191  0.00  0.00    +0.000 C 
ENDBRANCH  28  30
ENDBRANCH  26  28
ENDBRANCH  20  26
ENDBRANCH  18  23
ENDBRANCH   1  18
TORSDOF 7
ENDMDL
MODEL 8
REMARK VINA RESULT:      -8.1      2.879      6.993
REMARK  Name = 
REMARK  9 active torsions:
REMARK  status: ('A' for Active; 'I' for Inactive)
REMARK    1  A    between atoms: C_1  and  C_2
REMARK    2  A    between atoms: C_2  and  O_3
REMARK    3  A    between atoms: O_3  and  C_4
REMARK    4  A    between atoms: C_4  and  C_6
REMARK    5  A    between atoms: C_9  and  N_10
REMARK    6  A    between atoms: N_10  and  C_11
REMARK    7  A    between atoms: C_12  and  C_13
REMARK    8  A    between atoms: C_16  and  O_17
REMARK    9  A    between atoms: O_17  and  C_18
REMARK                            x       y       z     vdW  Elec       q    Type
REMARK                         _______ _______ _______ _____ _____    ______ ____
ROOT
ATOM      1  C   UNL     1       3.006   4.882  19.308  0.00  0.00    +0.000 A 
ATOM      2  C   UNL     1       4.007   4.709  18.346  0.00  0.00    +0.000 A 
ATOM      3  N   UNL     1       3.800   3.553  17.577  0.00  0.00    +0.000 NA
ATOM      4  C   UNL     1       2.714   3.049  18.091  0.00  0.00    +0.000 A 
ATOM      5  N   UNL     1       1.905   1.995  17.994  0.00  0.00    +0.000 N 
ATOM      6  C   UNL     1       0.946   2.164  18.963  0.00  0.00    +0.000 A 
ATOM      7  N   UNL     1       1.049   3.263  19.666  0.00  0.00    +0.000 NA
ATOM      8  N   UNL     1       2.191   3.799  19.099  0.00  0.00    +0.000 N 
ATOM      9  H   UNL     1       2.003   1.199  17.384  0.00  0.00    +0.000 HD
ENDROOT
BRANCH   2  10
ATOM     10  C   UNL     1       5.187   5.547  18.154  0.00  0.00    +0.000 A 
ATOM     11  C   UNL     1       5.206   6.604  17.235  0.00  0.00    +0.000 A 
ATOM     12  C   UNL     1       6.347   7.400  17.084  0.00  0.00    +0.000 A 
ATOM     13  C   UNL     1       7.471   7.187  17.879  0.00  0.00    +0.000 A 
ATOM     14  C   UNL     1       7.465   6.144  18.804  0.00  0.00    +0.000 A 
ATOM     15  C   UNL     1       6.328   5.331  18.939  0.00  0.00    +0.000 A 
BRANCH  13  16
ATOM     16  O   UNL     1       8.523   8.026  17.639  0.00  0.00    +0.000 OA
ATOM     17  C   UNL     1       8.342   9.373  18.061  0.00  0.00    +0.000 C 
ENDBRANCH  13  16
ENDBRANCH   2  10
BRANCH   1  18
ATOM     18  N   UNL     1       2.738   5.835  20.248  0.00  0.00    +0.000 N 
ATOM     19  H   UNL     1       2.553   5.551  21.206  0.00  0.00    +0.000 HD
BRANCH  18  23
ATOM     20  C   UNL     1       0.948   9.547  19.311  0.00  0.00    +0.000 A 
ATOM     21  C   UNL     1       0.818   9.022  20.596  0.00  0.00    +0.000 A 
ATOM     22  C   UNL     1       1.427   7.813  20.918  0.00  0.00    +0.000 A 
ATOM     23  C   UNL     1       2.159   7.092  19.962  0.00  0.00    +0.000 A 
ATOM     24  C   UNL     1       2.278   7.621  18.671  0.00  0.00    +0.000 A 
ATOM     25  C   UNL     1       1.676   8.840  18.344  0.00  0.00    +0.000 A 
BRANCH  20  26
ATOM     26  C   UNL     1       0.244  10.820  19.023  0.00  0.00    +0.000 C 
ATOM     27  O   UNL     1      -0.705  10.908  18.261  0.00  0.00    +0.000 OA
BRANCH  26  28
ATOM     28  O   UNL     1       0.874  11.847  19.640  0.00  0.00    +0.000 OA
BRANCH  28  30
ATOM     29  C   UNL     1       2.554  12.676  18.170  0.00  0.00    +0.000 C 
ATOM     30  C   UNL     1       1.193  12.950  18.785  0.00  0.00    +0.000 C 
ENDBRANCH  28  30
ENDBRANCH  26  28
ENDBRANCH  20  26
ENDBRANCH  18  23
ENDBRANCH   1  18
TORSDOF 7
ENDMDL
MODEL 9
REMARK VINA RESULT:      -8.1      1.607      7.246
REMARK  Name = 
REMARK  9 active torsions:
REMARK  status: ('A' for Active; 'I' for Inactive)
REMARK    1  A    between atoms: C_1  and  C_2
REMARK    2  A    between atoms: C_2  and  O_3
REMARK    3  A    between atoms: O_3  and  C_4
REMARK    4  A    between atoms: C_4  and  C_6
REMARK    5  A    between atoms: C_9  and  N_10
REMARK    6  A    between atoms: N_10  and  C_11
REMARK    7  A    between atoms: C_12  and  C_13
REMARK    8  A    between atoms: C_16  and  O_17
REMARK    9  A    between atoms: O_17  and  C_18
REMARK                            x       y       z     vdW  Elec       q    Type
REMARK                         _______ _______ _______ _____ _____    ______ ____
ROOT
ATOM      1  C   UNL     1       3.302   4.585  18.748  0.00  0.00    +0.000 A 
ATOM      2  C   UNL     1       3.775   3.885  17.632  0.00  0.00    +0.000 A 
ATOM      3  N   UNL     1       3.074   2.685  17.431  0.00  0.00    +0.000 NA
ATOM      4  C   UNL     1       2.225   2.672  18.418  0.00  0.00    +0.000 A 
ATOM      5  N   UNL     1       1.278   1.915  18.971  0.00  0.00    +0.000 N 
ATOM      6  C   UNL     1       0.844   2.600  20.079  0.00  0.00    +0.000 A 
ATOM      7  N   UNL     1       1.414   3.761  20.278  0.00  0.00    +0.000 NA
ATOM      8  N   UNL     1       2.298   3.774  19.214  0.00  0.00    +0.000 N 
ATOM      9  H   UNL     1       0.977   0.997  18.681  0.00  0.00    +0.000 HD
ENDROOT
BRANCH   2  10
ATOM     10  C   UNL     1       4.899   4.260  16.780  0.00  0.00    +0.000 A 
ATOM     11  C   UNL     1       4.780   4.337  15.386  0.00  0.00    +0.000 A 
ATOM     12  C   UNL     1       5.870   4.714  14.595  0.00  0.00    +0.000 A 
ATOM     13  C   UNL     1       7.084   5.067  15.182  0.00  0.00    +0.000 A 
ATOM     14  C   UNL     1       7.215   5.005  16.567  0.00  0.00    +0.000 A 
ATOM     15  C   UNL     1       6.127   4.603  17.359  0.00  0.00    +0.000 A 
BRANCH  13  16
ATOM     16  O   UNL     1       8.075   5.417  14.307  0.00  0.00    +0.000 OA
ATOM     17  C   UNL     1       7.763   5.252  12.928  0.00  0.00    +0.000 C 
ENDBRANCH  13  16
ENDBRANCH   2  10
BRANCH   1  18
ATOM     18  N   UNL     1       3.612   5.781  19.329  0.00  0.00    +0.000 N 
ATOM     19  H   UNL     1       4.125   5.790  20.205  0.00  0.00    +0.000 HD
BRANCH  18  23
ATOM     20  C   UNL     1       1.304   9.272  18.739  0.00  0.00    +0.000 A 
ATOM     21  C   UNL     1       1.277   8.626  19.975  0.00  0.00    +0.000 A 
ATOM     22  C   UNL     1       2.054   7.490  20.183  0.00  0.00    +0.000 A 
ATOM     23  C   UNL     1       2.857   6.964  19.160  0.00  0.00    +0.000 A 
ATOM     24  C   UNL     1       2.874   7.613  17.920  0.00  0.00    +0.000 A 
ATOM     25  C   UNL     1       2.101   8.759  17.707  0.00  0.00    +0.000 A 
BRANCH  20  26
ATOM     26  C   UNL     1       0.425  10.454  18.572  0.00  0.00    +0.000 C 
ATOM     27  O   UNL     1       0.797  11.603  18.748  0.00  0.00    +0.000 OA
BRANCH  26  28
ATOM     28  O   UNL     1      -0.841  10.054  18.304  0.00  0.00    +0.000 OA
BRANCH  28  30
ATOM     29  C   UNL     1      -3.085  10.485  17.634  0.00  0.00    +0.000 C 
ATOM     30  C   UNL     1      -1.731  11.109  17.923  0.00  0.00    +0.000 C 
ENDBRANCH  28  30
ENDBRANCH  26  28
ENDBRANCH  20  26
ENDBRANCH  18  23
ENDBRANCH   1  18
TORSDOF 7
ENDMDL
