MODEL 1
REMARK VINA RESULT:      -7.6      0.000      0.000
REMARK  Name = 
REMARK  10 active torsions:
REMARK  status: ('A' for Active; 'I' for Inactive)
REMARK    1  A    between atoms: C_1  and  C_2
REMARK    2  A    between atoms: C_2  and  N_3
REMARK    3  A    between atoms: N_3  and  C_4
REMARK    4  A    between atoms: C_4  and  C_5
REMARK    5  A    between atoms: C_6  and  C_8
REMARK    6  A    between atoms: C_8  and  O_9
REMARK    7  A    between atoms: O_9  and  C_10
REMARK    8  A    between atoms: C_13  and  C_14
REMARK    9  A    between atoms: C_14  and  N_15
REMARK   10  A    between atoms: N_18  and  C_19
REMARK                            x       y       z     vdW  Elec       q    Type
REMARK                         _______ _______ _______ _____ _____    ______ ____
ROOT
ATOM      1  C   UNL     1       2.621   4.706  18.885  0.00  0.00    +0.000 A 
ATOM      2  C   UNL     1       2.566   5.889  18.250  0.00  0.00    +0.000 A 
ATOM      3  O   UNL     1       2.214   7.092  18.822  0.00  0.00    +0.000 OA
ATOM      4  C   UNL     1       1.751   7.091  20.128  0.00  0.00    +0.000 A 
ATOM      5  C   UNL     1       1.649   5.958  20.843  0.00  0.00    +0.000 A 
ATOM      6  C   UNL     1       2.239   4.728  20.326  0.00  0.00    +0.000 A 
ATOM      7  O   UNL     1       2.415   3.800  21.115  0.00  0.00    +0.000 OA
ENDROOT
BRANCH   1   8
ATOM      8  O   UNL     1       3.045   3.566  18.215  0.00  0.00    +0.000 OA
BRANCH   8   9
ATOM      9  C   UNL     1       4.208   3.755  17.415  0.00  0.00    +0.000 C 
BRANCH   9  11
ATOM     10  N   UNL     1       6.445   4.847  17.503  0.00  0.00    +0.000 N 
ATOM     11  C   UNL     1       5.470   4.112  18.197  0.00  0.00    +0.000 C 
ATOM     12  O   UNL     1       5.623   3.762  19.368  0.00  0.00    +0.000 OA
BRANCH  10  14
ATOM     13  C   UNL     1       7.817   6.751  18.364  0.00  0.00    +0.000 C 
ATOM     14  C   UNL     1       7.639   5.246  18.251  0.00  0.00    +0.000 C 
ENDBRANCH  10  14
BRANCH  10  15
ATOM     15  C   UNL     1       6.309   5.325  16.117  0.00  0.00    +0.000 C 
ATOM     16  C   UNL     1       5.277   6.425  15.914  0.00  0.00    +0.000 C 
ENDBRANCH  10  15
ENDBRANCH   9  11
ENDBRANCH   8   9
ENDBRANCH   1   8
BRANCH   4  17
ATOM     17  C   UNL     1       1.453   8.448  20.735  0.00  0.00    +0.000 C 
BRANCH  17  18
ATOM     18  N   UNL     1       0.009   8.724  20.849  0.00  0.00    +0.000 NA
ATOM     19  C   UNL     1      -0.520   8.685  22.233  0.00  0.00    +0.000 C 
ATOM     20  C   UNL     1      -0.462   9.969  23.093  0.00  0.00    +0.000 C 
ATOM     21  N   UNL     1      -0.822  11.152  22.305  0.00  0.00    +0.000 N 
ATOM     22  C   UNL     1      -0.159  11.260  20.998  0.00  0.00    +0.000 C 
ATOM     23  C   UNL     1      -0.402   9.972  20.184  0.00  0.00    +0.000 C 
BRANCH  21  24
ATOM     24  C   UNL     1      -1.498  12.217  22.874  0.00  0.00    +0.000 A 
ATOM     25  C   UNL     1      -0.868  13.443  23.155  0.00  0.00    +0.000 A 
ATOM     26  C   UNL     1      -1.531  14.480  23.824  0.00  0.00    +0.000 A 
ATOM     27  C   UNL     1      -2.850  14.315  24.228  0.00  0.00    +0.000 A 
ATOM     28  C   UNL     1      -3.502  13.122  23.942  0.00  0.00    +0.000 A 
ATOM     29 CL   UNL     1      -5.133  12.896  24.444  0.00  0.00    +0.000 Cl
ATOM     30  C   UNL     1      -2.837  12.092  23.270  0.00  0.00    +0.000 A 
ENDBRANCH  21  24
ENDBRANCH  17  18
ENDBRANCH   4  17
TORSDOF 8
ENDMDL
MODEL 2
REMARK VINA RESULT:      -7.1      3.015      3.553
REMARK  Name = 
REMARK  10 active torsions:
REMARK  status: ('A' for Active; 'I' for Inactive)
REMARK    1  A    between atoms: C_1  and  C_2
REMARK    2  A    between atoms: C_2  and  N_3
REMARK    3  A    between atoms: N_3  and  C_4
REMARK    4  A    between atoms: C_4  and  C_5
REMARK    5  A    between atoms: C_6  and  C_8
REMARK    6  A    between atoms: C_8  and  O_9
REMARK    7  A    between atoms: O_9  and  C_10
REMARK    8  A    between atoms: C_13  and  C_14
REMARK    9  A    between atoms: C_14  and  N_15
REMARK   10  A    between atoms: N_18  and  C_19
REMARK                            x       y       z     vdW  Elec       q    Type
REMARK                         _______ _______ _______ _____ _____    ______ ____
ROOT
ATOM      1  C   UNL     1       2.523   5.162  18.997  0.00  0.00    +0.000 A 
ATOM      2  C   UNL     1       2.511   6.224  18.174  0.00  0.00    +0.000 A 
ATOM      3  O   UNL     1       2.191   7.514  18.533  0.00  0.00    +0.000 OA
ATOM      4  C   UNL     1       1.713   7.744  19.814  0.00  0.00    +0.000 A 
ATOM      5  C   UNL     1       1.569   6.749  20.705  0.00  0.00    +0.000 A 
ATOM      6  C   UNL     1       2.127   5.434  20.409  0.00  0.00    +0.000 A 
ATOM      7  O   UNL     1       2.264   4.645  21.343  0.00  0.00    +0.000 OA
ENDROOT
BRANCH   1   8
ATOM      8  O   UNL     1       2.919   3.915  18.532  0.00  0.00    +0.000 OA
BRANCH   8   9
ATOM      9  C   UNL     1       3.939   3.956  17.540  0.00  0.00    +0.000 C 
BRANCH   9  11
ATOM     10  N   UNL     1       6.101   5.147  17.204  0.00  0.00    +0.000 N 
ATOM     11  C   UNL     1       5.320   4.350  18.058  0.00  0.00    +0.000 C 
ATOM     12  O   UNL     1       5.726   3.977  19.159  0.00  0.00    +0.000 OA
BRANCH  10  14
ATOM     13  C   UNL     1       7.592   7.089  17.711  0.00  0.00    +0.000 C 
ATOM     14  C   UNL     1       7.407   5.580  17.705  0.00  0.00    +0.000 C 
ENDBRANCH  10  14
BRANCH  10  15
ATOM     15  C   UNL     1       5.663   5.654  15.893  0.00  0.00    +0.000 C 
ATOM     16  C   UNL     1       6.146   4.844  14.698  0.00  0.00    +0.000 C 
ENDBRANCH  10  15
ENDBRANCH   9  11
ENDBRANCH   8   9
ENDBRANCH   1   8
BRANCH   4  17
ATOM     17  C   UNL     1       1.451   9.191  20.183  0.00  0.00    +0.000 C 
BRANCH  17  18
ATOM     18  N   UNL     1       0.758   9.940  19.118  0.00  0.00    +0.000 NA
ATOM     19  C   UNL     1      -0.331  10.825  19.595  0.00  0.00    +0.000 C 
ATOM     20  C   UNL     1       0.015  12.266  20.037  0.00  0.00    +0.000 C 
ATOM     21  N   UNL     1       0.985  12.881  19.126  0.00  0.00    +0.000 N 
ATOM     22  C   UNL     1       2.148  12.047  18.793  0.00  0.00    +0.000 C 
ATOM     23  C   UNL     1       1.672  10.689  18.239  0.00  0.00    +0.000 C 
BRANCH  21  24
ATOM     24  C   UNL     1       0.952  14.237  18.849  0.00  0.00    +0.000 A 
ATOM     25  C   UNL     1       2.098  14.955  18.464  0.00  0.00    +0.000 A 
ATOM     26  C   UNL     1       2.078  16.343  18.285  0.00  0.00    +0.000 A 
ATOM     27  C   UNL     1       0.899  17.052  18.483  0.00  0.00    +0.000 A 
ATOM     28  C   UNL     1      -0.253  16.364  18.840  0.00  0.00    +0.000 A 
ATOM     29 CL   UNL     1      -1.720  17.227  19.101  0.00  0.00    +0.000 Cl
ATOM     30  C   UNL     1      -0.228  14.977  19.013  0.00  0.00    +0.000 A 
ENDBRANCH  21  24
ENDBRANCH  17  18
ENDBRANCH   4  17
TORSDOF 8
ENDMDL
MODEL 3
REMARK VINA RESULT:      -7.1      2.095      2.465
REMARK  Name = 
REMARK  10 active torsions:
REMARK  status: ('A' for Active; 'I' for Inactive)
REMARK    1  A    between atoms: C_1  and  C_2
REMARK    2  A    between atoms: C_2  and  N_3
REMARK    3  A    between atoms: N_3  and  C_4
REMARK    4  A    between atoms: C_4  and  C_5
REMARK    5  A    between atoms: C_6  and  C_8
REMARK    6  A    between atoms: C_8  and  O_9
REMARK    7  A    between atoms: O_9  and  C_10
REMARK    8  A    between atoms: C_13  and  C_14
REMARK    9  A    between atoms: C_14  and  N_15
REMARK   10  A    between atoms: N_18  and  C_19
REMARK                            x       y       z     vdW  Elec       q    Type
REMARK                         _______ _______ _______ _____ _____    ______ ____
ROOT
ATOM      1  C   UNL     1       2.431   4.970  19.072  0.00  0.00    +0.000 A 
ATOM      2  C   UNL     1       2.571   6.143  18.433  0.00  0.00    +0.000 A 
ATOM      3  O   UNL     1       2.310   7.385  18.968  0.00  0.00    +0.000 OA
ATOM      4  C   UNL     1       1.732   7.454  20.225  0.00  0.00    +0.000 A 
ATOM      5  C   UNL     1       1.435   6.349  20.930  0.00  0.00    +0.000 A 
ATOM      6  C   UNL     1       1.924   5.053  20.472  0.00  0.00    +0.000 A 
ATOM      7  O   UNL     1       1.917   4.121  21.275  0.00  0.00    +0.000 OA
ENDROOT
BRANCH   1   8
ATOM      8  O   UNL     1       2.781   3.780  18.447  0.00  0.00    +0.000 OA
BRANCH   8   9
ATOM      9  C   UNL     1       3.843   3.902  17.506  0.00  0.00    +0.000 C 
BRANCH   9  11
ATOM     10  N   UNL     1       6.213   4.648  17.328  0.00  0.00    +0.000 N 
ATOM     11  C   UNL     1       5.232   4.035  18.125  0.00  0.00    +0.000 C 
ATOM     12  O   UNL     1       5.476   3.617  19.258  0.00  0.00    +0.000 OA
BRANCH  10  14
ATOM     13  C   UNL     1       7.711   6.169  18.628  0.00  0.00    +0.000 C 
ATOM     14  C   UNL     1       7.537   4.834  17.924  0.00  0.00    +0.000 C 
ENDBRANCH  10  14
BRANCH  10  15
ATOM     15  C   UNL     1       5.978   5.200  15.983  0.00  0.00    +0.000 C 
ATOM     16  C   UNL     1       6.968   4.743  14.920  0.00  0.00    +0.000 C 
ENDBRANCH  10  15
ENDBRANCH   9  11
ENDBRANCH   8   9
ENDBRANCH   1   8
BRANCH   4  17
ATOM     17  C   UNL     1       1.538   8.844  20.800  0.00  0.00    +0.000 C 
BRANCH  17  18
ATOM     18  N   UNL     1       0.212   9.412  20.497  0.00  0.00    +0.000 NA
ATOM     19  C   UNL     1      -0.339  10.292  21.556  0.00  0.00    +0.000 C 
ATOM     20  C   UNL     1       0.029  11.794  21.548  0.00  0.00    +0.000 C 
ATOM     21  N   UNL     1       0.002  12.339  20.187  0.00  0.00    +0.000 N 
ATOM     22  C   UNL     1       0.698  11.532  19.175  0.00  0.00    +0.000 C 
ATOM     23  C   UNL     1       0.149  10.091  19.192  0.00  0.00    +0.000 C 
BRANCH  21  24
ATOM     24  C   UNL     1      -0.388  13.644  19.943  0.00  0.00    +0.000 A 
ATOM     25  C   UNL     1       0.130  14.397  18.874  0.00  0.00    +0.000 A 
ATOM     26  C   UNL     1      -0.192  15.748  18.695  0.00  0.00    +0.000 A 
ATOM     27  C   UNL     1      -1.051  16.382  19.585  0.00  0.00    +0.000 A 
ATOM     28  C   UNL     1      -1.595  15.654  20.635  0.00  0.00    +0.000 A 
ATOM     29 CL   UNL     1      -2.652  16.426  21.754  0.00  0.00    +0.000 Cl
ATOM     30  C   UNL     1      -1.273  14.305  20.807  0.00  0.00    +0.000 A 
ENDBRANCH  21  24
ENDBRANCH  17  18
ENDBRANCH   4  17
TORSDOF 8
ENDMDL
MODEL 4
REMARK VINA RESULT:      -7.0      1.331      2.051
REMARK  Name = 
REMARK  10 active torsions:
REMARK  status: ('A' for Active; 'I' for Inactive)
REMARK    1  A    between atoms: C_1  and  C_2
REMARK    2  A    between atoms: C_2  and  N_3
REMARK    3  A    between atoms: N_3  and  C_4
REMARK    4  A    between atoms: C_4  and  C_5
REMARK    5  A    between atoms: C_6  and  C_8
REMARK    6  A    between atoms: C_8  and  O_9
REMARK    7  A    between atoms: O_9  and  C_10
REMARK    8  A    between atoms: C_13  and  C_14
REMARK    9  A    between atoms: C_14  and  N_15
REMARK   10  A    between atoms: N_18  and  C_19
REMARK                            x       y       z     vdW  Elec       q    Type
REMARK                         _______ _______ _______ _____ _____    ______ ____
ROOT
ATOM      1  C   UNL     1       2.933   4.641  19.712  0.00  0.00    +0.000 A 
ATOM      2  C   UNL     1       3.510   5.796  19.342  0.00  0.00    +0.000 A 
ATOM      3  O   UNL     1       3.094   7.056  19.711  0.00  0.00    +0.000 OA
ATOM      4  C   UNL     1       1.908   7.178  20.418  0.00  0.00    +0.000 A 
ATOM      5  C   UNL     1       1.172   6.107  20.758  0.00  0.00    +0.000 A 
ATOM      6  C   UNL     1       1.726   4.770  20.577  0.00  0.00    +0.000 A 
ATOM      7  O   UNL     1       1.184   3.839  21.173  0.00  0.00    +0.000 OA
ENDROOT
BRANCH   1   8
ATOM      8  O   UNL     1       3.478   3.424  19.321  0.00  0.00    +0.000 OA
BRANCH   8   9
ATOM      9  C   UNL     1       4.696   3.534  18.592  0.00  0.00    +0.000 C 
BRANCH   9  11
ATOM     10  N   UNL     1       5.610   4.518  16.494  0.00  0.00    +0.000 N 
ATOM     11  C   UNL     1       4.527   3.873  17.113  0.00  0.00    +0.000 C 
ATOM     12  O   UNL     1       3.491   3.602  16.504  0.00  0.00    +0.000 OA
BRANCH  10  14
ATOM     13  C   UNL     1       6.410   3.965  14.191  0.00  0.00    +0.000 C 
ATOM     14  C   UNL     1       5.489   4.802  15.063  0.00  0.00    +0.000 C 
ENDBRANCH  10  14
BRANCH  10  15
ATOM     15  C   UNL     1       6.886   4.838  17.155  0.00  0.00    +0.000 C 
ATOM     16  C   UNL     1       7.244   6.318  17.179  0.00  0.00    +0.000 C 
ENDBRANCH  10  15
ENDBRANCH   9  11
ENDBRANCH   8   9
ENDBRANCH   1   8
BRANCH   4  17
ATOM     17  C   UNL     1       1.537   8.578  20.868  0.00  0.00    +0.000 C 
BRANCH  17  18
ATOM     18  N   UNL     1       0.080   8.784  20.966  0.00  0.00    +0.000 NA
ATOM     19  C   UNL     1      -0.463   8.708  22.343  0.00  0.00    +0.000 C 
ATOM     20  C   UNL     1      -0.476   9.986  23.214  0.00  0.00    +0.000 C 
ATOM     21  N   UNL     1      -0.883  11.157  22.431  0.00  0.00    +0.000 N 
ATOM     22  C   UNL     1      -0.210  11.307  21.133  0.00  0.00    +0.000 C 
ATOM     23  C   UNL     1      -0.382  10.017  20.306  0.00  0.00    +0.000 C 
BRANCH  21  24
ATOM     24  C   UNL     1      -1.615  12.184  23.000  0.00  0.00    +0.000 A 
ATOM     25  C   UNL     1      -2.958  12.027  23.388  0.00  0.00    +0.000 A 
ATOM     26  C   UNL     1      -3.721  13.098  23.868  0.00  0.00    +0.000 A 
ATOM     27  C   UNL     1      -3.154  14.362  23.977  0.00  0.00    +0.000 A 
ATOM     28  C   UNL     1      -1.822  14.539  23.624  0.00  0.00    +0.000 A 
ATOM     29 CL   UNL     1      -1.105  16.100  23.741  0.00  0.00    +0.000 Cl
ATOM     30  C   UNL     1      -1.064  13.465  23.149  0.00  0.00    +0.000 A 
ENDBRANCH  21  24
ENDBRANCH  17  18
ENDBRANCH   4  17
TORSDOF 8
ENDMDL
MODEL 5
REMARK VINA RESULT:      -6.9      2.885      3.349
REMARK  Name = 
REMARK  10 active torsions:
REMARK  status: ('A' for Active; 'I' for Inactive)
REMARK    1  A    between atoms: C_1  and  C_2
REMARK    2  A    between atoms: C_2  and  N_3
REMARK    3  A    between atoms: N_3  and  C_4
REMARK    4  A    between atoms: C_4  and  C_5
REMARK    5  A    between atoms: C_6  and  C_8
REMARK    6  A    between atoms: C_8  and  O_9
REMARK    7  A    between atoms: O_9  and  C_10
REMARK    8  A    between atoms: C_13  and  C_14
REMARK    9  A    between atoms: C_14  and  N_15
REMARK   10  A    between atoms: N_18  and  C_19
REMARK                            x       y       z     vdW  Elec       q    Type
REMARK                         _______ _______ _______ _____ _____    ______ ____
ROOT
ATOM      1  C   UNL     1       2.326   4.701  18.886  0.00  0.00    +0.000 A 
ATOM      2  C   UNL     1       2.322   5.764  18.066  0.00  0.00    +0.000 A 
ATOM      3  O   UNL     1       2.150   7.075  18.451  0.00  0.00    +0.000 OA
ATOM      4  C   UNL     1       1.823   7.337  19.773  0.00  0.00    +0.000 A 
ATOM      5  C   UNL     1       1.684   6.352  20.677  0.00  0.00    +0.000 A 
ATOM      6  C   UNL     1       2.096   4.997  20.329  0.00  0.00    +0.000 A 
ATOM      7  O   UNL     1       2.259   4.193  21.247  0.00  0.00    +0.000 OA
ENDROOT
BRANCH   1   8
ATOM      8  O   UNL     1       2.567   3.427  18.387  0.00  0.00    +0.000 OA
BRANCH   8   9
ATOM      9  C   UNL     1       3.772   3.309  17.639  0.00  0.00    +0.000 C 
BRANCH   9  11
ATOM     10  N   UNL     1       5.823   4.723  17.623  0.00  0.00    +0.000 N 
ATOM     11  C   UNL     1       5.019   3.829  18.350  0.00  0.00    +0.000 C 
ATOM     12  O   UNL     1       5.305   3.472  19.493  0.00  0.00    +0.000 OA
BRANCH  10  14
ATOM     13  C   UNL     1       7.408   6.649  17.804  0.00  0.00    +0.000 C 
ATOM     14  C   UNL     1       6.994   5.275  18.307  0.00  0.00    +0.000 C 
ENDBRANCH  10  14
BRANCH  10  15
ATOM     15  C   UNL     1       5.520   5.216  16.269  0.00  0.00    +0.000 C 
ATOM     16  C   UNL     1       6.182   4.439  15.140  0.00  0.00    +0.000 C 
ENDBRANCH  10  15
ENDBRANCH   9  11
ENDBRANCH   8   9
ENDBRANCH   1   8
BRANCH   4  17
ATOM     17  C   UNL     1       1.722   8.799  20.162  0.00  0.00    +0.000 C 
BRANCH  17  18
ATOM     18  N   UNL     1       0.699   9.530  19.392  0.00  0.00    +0.000 NA
ATOM     19  C   UNL     1      -0.339  10.193  20.218  0.00  0.00    +0.000 C 
ATOM     20  C   UNL     1      -0.075  11.621  20.748  0.00  0.00    +0.000 C 
ATOM     21  N   UNL     1       0.555  12.459  19.722  0.00  0.00    +0.000 N 
ATOM     22  C   UNL     1       1.693  11.845  19.024  0.00  0.00    +0.000 C 
ATOM     23  C   UNL     1       1.266  10.488  18.428  0.00  0.00    +0.000 C 
BRANCH  21  24
ATOM     24  C   UNL     1       0.286  13.814  19.635  0.00  0.00    +0.000 A 
ATOM     25  C   UNL     1      -0.903  14.378  20.130  0.00  0.00    +0.000 A 
ATOM     26  C   UNL     1      -1.213  15.731  19.947  0.00  0.00    +0.000 A 
ATOM     27  C   UNL     1      -0.332  16.560  19.263  0.00  0.00    +0.000 A 
ATOM     28  C   UNL     1       0.861  16.032  18.785  0.00  0.00    +0.000 A 
ATOM     29 CL   UNL     1       1.959  17.041  17.924  0.00  0.00    +0.000 Cl
ATOM     30  C   UNL     1       1.167  14.681  18.974  0.00  0.00    +0.000 A 
ENDBRANCH  21  24
ENDBRANCH  17  18
ENDBRANCH   4  17
TORSDOF 8
ENDMDL
MODEL 6
REMARK VINA RESULT:      -6.8      3.676      6.429
REMARK  Name = 
REMARK  10 active torsions:
REMARK  status: ('A' for Active; 'I' for Inactive)
REMARK    1  A    between atoms: C_1  and  C_2
REMARK    2  A    between atoms: C_2  and  N_3
REMARK    3  A    between atoms: N_3  and  C_4
REMARK    4  A    between atoms: C_4  and  C_5
REMARK    5  A    between atoms: C_6  and  C_8
REMARK    6  A    between atoms: C_8  and  O_9
REMARK    7  A    between atoms: O_9  and  C_10
REMARK    8  A    between atoms: C_13  and  C_14
REMARK    9  A    between atoms: C_14  and  N_15
REMARK   10  A    between atoms: N_18  and  C_19
REMARK                            x       y       z     vdW  Elec       q    Type
REMARK                         _______ _______ _______ _____ _____    ______ ____
ROOT
ATOM      1  C   UNL     1       7.175   6.864  17.219  0.00  0.00    +0.000 A 
ATOM      2  C   UNL     1       6.092   6.699  16.442  0.00  0.00    +0.000 A 
ATOM      3  O   UNL     1       5.192   5.660  16.528  0.00  0.00    +0.000 OA
ATOM      4  C   UNL     1       5.472   4.615  17.395  0.00  0.00    +0.000 A 
ATOM      5  C   UNL     1       6.582   4.601  18.152  0.00  0.00    +0.000 A 
ATOM      6  C   UNL     1       7.408   5.800  18.237  0.00  0.00    +0.000 A 
ATOM      7  O   UNL     1       8.220   5.873  19.159  0.00  0.00    +0.000 OA
ENDROOT
BRANCH   1   8
ATOM      8  O   UNL     1       7.982   7.986  17.075  0.00  0.00    +0.000 OA
BRANCH   8   9
ATOM      9  C   UNL     1       7.548   9.119  17.819  0.00  0.00    +0.000 C 
BRANCH   9  11
ATOM     10  N   UNL     1       8.820  11.244  18.091  0.00  0.00    +0.000 N 
ATOM     11  C   UNL     1       8.667   9.907  18.495  0.00  0.00    +0.000 C 
ATOM     12  O   UNL     1       9.400   9.390  19.340  0.00  0.00    +0.000 OA
BRANCH  10  14
ATOM     13  C   UNL     1      11.148  12.147  17.981  0.00  0.00    +0.000 C 
ATOM     14  C   UNL     1       9.852  12.031  18.767  0.00  0.00    +0.000 C 
ENDBRANCH  10  14
BRANCH  10  15
ATOM     15  C   UNL     1       7.958  11.930  17.115  0.00  0.00    +0.000 C 
ATOM     16  C   UNL     1       7.564  13.351  17.492  0.00  0.00    +0.000 C 
ENDBRANCH  10  15
ENDBRANCH   9  11
ENDBRANCH   8   9
ENDBRANCH   1   8
BRANCH   4  17
ATOM     17  C   UNL     1       4.412   3.537  17.511  0.00  0.00    +0.000 C 
BRANCH  17  18
ATOM     18  N   UNL     1       3.447   3.793  18.597  0.00  0.00    +0.000 NA
ATOM     19  C   UNL     1       3.961   4.655  19.688  0.00  0.00    +0.000 C 
ATOM     20  C   UNL     1       3.835   6.190  19.552  0.00  0.00    +0.000 C 
ATOM     21  N   UNL     1       2.530   6.568  19.002  0.00  0.00    +0.000 N 
ATOM     22  C   UNL     1       2.109   5.812  17.814  0.00  0.00    +0.000 C 
ATOM     23  C   UNL     1       2.150   4.300  18.119  0.00  0.00    +0.000 C 
BRANCH  21  24
ATOM     24  C   UNL     1       1.896   7.735  19.391  0.00  0.00    +0.000 A 
ATOM     25  C   UNL     1       1.672   8.802  18.502  0.00  0.00    +0.000 A 
ATOM     26  C   UNL     1       1.123  10.018  18.928  0.00  0.00    +0.000 A 
ATOM     27  C   UNL     1       0.778  10.196  20.262  0.00  0.00    +0.000 A 
ATOM     28  C   UNL     1       0.967   9.149  21.155  0.00  0.00    +0.000 A 
ATOM     29 CL   UNL     1       0.557   9.355  22.815  0.00  0.00    +0.000 Cl
ATOM     30  C   UNL     1       1.512   7.936  20.724  0.00  0.00    +0.000 A 
ENDBRANCH  21  24
ENDBRANCH  17  18
ENDBRANCH   4  17
TORSDOF 8
ENDMDL
MODEL 7
REMARK VINA RESULT:      -6.8      2.815      3.188
REMARK  Name = 
REMARK  10 active torsions:
REMARK  status: ('A' for Active; 'I' for Inactive)
REMARK    1  A    between atoms: C_1  and  C_2
REMARK    2  A    between atoms: C_2  and  N_3
REMARK    3  A    between atoms: N_3  and  C_4
REMARK    4  A    between atoms: C_4  and  C_5
REMARK    5  A    between atoms: C_6  and  C_8
REMARK    6  A    between atoms: C_8  and  O_9
REMARK    7  A    between atoms: O_9  and  C_10
REMARK    8  A    between atoms: C_13  and  C_14
REMARK    9  A    between atoms: C_14  and  N_15
REMARK   10  A    between atoms: N_18  and  C_19
REMARK                            x       y       z     vdW  Elec       q    Type
REMARK                         _______ _______ _______ _____ _____    ______ ____
ROOT
ATOM      1  C   UNL     1       2.740   5.475  18.969  0.00  0.00    +0.000 A 
ATOM      2  C   UNL     1       2.749   6.607  18.247  0.00  0.00    +0.000 A 
ATOM      3  O   UNL     1       2.301   7.837  18.676  0.00  0.00    +0.000 OA
ATOM      4  C   UNL     1       1.666   7.916  19.905  0.00  0.00    +0.000 A 
ATOM      5  C   UNL     1       1.490   6.834  20.683  0.00  0.00    +0.000 A 
ATOM      6  C   UNL     1       2.167   5.588  20.341  0.00  0.00    +0.000 A 
ATOM      7  O   UNL     1       2.251   4.723  21.213  0.00  0.00    +0.000 OA
ENDROOT
BRANCH   1   8
ATOM      8  O   UNL     1       3.271   4.302  18.448  0.00  0.00    +0.000 OA
BRANCH   8   9
ATOM      9  C   UNL     1       4.418   3.821  19.139  0.00  0.00    +0.000 C 
BRANCH   9  11
ATOM     10  N   UNL     1       6.141   4.620  17.527  0.00  0.00    +0.000 N 
ATOM     11  C   UNL     1       5.705   4.596  18.862  0.00  0.00    +0.000 C 
ATOM     12  O   UNL     1       6.326   5.157  19.765  0.00  0.00    +0.000 OA
BRANCH  10  14
ATOM     13  C   UNL     1       7.146   6.904  17.370  0.00  0.00    +0.000 C 
ATOM     14  C   UNL     1       7.343   5.404  17.233  0.00  0.00    +0.000 C 
ENDBRANCH  10  14
BRANCH  10  15
ATOM     15  C   UNL     1       5.428   4.001  16.398  0.00  0.00    +0.000 C 
ATOM     16  C   UNL     1       5.954   4.379  15.021  0.00  0.00    +0.000 C 
ENDBRANCH  10  15
ENDBRANCH   9  11
ENDBRANCH   8   9
ENDBRANCH   1   8
BRANCH   4  17
ATOM     17  C   UNL     1       1.264   9.304  20.365  0.00  0.00    +0.000 C 
BRANCH  17  18
ATOM     18  N   UNL     1       0.628  10.101  19.300  0.00  0.00    +0.000 NA
ATOM     19  C   UNL     1      -0.776  10.489  19.575  0.00  0.00    +0.000 C 
ATOM     20  C   UNL     1      -1.052  11.788  20.367  0.00  0.00    +0.000 C 
ATOM     21  N   UNL     1      -0.164  12.871  19.936  0.00  0.00    +0.000 N 
ATOM     22  C   UNL     1       1.257  12.511  19.828  0.00  0.00    +0.000 C 
ATOM     23  C   UNL     1       1.413  11.284  18.907  0.00  0.00    +0.000 C 
BRANCH  21  24
ATOM     24  C   UNL     1      -0.589  14.189  19.924  0.00  0.00    +0.000 A 
ATOM     25  C   UNL     1      -1.588  14.665  20.791  0.00  0.00    +0.000 A 
ATOM     26  C   UNL     1      -2.084  15.971  20.703  0.00  0.00    +0.000 A 
ATOM     27  C   UNL     1      -1.585  16.841  19.741  0.00  0.00    +0.000 A 
ATOM     28  C   UNL     1      -0.580  16.403  18.889  0.00  0.00    +0.000 A 
ATOM     29 CL   UNL     1       0.042  17.463  17.683  0.00  0.00    +0.000 Cl
ATOM     30  C   UNL     1      -0.086  15.099  18.983  0.00  0.00    +0.000 A 
ENDBRANCH  21  24
ENDBRANCH  17  18
ENDBRANCH   4  17
TORSDOF 8
ENDMDL
MODEL 8
REMARK VINA RESULT:      -6.7      1.316      1.879
REMARK  Name = 
REMARK  10 active torsions:
REMARK  status: ('A' for Active; 'I' for Inactive)
REMARK    1  A    between atoms: C_1  and  C_2
REMARK    2  A    between atoms: C_2  and  N_3
REMARK    3  A    between atoms: N_3  and  C_4
REMARK    4  A    between atoms: C_4  and  C_5
REMARK    5  A    between atoms: C_6  and  C_8
REMARK    6  A    between atoms: C_8  and  O_9
REMARK    7  A    between atoms: O_9  and  C_10
REMARK    8  A    between atoms: C_13  and  C_14
REMARK    9  A    between atoms: C_14  and  N_15
REMARK   10  A    between atoms: N_18  and  C_19
REMARK                            x       y       z     vdW  Elec       q    Type
REMARK                         _______ _______ _______ _____ _____    ______ ____
ROOT
ATOM      1  C   UNL     1       2.680   5.425  18.791  0.00  0.00    +0.000 A 
ATOM      2  C   UNL     1       2.036   5.413  19.970  0.00  0.00    +0.000 A 
ATOM      3  O   UNL     1       1.610   6.525  20.663  0.00  0.00    +0.000 OA
ATOM      4  C   UNL     1       1.975   7.776  20.192  0.00  0.00    +0.000 A 
ATOM      5  C   UNL     1       2.716   7.927  19.081  0.00  0.00    +0.000 A 
ATOM      6  C   UNL     1       2.964   6.774  18.223  0.00  0.00    +0.000 A 
ATOM      7  O   UNL     1       3.361   6.986  17.078  0.00  0.00    +0.000 OA
ENDROOT
BRANCH   1   8
ATOM      8  O   UNL     1       3.011   4.234  18.158  0.00  0.00    +0.000 OA
BRANCH   8   9
ATOM      9  C   UNL     1       4.139   3.568  18.715  0.00  0.00    +0.000 C 
BRANCH   9  11
ATOM     10  N   UNL     1       6.080   4.477  17.445  0.00  0.00    +0.000 N 
ATOM     11  C   UNL     1       5.435   4.374  18.688  0.00  0.00    +0.000 C 
ATOM     12  O   UNL     1       5.891   4.895  19.707  0.00  0.00    +0.000 OA
BRANCH  10  14
ATOM     13  C   UNL     1       7.032   6.788  17.403  0.00  0.00    +0.000 C 
ATOM     14  C   UNL     1       7.295   5.291  17.388  0.00  0.00    +0.000 C 
ENDBRANCH  10  14
BRANCH  10  15
ATOM     15  C   UNL     1       5.571   3.909  16.185  0.00  0.00    +0.000 C 
ATOM     16  C   UNL     1       5.572   4.867  15.002  0.00  0.00    +0.000 C 
ENDBRANCH  10  15
ENDBRANCH   9  11
ENDBRANCH   8   9
ENDBRANCH   1   8
BRANCH   4  17
ATOM     17  C   UNL     1       1.415   8.967  20.946  0.00  0.00    +0.000 C 
BRANCH  17  18
ATOM     18  N   UNL     1      -0.058   8.959  21.021  0.00  0.00    +0.000 NA
ATOM     19  C   UNL     1      -0.607   9.046  22.395  0.00  0.00    +0.000 C 
ATOM     20  C   UNL     1      -0.832  10.440  23.024  0.00  0.00    +0.000 C 
ATOM     21  N   UNL     1      -1.401  11.376  22.050  0.00  0.00    +0.000 N 
ATOM     22  C   UNL     1      -0.737  11.396  20.739  0.00  0.00    +0.000 C 
ATOM     23  C   UNL     1      -0.693   9.968  20.157  0.00  0.00    +0.000 C 
BRANCH  21  24
ATOM     24  C   UNL     1      -2.292  12.362  22.435  0.00  0.00    +0.000 A 
ATOM     25  C   UNL     1      -3.379  12.750  21.632  0.00  0.00    +0.000 A 
ATOM     26  C   UNL     1      -4.215  13.818  21.981  0.00  0.00    +0.000 A 
ATOM     27  C   UNL     1      -3.984  14.526  23.154  0.00  0.00    +0.000 A 
ATOM     28  C   UNL     1      -2.932  14.148  23.977  0.00  0.00    +0.000 A 
ATOM     29 CL   UNL     1      -2.623  15.021  25.429  0.00  0.00    +0.000 Cl
ATOM     30  C   UNL     1      -2.103  13.079  23.625  0.00  0.00    +0.000 A 
ENDBRANCH  21  24
ENDBRANCH  17  18
ENDBRANCH   4  17
TORSDOF 8
ENDMDL
MODEL 9
REMARK VINA RESULT:      -6.7      2.359      3.260
REMARK  Name = 
REMARK  10 active torsions:
REMARK  status: ('A' for Active; 'I' for Inactive)
REMARK    1  A    between atoms: C_1  and  C_2
REMARK    2  A    between atoms: C_2  and  N_3
REMARK    3  A    between atoms: N_3  and  C_4
REMARK    4  A    between atoms: C_4  and  C_5
REMARK    5  A    between atoms: C_6  and  C_8
REMARK    6  A    between atoms: C_8  and  O_9
REMARK    7  A    between atoms: O_9  and  C_10
REMARK    8  A    between atoms: C_13  and  C_14
REMARK    9  A    between atoms: C_14  and  N_15
REMARK   10  A    between atoms: N_18  and  C_19
REMARK                            x       y       z     vdW  Elec       q    Type
REMARK                         _______ _______ _______ _____ _____    ______ ____
ROOT
ATOM      1  C   UNL     1       4.155   3.788  17.936  0.00  0.00    +0.000 A 
ATOM      2  C   UNL     1       4.603   4.402  19.044  0.00  0.00    +0.000 A 
ATOM      3  O   UNL     1       3.837   5.143  19.917  0.00  0.00    +0.000 OA
ATOM      4  C   UNL     1       2.517   5.400  19.582  0.00  0.00    +0.000 A 
ATOM      5  C   UNL     1       1.972   4.938  18.444  0.00  0.00    +0.000 A 
ATOM      6  C   UNL     1       2.704   3.964  17.642  0.00  0.00    +0.000 A 
ATOM      7  O   UNL     1       2.074   3.328  16.798  0.00  0.00    +0.000 OA
ENDROOT
BRANCH   1   8
ATOM      8  O   UNL     1       5.013   3.019  17.161  0.00  0.00    +0.000 OA
BRANCH   8   9
ATOM      9  C   UNL     1       5.668   3.740  16.122  0.00  0.00    +0.000 C 
BRANCH   9  11
ATOM     10  N   UNL     1       6.514   6.053  16.499  0.00  0.00    +0.000 N 
ATOM     11  C   UNL     1       6.778   4.677  16.596  0.00  0.00    +0.000 C 
ATOM     12  O   UNL     1       7.847   4.243  17.027  0.00  0.00    +0.000 OA
BRANCH  10  14
ATOM     13  C   UNL     1       7.823   6.822  18.485  0.00  0.00    +0.000 C 
ATOM     14  C   UNL     1       7.543   6.966  16.998  0.00  0.00    +0.000 C 
ENDBRANCH  10  14
BRANCH  10  15
ATOM     15  C   UNL     1       5.247   6.634  16.026  0.00  0.00    +0.000 C 
ATOM     16  C   UNL     1       4.437   7.362  17.090  0.00  0.00    +0.000 C 
ENDBRANCH  10  15
ENDBRANCH   9  11
ENDBRANCH   8   9
ENDBRANCH   1   8
BRANCH   4  17
ATOM     17  C   UNL     1       1.697   6.152  20.613  0.00  0.00    +0.000 C 
BRANCH  17  18
ATOM     18  N   UNL     1       2.042   7.583  20.690  0.00  0.00    +0.000 NA
ATOM     19  C   UNL     1       1.970   8.306  19.398  0.00  0.00    +0.000 C 
ATOM     20  C   UNL     1       0.618   8.911  18.954  0.00  0.00    +0.000 C 
ATOM     21  N   UNL     1      -0.074   9.547  20.079  0.00  0.00    +0.000 N 
ATOM     22  C   UNL     1      -0.137   8.744  21.309  0.00  0.00    +0.000 C 
ATOM     23  C   UNL     1       1.285   8.313  21.721  0.00  0.00    +0.000 C 
BRANCH  21  24
ATOM     24  C   UNL     1      -0.854  10.675  19.899  0.00  0.00    +0.000 A 
ATOM     25  C   UNL     1      -0.776  11.788  20.755  0.00  0.00    +0.000 A 
ATOM     26  C   UNL     1      -1.641  12.883  20.628  0.00  0.00    +0.000 A 
ATOM     27  C   UNL     1      -2.608  12.892  19.631  0.00  0.00    +0.000 A 
ATOM     28  C   UNL     1      -2.690  11.816  18.757  0.00  0.00    +0.000 A 
ATOM     29 CL   UNL     1      -3.890  11.804  17.522  0.00  0.00    +0.000 Cl
ATOM     30  C   UNL     1      -1.822  10.728  18.886  0.00  0.00    +0.000 A 
ENDBRANCH  21  24
ENDBRANCH  17  18
ENDBRANCH   4  17
TORSDOF 8
ENDMDL
