MODEL 1
REMARK VINA RESULT:      -7.8      0.000      0.000
REMARK  Name = 
REMARK  9 active torsions:
REMARK  status: ('A' for Active; 'I' for Inactive)
REMARK    1  A    between atoms: C_1  and  C_2
REMARK    2  A    between atoms: C_2  and  N_3
REMARK    3  A    between atoms: N_3  and  C_4
REMARK    4  A    between atoms: N_3  and  C_6
REMARK    5  A    between atoms: C_4  and  C_5
REMARK    6  A    between atoms: C_6  and  C_7
REMARK    7  A    between atoms: C_7  and  N_8
REMARK    8  A    between atoms: N_12  and  C_13
REMARK    9  A    between atoms: N_22  and  C_23
REMARK                            x       y       z     vdW  Elec       q    Type
REMARK                         _______ _______ _______ _____ _____    ______ ____
ROOT
ATOM      1  N   UNL     1       7.678   7.832  17.164  0.00  0.00    +0.000 N 
ATOM      2  C   UNL     1       6.629   6.938  17.121  0.00  0.00    +0.000 A 
ATOM      3  N   UNL     1       6.618   6.094  16.097  0.00  0.00    +0.000 NA
ATOM      4  C   UNL     1       5.542   5.299  16.034  0.00  0.00    +0.000 A 
ATOM      5  N   UNL     1       5.370   4.399  15.000  0.00  0.00    +0.000 N 
ATOM      6  N   UNL     1       4.579   5.303  16.935  0.00  0.00    +0.000 NA
ATOM      7  C   UNL     1       4.710   6.133  17.953  0.00  0.00    +0.000 A 
ATOM      8  N   UNL     1       3.799   6.089  18.976  0.00  0.00    +0.000 N 
ATOM      9  N   UNL     1       5.692   7.011  18.056  0.00  0.00    +0.000 NA
ATOM     10  H   UNL     1       8.337   7.709  16.409  0.00  0.00    +0.000 HD
ATOM     11  H   UNL     1       4.420   4.350  14.670  0.00  0.00    +0.000 HD
ATOM     12  H   UNL     1       3.487   7.002  19.279  0.00  0.00    +0.000 HD
ENDROOT
BRANCH   8  13
ATOM     13  C   UNL     1       3.079   4.882  19.355  0.00  0.00    +0.000 C 
ATOM     14  C   UNL     1       4.076   3.709  19.566  0.00  0.00    +0.000 C 
ATOM     15  C   UNL     1       3.328   2.443  20.012  0.00  0.00    +0.000 C 
ATOM     16  C   UNL     1       2.616   2.720  21.344  0.00  0.00    +0.000 C 
ATOM     17  C   UNL     1       1.615   3.875  21.176  0.00  0.00    +0.000 C 
ATOM     18  C   UNL     1       0.571   3.489  20.116  0.00  0.00    +0.000 C 
ATOM     19  C   UNL     1       1.264   3.213  18.779  0.00  0.00    +0.000 C 
ATOM     20  C   UNL     1       2.286   2.074  18.944  0.00  0.00    +0.000 C 
ATOM     21  C   UNL     1       1.992   4.484  18.328  0.00  0.00    +0.000 C 
ATOM     22  C   UNL     1       2.371   5.137  20.715  0.00  0.00    +0.000 C 
ENDBRANCH   8  13
BRANCH   5  23
ATOM     23  C   UNL     1       6.473   3.890  14.212  0.00  0.00    +0.000 C 
ATOM     24  C   UNL     1       5.945   2.889  13.166  0.00  0.00    +0.000 C 
ATOM     25  C   UNL     1       5.203   3.478  11.973  0.00  0.00    +0.000 C 
ATOM     26  C   UNL     1       6.133   3.915  10.845  0.00  0.00    +0.000 C 
ATOM     27  C   UNL     1       7.114   5.044  11.155  0.00  0.00    +0.000 C 
ATOM     28  C   UNL     1       8.036   4.808  12.350  0.00  0.00    +0.000 C 
ATOM     29  C   UNL     1       7.336   5.045  13.689  0.00  0.00    +0.000 C 
ENDBRANCH   5  23
BRANCH   1  30
ATOM     30  C   UNL     1       8.114   8.451  18.418  0.00  0.00    +0.000 C 
BRANCH  30  31
ATOM     31  C   UNL     1       8.409   9.971  18.281  0.00  0.00    +0.000 C 
BRANCH  31  32
ATOM     32  N   UNL     1       9.641  10.488  18.946  0.00  0.00    +0.000 NA
BRANCH  32  34
ATOM     33  C   UNL     1      11.691  11.753  18.129  0.00  0.00    +0.000 C 
ATOM     34  C   UNL     1      10.163  11.659  18.203  0.00  0.00    +0.000 C 
ENDBRANCH  32  34
BRANCH  32  35
ATOM     35  C   UNL     1       9.492  10.785  20.381  0.00  0.00    +0.000 C 
ATOM     36  C   UNL     1       9.119  12.220  20.747  0.00  0.00    +0.000 C 
ENDBRANCH  32  35
ENDBRANCH  31  32
ENDBRANCH  30  31
ENDBRANCH   1  30
TORSDOF 7
ENDMDL
MODEL 2
REMARK VINA RESULT:      -7.8      0.169      1.327
REMARK  Name = 
REMARK  9 active torsions:
REMARK  status: ('A' for Active; 'I' for Inactive)
REMARK    1  A    between atoms: C_1  and  C_2
REMARK    2  A    between atoms: C_2  and  N_3
REMARK    3  A    between atoms: N_3  and  C_4
REMARK    4  A    between atoms: N_3  and  C_6
REMARK    5  A    between atoms: C_4  and  C_5
REMARK    6  A    between atoms: C_6  and  C_7
REMARK    7  A    between atoms: C_7  and  N_8
REMARK    8  A    between atoms: N_12  and  C_13
REMARK    9  A    between atoms: N_22  and  C_23
REMARK                            x       y       z     vdW  Elec       q    Type
REMARK                         _______ _______ _______ _____ _____    ______ ____
ROOT
ATOM      1  N   UNL     1       7.704   7.887  17.184  0.00  0.00    +0.000 N 
ATOM      2  C   UNL     1       6.651   6.996  17.149  0.00  0.00    +0.000 A 
ATOM      3  N   UNL     1       6.637   6.144  16.131  0.00  0.00    +0.000 NA
ATOM      4  C   UNL     1       5.558   5.353  16.074  0.00  0.00    +0.000 A 
ATOM      5  N   UNL     1       5.382   4.445  15.048  0.00  0.00    +0.000 N 
ATOM      6  N   UNL     1       4.594   5.369  16.974  0.00  0.00    +0.000 NA
ATOM      7  C   UNL     1       4.729   6.205  17.986  0.00  0.00    +0.000 A 
ATOM      8  N   UNL     1       3.817   6.174  19.009  0.00  0.00    +0.000 N 
ATOM      9  N   UNL     1       5.714   7.080  18.083  0.00  0.00    +0.000 NA
ATOM     10  H   UNL     1       8.362   7.755  16.430  0.00  0.00    +0.000 HD
ATOM     11  H   UNL     1       4.433   4.398  14.717  0.00  0.00    +0.000 HD
ATOM     12  H   UNL     1       3.508   7.091  19.305  0.00  0.00    +0.000 HD
ENDROOT
BRANCH   8  13
ATOM     13  C   UNL     1       3.092   4.973  19.397  0.00  0.00    +0.000 C 
ATOM     14  C   UNL     1       2.070   4.584  18.294  0.00  0.00    +0.000 C 
ATOM     15  C   UNL     1       1.334   3.291  18.675  0.00  0.00    +0.000 C 
ATOM     16  C   UNL     1       2.354   2.151  18.813  0.00  0.00    +0.000 C 
ATOM     17  C   UNL     1       3.385   2.496  19.901  0.00  0.00    +0.000 C 
ATOM     18  C   UNL     1       2.658   2.688  21.242  0.00  0.00    +0.000 C 
ATOM     19  C   UNL     1       1.638   3.825  21.124  0.00  0.00    +0.000 C 
ATOM     20  C   UNL     1       0.618   3.499  20.019  0.00  0.00    +0.000 C 
ATOM     21  C   UNL     1       2.379   5.117  20.763  0.00  0.00    +0.000 C 
ATOM     22  C   UNL     1       4.108   3.802  19.518  0.00  0.00    +0.000 C 
ENDBRANCH   8  13
BRANCH   5  23
ATOM     23  C   UNL     1       6.483   3.926  14.264  0.00  0.00    +0.000 C 
ATOM     24  C   UNL     1       5.955   2.899  13.243  0.00  0.00    +0.000 C 
ATOM     25  C   UNL     1       5.202   3.459  12.042  0.00  0.00    +0.000 C 
ATOM     26  C   UNL     1       6.124   3.876  10.899  0.00  0.00    +0.000 C 
ATOM     27  C   UNL     1       7.100   5.017  11.179  0.00  0.00    +0.000 C 
ATOM     28  C   UNL     1       8.031   4.812  12.374  0.00  0.00    +0.000 C 
ATOM     29  C   UNL     1       7.337   5.073  13.711  0.00  0.00    +0.000 C 
ENDBRANCH   5  23
BRANCH   1  30
ATOM     30  C   UNL     1       8.142   8.513  18.433  0.00  0.00    +0.000 C 
BRANCH  30  31
ATOM     31  C   UNL     1       8.603   9.987  18.251  0.00  0.00    +0.000 C 
BRANCH  31  32
ATOM     32  N   UNL     1       9.714  10.466  19.125  0.00  0.00    +0.000 NA
BRANCH  32  34
ATOM     33  C   UNL     1      11.944  11.626  18.733  0.00  0.00    +0.000 C 
ATOM     34  C   UNL     1      10.435  11.577  18.462  0.00  0.00    +0.000 C 
ENDBRANCH  32  34
BRANCH  32  35
ATOM     35  C   UNL     1       9.311  10.827  20.495  0.00  0.00    +0.000 C 
ATOM     36  C   UNL     1       9.116  12.315  20.780  0.00  0.00    +0.000 C 
ENDBRANCH  32  35
ENDBRANCH  31  32
ENDBRANCH  30  31
ENDBRANCH   1  30
TORSDOF 7
ENDMDL
MODEL 3
REMARK VINA RESULT:      -7.7      0.131      1.312
REMARK  Name = 
REMARK  9 active torsions:
REMARK  status: ('A' for Active; 'I' for Inactive)
REMARK    1  A    between atoms: C_1  and  C_2
REMARK    2  A    between atoms: C_2  and  N_3
REMARK    3  A    between atoms: N_3  and  C_4
REMARK    4  A    between atoms: N_3  and  C_6
REMARK    5  A    between atoms: C_4  and  C_5
REMARK    6  A    between atoms: C_6  and  C_7
REMARK    7  A    between atoms: C_7  and  N_8
REMARK    8  A    between atoms: N_12  and  C_13
REMARK    9  A    between atoms: N_22  and  C_23
REMARK                            x       y       z     vdW  Elec       q    Type
REMARK                         _______ _______ _______ _____ _____    ______ ____
ROOT
ATOM      1  N   UNL     1       7.691   7.873  17.167  0.00  0.00    +0.000 N 
ATOM      2  C   UNL     1       6.651   6.967  17.140  0.00  0.00    +0.000 A 
ATOM      3  N   UNL     1       6.641   6.117  16.120  0.00  0.00    +0.000 NA
ATOM      4  C   UNL     1       5.574   5.310  16.071  0.00  0.00    +0.000 A 
ATOM      5  N   UNL     1       5.402   4.401  15.045  0.00  0.00    +0.000 N 
ATOM      6  N   UNL     1       4.619   5.307  16.982  0.00  0.00    +0.000 NA
ATOM      7  C   UNL     1       4.751   6.143  17.994  0.00  0.00    +0.000 A 
ATOM      8  N   UNL     1       3.850   6.095  19.026  0.00  0.00    +0.000 N 
ATOM      9  N   UNL     1       5.723   7.033  18.084  0.00  0.00    +0.000 NA
ATOM     10  H   UNL     1       8.343   7.754  16.406  0.00  0.00    +0.000 HD
ATOM     11  H   UNL     1       4.450   4.340  14.724  0.00  0.00    +0.000 HD
ATOM     12  H   UNL     1       3.530   7.006  19.328  0.00  0.00    +0.000 HD
ENDROOT
BRANCH   8  13
ATOM     13  C   UNL     1       3.148   4.882  19.418  0.00  0.00    +0.000 C 
ATOM     14  C   UNL     1       2.394   5.109  20.758  0.00  0.00    +0.000 C 
ATOM     15  C   UNL     1       1.613   3.846  21.155  0.00  0.00    +0.000 C 
ATOM     16  C   UNL     1       0.579   3.529  20.064  0.00  0.00    +0.000 C 
ATOM     17  C   UNL     1       1.286   3.293  18.719  0.00  0.00    +0.000 C 
ATOM     18  C   UNL     1       2.253   2.106  18.859  0.00  0.00    +0.000 C 
ATOM     19  C   UNL     1       3.295   2.408  19.941  0.00  0.00    +0.000 C 
ATOM     20  C   UNL     1       2.593   2.670  21.285  0.00  0.00    +0.000 C 
ATOM     21  C   UNL     1       4.085   3.655  19.531  0.00  0.00    +0.000 C 
ATOM     22  C   UNL     1       2.079   4.558  18.336  0.00  0.00    +0.000 C 
ENDBRANCH   8  13
BRANCH   5  23
ATOM     23  C   UNL     1       6.503   3.902  14.248  0.00  0.00    +0.000 C 
ATOM     24  C   UNL     1       5.976   2.894  13.208  0.00  0.00    +0.000 C 
ATOM     25  C   UNL     1       5.219   3.474  12.020  0.00  0.00    +0.000 C 
ATOM     26  C   UNL     1       6.136   3.917  10.884  0.00  0.00    +0.000 C 
ATOM     27  C   UNL     1       7.109   5.056  11.184  0.00  0.00    +0.000 C 
ATOM     28  C   UNL     1       8.043   4.831  12.372  0.00  0.00    +0.000 C 
ATOM     29  C   UNL     1       7.352   5.063  13.717  0.00  0.00    +0.000 C 
ENDBRANCH   5  23
BRANCH   1  30
ATOM     30  C   UNL     1       8.132   8.504  18.414  0.00  0.00    +0.000 C 
BRANCH  30  31
ATOM     31  C   UNL     1       8.439  10.020  18.258  0.00  0.00    +0.000 C 
BRANCH  31  32
ATOM     32  N   UNL     1       9.751  10.505  18.779  0.00  0.00    +0.000 NA
BRANCH  32  34
ATOM     33  C   UNL     1      11.784  11.869  18.088  0.00  0.00    +0.000 C 
ATOM     34  C   UNL     1      10.303  11.540  17.872  0.00  0.00    +0.000 C 
ENDBRANCH  32  34
BRANCH  32  35
ATOM     35  C   UNL     1       9.729  10.971  20.175  0.00  0.00    +0.000 C 
ATOM     36  C   UNL     1       9.068  12.323  20.435  0.00  0.00    +0.000 C 
ENDBRANCH  32  35
ENDBRANCH  31  32
ENDBRANCH  30  31
ENDBRANCH   1  30
TORSDOF 7
ENDMDL
MODEL 4
REMARK VINA RESULT:      -7.5      0.377      1.700
REMARK  Name = 
REMARK  9 active torsions:
REMARK  status: ('A' for Active; 'I' for Inactive)
REMARK    1  A    between atoms: C_1  and  C_2
REMARK    2  A    between atoms: C_2  and  N_3
REMARK    3  A    between atoms: N_3  and  C_4
REMARK    4  A    between atoms: N_3  and  C_6
REMARK    5  A    between atoms: C_4  and  C_5
REMARK    6  A    between atoms: C_6  and  C_7
REMARK    7  A    between atoms: C_7  and  N_8
REMARK    8  A    between atoms: N_12  and  C_13
REMARK    9  A    between atoms: N_22  and  C_23
REMARK                            x       y       z     vdW  Elec       q    Type
REMARK                         _______ _______ _______ _____ _____    ______ ____
ROOT
ATOM      1  N   UNL     1       7.374   8.054  17.083  0.00  0.00    +0.000 N 
ATOM      2  C   UNL     1       6.383   7.093  17.067  0.00  0.00    +0.000 A 
ATOM      3  N   UNL     1       6.445   6.205  16.083  0.00  0.00    +0.000 NA
ATOM      4  C   UNL     1       5.422   5.341  16.041  0.00  0.00    +0.000 A 
ATOM      5  N   UNL     1       5.325   4.384  15.049  0.00  0.00    +0.000 N 
ATOM      6  N   UNL     1       4.444   5.325  16.926  0.00  0.00    +0.000 NA
ATOM      7  C   UNL     1       4.505   6.206  17.906  0.00  0.00    +0.000 A 
ATOM      8  N   UNL     1       3.580   6.152  18.917  0.00  0.00    +0.000 N 
ATOM      9  N   UNL     1       5.427   7.149  17.984  0.00  0.00    +0.000 NA
ATOM     10  H   UNL     1       8.052   7.939  16.345  0.00  0.00    +0.000 HD
ATOM     11  H   UNL     1       4.387   4.260  14.707  0.00  0.00    +0.000 HD
ATOM     12  H   UNL     1       3.205   7.056  19.172  0.00  0.00    +0.000 HD
ENDROOT
BRANCH   8  13
ATOM     13  C   UNL     1       2.931   4.920  19.341  0.00  0.00    +0.000 C 
ATOM     14  C   UNL     1       1.962   4.417  18.235  0.00  0.00    +0.000 C 
ATOM     15  C   UNL     1       1.308   3.092  18.656  0.00  0.00    +0.000 C 
ATOM     16  C   UNL     1       2.401   2.032  18.862  0.00  0.00    +0.000 C 
ATOM     17  C   UNL     1       3.382   2.491  19.954  0.00  0.00    +0.000 C 
ATOM     18  C   UNL     1       2.614   2.687  21.271  0.00  0.00    +0.000 C 
ATOM     19  C   UNL     1       1.521   3.744  21.086  0.00  0.00    +0.000 C 
ATOM     20  C   UNL     1       0.550   3.304  19.976  0.00  0.00    +0.000 C 
ATOM     21  C   UNL     1       2.179   5.069  20.685  0.00  0.00    +0.000 C 
ATOM     22  C   UNL     1       4.022   3.828  19.531  0.00  0.00    +0.000 C 
ENDBRANCH   8  13
BRANCH   5  23
ATOM     23  C   UNL     1       6.472   3.912  14.302  0.00  0.00    +0.000 C 
ATOM     24  C   UNL     1       6.020   2.869  13.261  0.00  0.00    +0.000 C 
ATOM     25  C   UNL     1       5.287   3.403  12.036  0.00  0.00    +0.000 C 
ATOM     26  C   UNL     1       6.229   3.860  10.926  0.00  0.00    +0.000 C 
ATOM     27  C   UNL     1       7.149   5.037  11.242  0.00  0.00    +0.000 C 
ATOM     28  C   UNL     1       8.046   4.865  12.467  0.00  0.00    +0.000 C 
ATOM     29  C   UNL     1       7.298   5.094  13.781  0.00  0.00    +0.000 C 
ENDBRANCH   5  23
BRANCH   1  30
ATOM     30  C   UNL     1       7.747   8.756  18.313  0.00  0.00    +0.000 C 
BRANCH  30  31
ATOM     31  C   UNL     1       8.961   9.710  18.130  0.00  0.00    +0.000 C 
BRANCH  31  32
ATOM     32  N   UNL     1       8.939  10.993  18.892  0.00  0.00    +0.000 NA
BRANCH  32  34
ATOM     33  C   UNL     1       9.611  12.043  21.110  0.00  0.00    +0.000 C 
ATOM     34  C   UNL     1       9.675  10.834  20.169  0.00  0.00    +0.000 C 
ENDBRANCH  32  34
BRANCH  32  35
ATOM     35  C   UNL     1       9.413  12.167  18.141  0.00  0.00    +0.000 C 
ATOM     36  C   UNL     1      10.839  12.102  17.598  0.00  0.00    +0.000 C 
ENDBRANCH  32  35
ENDBRANCH  31  32
ENDBRANCH  30  31
ENDBRANCH   1  30
TORSDOF 7
ENDMDL
MODEL 5
REMARK VINA RESULT:      -7.4      0.562      1.111
REMARK  Name = 
REMARK  9 active torsions:
REMARK  status: ('A' for Active; 'I' for Inactive)
REMARK    1  A    between atoms: C_1  and  C_2
REMARK    2  A    between atoms: C_2  and  N_3
REMARK    3  A    between atoms: N_3  and  C_4
REMARK    4  A    between atoms: N_3  and  C_6
REMARK    5  A    between atoms: C_4  and  C_5
REMARK    6  A    between atoms: C_6  and  C_7
REMARK    7  A    between atoms: C_7  and  N_8
REMARK    8  A    between atoms: N_12  and  C_13
REMARK    9  A    between atoms: N_22  and  C_23
REMARK                            x       y       z     vdW  Elec       q    Type
REMARK                         _______ _______ _______ _____ _____    ______ ____
ROOT
ATOM      1  N   UNL     1       7.574   7.930  17.118  0.00  0.00    +0.000 N 
ATOM      2  C   UNL     1       6.553   7.001  17.090  0.00  0.00    +0.000 A 
ATOM      3  N   UNL     1       6.576   6.136  16.085  0.00  0.00    +0.000 NA
ATOM      4  C   UNL     1       5.526   5.305  16.033  0.00  0.00    +0.000 A 
ATOM      5  N   UNL     1       5.388   4.377  15.019  0.00  0.00    +0.000 N 
ATOM      6  N   UNL     1       4.558   5.299  16.929  0.00  0.00    +0.000 NA
ATOM      7  C   UNL     1       4.657   6.154  17.929  0.00  0.00    +0.000 A 
ATOM      8  N   UNL     1       3.741   6.104  18.948  0.00  0.00    +0.000 N 
ATOM      9  N   UNL     1       5.609   7.065  18.018  0.00  0.00    +0.000 NA
ATOM     10  H   UNL     1       8.240   7.811  16.369  0.00  0.00    +0.000 HD
ATOM     11  H   UNL     1       4.443   4.291  14.685  0.00  0.00    +0.000 HD
ATOM     12  H   UNL     1       3.399   7.013  19.230  0.00  0.00    +0.000 HD
ENDROOT
BRANCH   8  13
ATOM     13  C   UNL     1       3.058   4.883  19.350  0.00  0.00    +0.000 C 
ATOM     14  C   UNL     1       4.092   3.755  19.620  0.00  0.00    +0.000 C 
ATOM     15  C   UNL     1       3.382   2.476  20.089  0.00  0.00    +0.000 C 
ATOM     16  C   UNL     1       2.629   2.767  21.397  0.00  0.00    +0.000 C 
ATOM     17  C   UNL     1       1.591   3.879  21.171  0.00  0.00    +0.000 C 
ATOM     18  C   UNL     1       0.586   3.421  20.101  0.00  0.00    +0.000 C 
ATOM     19  C   UNL     1       1.319   3.129  18.788  0.00  0.00    +0.000 C 
ATOM     20  C   UNL     1       2.378   2.036  19.012  0.00  0.00    +0.000 C 
ATOM     21  C   UNL     1       2.009   4.412  18.313  0.00  0.00    +0.000 C 
ATOM     22  C   UNL     1       2.310   5.153  20.686  0.00  0.00    +0.000 C 
ENDBRANCH   8  13
BRANCH   5  23
ATOM     23  C   UNL     1       6.512   3.887  14.248  0.00  0.00    +0.000 C 
ATOM     24  C   UNL     1       6.023   2.846  13.223  0.00  0.00    +0.000 C 
ATOM     25  C   UNL     1       5.268   3.384  12.013  0.00  0.00    +0.000 C 
ATOM     26  C   UNL     1       6.190   3.824  10.879  0.00  0.00    +0.000 C 
ATOM     27  C   UNL     1       7.132   4.991  11.168  0.00  0.00    +0.000 C 
ATOM     28  C   UNL     1       8.055   4.813  12.373  0.00  0.00    +0.000 C 
ATOM     29  C   UNL     1       7.340   5.057  13.703  0.00  0.00    +0.000 C 
ENDBRANCH   5  23
BRANCH   1  30
ATOM     30  C   UNL     1       7.983   8.589  18.360  0.00  0.00    +0.000 C 
BRANCH  30  31
ATOM     31  C   UNL     1       8.928   9.801  18.128  0.00  0.00    +0.000 C 
BRANCH  31  32
ATOM     32  N   UNL     1       8.754  10.982  19.024  0.00  0.00    +0.000 NA
BRANCH  32  34
ATOM     33  C   UNL     1       9.396  11.918  21.301  0.00  0.00    +0.000 C 
ATOM     34  C   UNL     1       9.455  10.750  20.309  0.00  0.00    +0.000 C 
ENDBRANCH  32  34
BRANCH  32  35
ATOM     35  C   UNL     1       9.136  12.273  18.428  0.00  0.00    +0.000 C 
ATOM     36  C   UNL     1       8.100  12.945  17.530  0.00  0.00    +0.000 C 
ENDBRANCH  32  35
ENDBRANCH  31  32
ENDBRANCH  30  31
ENDBRANCH   1  30
TORSDOF 7
ENDMDL
MODEL 6
REMARK VINA RESULT:      -7.4      0.607      1.722
REMARK  Name = 
REMARK  9 active torsions:
REMARK  status: ('A' for Active; 'I' for Inactive)
REMARK    1  A    between atoms: C_1  and  C_2
REMARK    2  A    between atoms: C_2  and  N_3
REMARK    3  A    between atoms: N_3  and  C_4
REMARK    4  A    between atoms: N_3  and  C_6
REMARK    5  A    between atoms: C_4  and  C_5
REMARK    6  A    between atoms: C_6  and  C_7
REMARK    7  A    between atoms: C_7  and  N_8
REMARK    8  A    between atoms: N_12  and  C_13
REMARK    9  A    between atoms: N_22  and  C_23
REMARK                            x       y       z     vdW  Elec       q    Type
REMARK                         _______ _______ _______ _____ _____    ______ ____
ROOT
ATOM      1  N   UNL     1       7.455   8.055  17.081  0.00  0.00    +0.000 N 
ATOM      2  C   UNL     1       6.467   7.092  17.076  0.00  0.00    +0.000 A 
ATOM      3  N   UNL     1       6.513   6.209  16.087  0.00  0.00    +0.000 NA
ATOM      4  C   UNL     1       5.491   5.343  16.057  0.00  0.00    +0.000 A 
ATOM      5  N   UNL     1       5.379   4.392  15.062  0.00  0.00    +0.000 N 
ATOM      6  N   UNL     1       4.530   5.319  16.960  0.00  0.00    +0.000 NA
ATOM      7  C   UNL     1       4.605   6.196  17.943  0.00  0.00    +0.000 A 
ATOM      8  N   UNL     1       3.698   6.133  18.969  0.00  0.00    +0.000 N 
ATOM      9  N   UNL     1       5.527   7.140  18.010  0.00  0.00    +0.000 NA
ATOM     10  H   UNL     1       8.120   7.945  16.330  0.00  0.00    +0.000 HD
ATOM     11  H   UNL     1       4.435   4.268  14.735  0.00  0.00    +0.000 HD
ATOM     12  H   UNL     1       3.327   7.035  19.237  0.00  0.00    +0.000 HD
ENDROOT
BRANCH   8  13
ATOM     13  C   UNL     1       3.060   4.897  19.398  0.00  0.00    +0.000 C 
ATOM     14  C   UNL     1       2.303   5.122  20.736  0.00  0.00    +0.000 C 
ATOM     15  C   UNL     1       1.588   3.833  21.171  0.00  0.00    +0.000 C 
ATOM     16  C   UNL     1       0.565   3.436  20.096  0.00  0.00    +0.000 C 
ATOM     17  C   UNL     1       1.276   3.201  18.753  0.00  0.00    +0.000 C 
ATOM     18  C   UNL     1       2.301   2.067  18.917  0.00  0.00    +0.000 C 
ATOM     19  C   UNL     1       3.333   2.448  19.984  0.00  0.00    +0.000 C 
ATOM     20  C   UNL     1       2.626   2.711  21.325  0.00  0.00    +0.000 C 
ATOM     21  C   UNL     1       4.057   3.722  19.537  0.00  0.00    +0.000 C 
ATOM     22  C   UNL     1       2.003   4.493  18.332  0.00  0.00    +0.000 C 
ENDBRANCH   8  13
BRANCH   5  23
ATOM     23  C   UNL     1       6.514   3.926  14.292  0.00  0.00    +0.000 C 
ATOM     24  C   UNL     1       6.041   2.915  13.229  0.00  0.00    +0.000 C 
ATOM     25  C   UNL     1       5.302   3.488  12.025  0.00  0.00    +0.000 C 
ATOM     26  C   UNL     1       6.239   3.963  10.918  0.00  0.00    +0.000 C 
ATOM     27  C   UNL     1       7.175   5.123  11.255  0.00  0.00    +0.000 C 
ATOM     28  C   UNL     1       8.081   4.909  12.467  0.00  0.00    +0.000 C 
ATOM     29  C   UNL     1       7.348   5.113  13.793  0.00  0.00    +0.000 C 
ENDBRANCH   5  23
BRANCH   1  30
ATOM     30  C   UNL     1       7.849   8.750  18.308  0.00  0.00    +0.000 C 
BRANCH  30  31
ATOM     31  C   UNL     1       8.926   9.846  18.072  0.00  0.00    +0.000 C 
BRANCH  31  32
ATOM     32  N   UNL     1       8.851  11.069  18.926  0.00  0.00    +0.000 NA
BRANCH  32  34
ATOM     33  C   UNL     1       9.668  11.994  21.150  0.00  0.00    +0.000 C 
ATOM     34  C   UNL     1       9.865  10.996  20.003  0.00  0.00    +0.000 C 
ENDBRANCH  32  34
BRANCH  32  35
ATOM     35  C   UNL     1       8.937  12.342  18.192  0.00  0.00    +0.000 C 
ATOM     36  C   UNL     1       7.815  12.636  17.198  0.00  0.00    +0.000 C 
ENDBRANCH  32  35
ENDBRANCH  31  32
ENDBRANCH  30  31
ENDBRANCH   1  30
TORSDOF 7
ENDMDL
MODEL 7
REMARK VINA RESULT:      -7.4      6.525     11.559
REMARK  Name = 
REMARK  9 active torsions:
REMARK  status: ('A' for Active; 'I' for Inactive)
REMARK    1  A    between atoms: C_1  and  C_2
REMARK    2  A    between atoms: C_2  and  N_3
REMARK    3  A    between atoms: N_3  and  C_4
REMARK    4  A    between atoms: N_3  and  C_6
REMARK    5  A    between atoms: C_4  and  C_5
REMARK    6  A    between atoms: C_6  and  C_7
REMARK    7  A    between atoms: C_7  and  N_8
REMARK    8  A    between atoms: N_12  and  C_13
REMARK    9  A    between atoms: N_22  and  C_23
REMARK                            x       y       z     vdW  Elec       q    Type
REMARK                         _______ _______ _______ _____ _____    ______ ____
ROOT
ATOM      1  N   UNL     1       1.380   8.961  18.025  0.00  0.00    +0.000 N 
ATOM      2  C   UNL     1       1.340  10.318  18.273  0.00  0.00    +0.000 A 
ATOM      3  N   UNL     1       0.236  10.776  18.849  0.00  0.00    +0.000 NA
ATOM      4  C   UNL     1       0.189  12.107  18.995  0.00  0.00    +0.000 A 
ATOM      5  N   UNL     1      -0.914  12.735  19.540  0.00  0.00    +0.000 N 
ATOM      6  N   UNL     1       1.172  12.914  18.646  0.00  0.00    +0.000 NA
ATOM      7  C   UNL     1       2.257  12.358  18.141  0.00  0.00    +0.000 A 
ATOM      8  N   UNL     1       3.351  13.140  17.875  0.00  0.00    +0.000 N 
ATOM      9  N   UNL     1       2.362  11.067  17.882  0.00  0.00    +0.000 NA
ATOM     10  H   UNL     1       0.557   8.474  18.348  0.00  0.00    +0.000 HD
ATOM     11  H   UNL     1      -1.157  13.591  19.069  0.00  0.00    +0.000 HD
ATOM     12  H   UNL     1       3.780  12.946  16.980  0.00  0.00    +0.000 HD
ENDROOT
BRANCH   8  13
ATOM     13  C   UNL     1       3.663  14.355  18.613  0.00  0.00    +0.000 C 
ATOM     14  C   UNL     1       3.414  14.138  20.131  0.00  0.00    +0.000 C 
ATOM     15  C   UNL     1       3.785  15.402  20.922  0.00  0.00    +0.000 C 
ATOM     16  C   UNL     1       5.276  15.707  20.715  0.00  0.00    +0.000 C 
ATOM     17  C   UNL     1       5.566  15.932  19.222  0.00  0.00    +0.000 C 
ATOM     18  C   UNL     1       4.732  17.123  18.720  0.00  0.00    +0.000 C 
ATOM     19  C   UNL     1       3.241  16.834  18.916  0.00  0.00    +0.000 C 
ATOM     20  C   UNL     1       2.948  16.582  20.405  0.00  0.00    +0.000 C 
ATOM     21  C   UNL     1       2.870  15.585  18.109  0.00  0.00    +0.000 C 
ATOM     22  C   UNL     1       5.176  14.666  18.434  0.00  0.00    +0.000 C 
ENDBRANCH   8  13
BRANCH   5  23
ATOM     23  C   UNL     1      -1.854  12.055  20.407  0.00  0.00    +0.000 C 
ATOM     24  C   UNL     1      -1.207  11.815  21.785  0.00  0.00    +0.000 C 
ATOM     25  C   UNL     1      -1.061  13.032  22.691  0.00  0.00    +0.000 C 
ATOM     26  C   UNL     1      -2.314  13.320  23.513  0.00  0.00    +0.000 C 
ATOM     27  C   UNL     1      -3.578  13.692  22.739  0.00  0.00    +0.000 C 
ATOM     28  C   UNL     1      -4.028  12.681  21.685  0.00  0.00    +0.000 C 
ATOM     29  C   UNL     1      -3.210  12.771  20.396  0.00  0.00    +0.000 C 
ENDBRANCH   5  23
BRANCH   1  30
ATOM     30  C   UNL     1       2.647   8.240  17.884  0.00  0.00    +0.000 C 
BRANCH  30  31
ATOM     31  C   UNL     1       2.586   6.783  18.424  0.00  0.00    +0.000 C 
BRANCH  31  32
ATOM     32  N   UNL     1       3.722   5.880  18.076  0.00  0.00    +0.000 NA
BRANCH  32  34
ATOM     33  C   UNL     1       1.679   4.417  17.679  0.00  0.00    +0.000 C 
ATOM     34  C   UNL     1       3.206   4.548  17.682  0.00  0.00    +0.000 C 
ENDBRANCH  32  34
BRANCH  32  35
ATOM     35  C   UNL     1       4.652   6.415  17.068  0.00  0.00    +0.000 C 
ATOM     36  C   UNL     1       5.155   5.434  16.012  0.00  0.00    +0.000 C 
ENDBRANCH  32  35
ENDBRANCH  31  32
ENDBRANCH  30  31
ENDBRANCH   1  30
TORSDOF 7
ENDMDL
MODEL 8
REMARK VINA RESULT:      -7.3      3.969     10.738
REMARK  Name = 
REMARK  9 active torsions:
REMARK  status: ('A' for Active; 'I' for Inactive)
REMARK    1  A    between atoms: C_1  and  C_2
REMARK    2  A    between atoms: C_2  and  N_3
REMARK    3  A    between atoms: N_3  and  C_4
REMARK    4  A    between atoms: N_3  and  C_6
REMARK    5  A    between atoms: C_4  and  C_5
REMARK    6  A    between atoms: C_6  and  C_7
REMARK    7  A    between atoms: C_7  and  N_8
REMARK    8  A    between atoms: N_12  and  C_13
REMARK    9  A    between atoms: N_22  and  C_23
REMARK                            x       y       z     vdW  Elec       q    Type
REMARK                         _______ _______ _______ _____ _____    ______ ____
ROOT
ATOM      1  N   UNL     1       9.392  10.052  18.497  0.00  0.00    +0.000 N 
ATOM      2  C   UNL     1       9.357  11.061  19.438  0.00  0.00    +0.000 A 
ATOM      3  N   UNL     1       9.657  12.279  19.003  0.00  0.00    +0.000 NA
ATOM      4  C   UNL     1       9.702  13.221  19.954  0.00  0.00    +0.000 A 
ATOM      5  N   UNL     1      10.043  14.527  19.661  0.00  0.00    +0.000 N 
ATOM      6  N   UNL     1       9.426  12.989  21.223  0.00  0.00    +0.000 NA
ATOM      7  C   UNL     1       9.074  11.760  21.548  0.00  0.00    +0.000 A 
ATOM      8  N   UNL     1       8.661  11.496  22.828  0.00  0.00    +0.000 N 
ATOM      9  N   UNL     1       9.082  10.749  20.697  0.00  0.00    +0.000 NA
ATOM     10  H   UNL     1       9.618  10.381  17.570  0.00  0.00    +0.000 HD
ATOM     11  H   UNL     1      10.640  14.947  20.354  0.00  0.00    +0.000 HD
ATOM     12  H   UNL     1       9.059  10.650  23.216  0.00  0.00    +0.000 HD
ENDROOT
BRANCH   8  13
ATOM     13  C   UNL     1       8.013  12.483  23.679  0.00  0.00    +0.000 C 
ATOM     14  C   UNL     1       8.756  13.844  23.580  0.00  0.00    +0.000 C 
ATOM     15  C   UNL     1       8.050  14.904  24.440  0.00  0.00    +0.000 C 
ATOM     16  C   UNL     1       6.616  15.098  23.926  0.00  0.00    +0.000 C 
ATOM     17  C   UNL     1       5.843  13.771  24.010  0.00  0.00    +0.000 C 
ATOM     18  C   UNL     1       5.796  13.305  25.475  0.00  0.00    +0.000 C 
ATOM     19  C   UNL     1       7.220  13.104  26.003  0.00  0.00    +0.000 C 
ATOM     20  C   UNL     1       8.008  14.421  25.898  0.00  0.00    +0.000 C 
ATOM     21  C   UNL     1       7.913  12.032  25.155  0.00  0.00    +0.000 C 
ATOM     22  C   UNL     1       6.565  12.709  23.158  0.00  0.00    +0.000 C 
ENDBRANCH   8  13
BRANCH   5  23
ATOM     23  C   UNL     1       9.905  15.094  18.335  0.00  0.00    +0.000 C 
ATOM     24  C   UNL     1       8.610  15.926  18.259  0.00  0.00    +0.000 C 
ATOM     25  C   UNL     1       8.624  17.274  18.968  0.00  0.00    +0.000 C 
ATOM     26  C   UNL     1       9.201  18.397  18.110  0.00  0.00    +0.000 C 
ATOM     27  C   UNL     1      10.669  18.274  17.707  0.00  0.00    +0.000 C 
ATOM     28  C   UNL     1      11.046  16.988  16.971  0.00  0.00    +0.000 C 
ATOM     29  C   UNL     1      11.202  15.795  17.914  0.00  0.00    +0.000 C 
ENDBRANCH   5  23
BRANCH   1  30
ATOM     30  C   UNL     1       8.629   8.814  18.667  0.00  0.00    +0.000 C 
BRANCH  30  31
ATOM     31  C   UNL     1       7.631   8.545  17.505  0.00  0.00    +0.000 C 
BRANCH  31  32
ATOM     32  N   UNL     1       7.173   7.137  17.313  0.00  0.00    +0.000 NA
BRANCH  32  34
ATOM     33  C   UNL     1       7.745   4.785  18.095  0.00  0.00    +0.000 C 
ATOM     34  C   UNL     1       7.688   6.284  18.410  0.00  0.00    +0.000 C 
ENDBRANCH  32  34
BRANCH  32  35
ATOM     35  C   UNL     1       5.719   6.977  17.144  0.00  0.00    +0.000 C 
ATOM     36  C   UNL     1       5.254   6.253  15.883  0.00  0.00    +0.000 C 
ENDBRANCH  32  35
ENDBRANCH  31  32
ENDBRANCH  30  31
ENDBRANCH   1  30
TORSDOF 7
ENDMDL
MODEL 9
REMARK VINA RESULT:      -7.3      6.558     11.626
REMARK  Name = 
REMARK  9 active torsions:
REMARK  status: ('A' for Active; 'I' for Inactive)
REMARK    1  A    between atoms: C_1  and  C_2
REMARK    2  A    between atoms: C_2  and  N_3
REMARK    3  A    between atoms: N_3  and  C_4
REMARK    4  A    between atoms: N_3  and  C_6
REMARK    5  A    between atoms: C_4  and  C_5
REMARK    6  A    between atoms: C_6  and  C_7
REMARK    7  A    between atoms: C_7  and  N_8
REMARK    8  A    between atoms: N_12  and  C_13
REMARK    9  A    between atoms: N_22  and  C_23
REMARK                            x       y       z     vdW  Elec       q    Type
REMARK                         _______ _______ _______ _____ _____    ______ ____
ROOT
ATOM      1  N   UNL     1       1.276   9.059  18.063  0.00  0.00    +0.000 N 
ATOM      2  C   UNL     1       1.302  10.405  18.364  0.00  0.00    +0.000 A 
ATOM      3  N   UNL     1       0.263  10.874  19.044  0.00  0.00    +0.000 NA
ATOM      4  C   UNL     1       0.272  12.198  19.243  0.00  0.00    +0.000 A 
ATOM      5  N   UNL     1      -0.764  12.837  19.898  0.00  0.00    +0.000 N 
ATOM      6  N   UNL     1       1.250  12.988  18.846  0.00  0.00    +0.000 NA
ATOM      7  C   UNL     1       2.272  12.421  18.234  0.00  0.00    +0.000 A 
ATOM      8  N   UNL     1       3.367  13.179  17.910  0.00  0.00    +0.000 N 
ATOM      9  N   UNL     1       2.313  11.138  17.920  0.00  0.00    +0.000 NA
ATOM     10  H   UNL     1       0.466   8.584  18.433  0.00  0.00    +0.000 HD
ATOM     11  H   UNL     1      -1.015  13.718  19.480  0.00  0.00    +0.000 HD
ATOM     12  H   UNL     1       3.716  13.009  16.976  0.00  0.00    +0.000 HD
ENDROOT
BRANCH   8  13
ATOM     13  C   UNL     1       3.777  14.354  18.665  0.00  0.00    +0.000 C 
ATOM     14  C   UNL     1       5.284  14.645  18.426  0.00  0.00    +0.000 C 
ATOM     15  C   UNL     1       5.714  15.911  19.183  0.00  0.00    +0.000 C 
ATOM     16  C   UNL     1       4.902  17.108  18.667  0.00  0.00    +0.000 C 
ATOM     17  C   UNL     1       3.400  16.861  18.889  0.00  0.00    +0.000 C 
ATOM     18  C   UNL     1       3.135  16.682  20.393  0.00  0.00    +0.000 C 
ATOM     19  C   UNL     1       3.935  15.489  20.924  0.00  0.00    +0.000 C 
ATOM     20  C   UNL     1       5.437  15.717  20.682  0.00  0.00    +0.000 C 
ATOM     21  C   UNL     1       3.489  14.225  20.180  0.00  0.00    +0.000 C 
ATOM     22  C   UNL     1       2.981  15.582  18.139  0.00  0.00    +0.000 C 
ENDBRANCH   8  13
BRANCH   5  23
ATOM     23  C   UNL     1      -1.653  12.152  20.813  0.00  0.00    +0.000 C 
ATOM     24  C   UNL     1      -1.031  12.130  22.222  0.00  0.00    +0.000 C 
ATOM     25  C   UNL     1      -1.048  13.443  22.995  0.00  0.00    +0.000 C 
ATOM     26  C   UNL     1      -2.352  13.675  23.753  0.00  0.00    +0.000 C 
ATOM     27  C   UNL     1      -3.621  13.822  22.917  0.00  0.00    +0.000 C 
ATOM     28  C   UNL     1      -3.924  12.663  21.968  0.00  0.00    +0.000 C 
ATOM     29  C   UNL     1      -3.077  12.708  20.695  0.00  0.00    +0.000 C 
ENDBRANCH   5  23
BRANCH   1  30
ATOM     30  C   UNL     1       2.503   8.306  17.793  0.00  0.00    +0.000 C 
BRANCH  30  31
ATOM     31  C   UNL     1       2.605   6.987  18.611  0.00  0.00    +0.000 C 
BRANCH  31  32
ATOM     32  N   UNL     1       3.730   6.065  18.277  0.00  0.00    +0.000 NA
BRANCH  32  34
ATOM     33  C   UNL     1       1.732   4.543  17.870  0.00  0.00    +0.000 C 
ATOM     34  C   UNL     1       3.208   4.857  17.596  0.00  0.00    +0.000 C 
ENDBRANCH  32  34
BRANCH  32  35
ATOM     35  C   UNL     1       4.829   6.680  17.514  0.00  0.00    +0.000 C 
ATOM     36  C   UNL     1       5.099   6.108  16.124  0.00  0.00    +0.000 C 
ENDBRANCH  32  35
ENDBRANCH  31  32
ENDBRANCH  30  31
ENDBRANCH   1  30
TORSDOF 7
ENDMDL
