MODEL 1
REMARK VINA RESULT:      -7.0      0.000      0.000
REMARK  Name = 
REMARK  4 active torsions:
REMARK  status: ('A' for Active; 'I' for Inactive)
REMARK    1  A    between atoms: O5*_1  and  C5*_2
REMARK    2  A    between atoms: C5*_2  and  C4*_3
REMARK    3  A    between atoms: C1*_5  and  N_6
REMARK    4  A    between atoms: C3*_17  and  O3*_18
REMARK                            x       y       z     vdW  Elec       q    Type
REMARK                         _______ _______ _______ _____ _____    ______ ____
ROOT
ATOM      1  C4* UNL     1       1.706   2.473  20.318  0.00  0.00    +0.000 C 
ATOM      2  O4* UNL     1       2.945   2.268  19.609  0.00  0.00    +0.000 OA
ATOM      3  C1* UNL     1       3.728   3.486  19.650  0.00  0.00    +0.000 C 
ATOM      4  C2* UNL     1       2.897   4.557  20.339  0.00  0.00    +0.000 C 
ATOM      5  C3* UNL     1       1.875   3.761  21.112  0.00  0.00    +0.000 C 
ENDROOT
BRANCH   3   6
ATOM      6  N   UNL     1       4.191   3.833  18.310  0.00  0.00    +0.000 N 
ATOM      7  C   UNL     1       3.472   3.738  17.141  0.00  0.00    +0.000 A 
ATOM      8  C   UNL     1       4.304   4.060  16.090  0.00  0.00    +0.000 A 
ATOM      9  C   UNL     1       5.575   4.379  16.635  0.00  0.00    +0.000 A 
ATOM     10  C   UNL     1       6.826   4.763  16.173  0.00  0.00    +0.000 A 
ATOM     11 CL   UNL     1       7.075   4.922  14.502  0.00  0.00    +0.000 Cl
ATOM     12  N   UNL     1       7.855   5.000  16.998  0.00  0.00    +0.000 NA
ATOM     13  C   UNL     1       7.612   4.837  18.307  0.00  0.00    +0.000 A 
ATOM     14  N   UNL     1       6.464   4.451  18.904  0.00  0.00    +0.000 NA
ATOM     15  C   UNL     1       5.474   4.239  18.015  0.00  0.00    +0.000 A 
ENDBRANCH   3   6
BRANCH   5  16
ATOM     16  O3* UNL     1       2.403   3.468  22.414  0.00  0.00    +0.000 OA
ATOM     17  H3* UNL     1       2.910   2.638  22.366  0.00  0.00    +0.000 HD
ENDBRANCH   5  16
BRANCH   1  18
ATOM     18  C5* UNL     1       0.526   2.475  19.339  0.00  0.00    +0.000 C 
BRANCH  18  19
ATOM     19  O5* UNL     1       0.787   1.702  18.175  0.00  0.00    +0.000 OA
ATOM     20  H5* UNL     1       1.302   2.270  17.568  0.00  0.00    +0.000 HD
ENDBRANCH  18  19
ENDBRANCH   1  18
TORSDOF 4
ENDMDL
MODEL 2
REMARK VINA RESULT:      -6.7      3.555      5.926
REMARK  Name = 
REMARK  4 active torsions:
REMARK  status: ('A' for Active; 'I' for Inactive)
REMARK    1  A    between atoms: O5*_1  and  C5*_2
REMARK    2  A    between atoms: C5*_2  and  C4*_3
REMARK    3  A    between atoms: C1*_5  and  N_6
REMARK    4  A    between atoms: C3*_17  and  O3*_18
REMARK                            x       y       z     vdW  Elec       q    Type
REMARK                         _______ _______ _______ _____ _____    ______ ____
ROOT
ATOM      1  C4* UNL     1       7.524   5.329  17.538  0.00  0.00    +0.000 C 
ATOM      2  O4* UNL     1       6.415   4.411  17.635  0.00  0.00    +0.000 OA
ATOM      3  C1* UNL     1       5.304   4.918  16.855  0.00  0.00    +0.000 C 
ATOM      4  C2* UNL     1       5.694   6.283  16.310  0.00  0.00    +0.000 C 
ATOM      5  C3* UNL     1       7.202   6.270  16.385  0.00  0.00    +0.000 C 
ENDROOT
BRANCH   3   6
ATOM      6  N   UNL     1       4.080   4.899  17.648  0.00  0.00    +0.000 N 
ATOM      7  C   UNL     1       3.405   5.990  18.146  0.00  0.00    +0.000 A 
ATOM      8  C   UNL     1       2.363   5.539  18.927  0.00  0.00    +0.000 A 
ATOM      9  C   UNL     1       2.390   4.120  18.897  0.00  0.00    +0.000 A 
ATOM     10  C   UNL     1       1.672   3.066  19.443  0.00  0.00    +0.000 A 
ATOM     11 CL   UNL     1       0.373   3.402  20.480  0.00  0.00    +0.000 Cl
ATOM     12  N   UNL     1       1.976   1.785  19.192  0.00  0.00    +0.000 NA
ATOM     13  C   UNL     1       3.027   1.574  18.385  0.00  0.00    +0.000 A 
ATOM     14  N   UNL     1       3.829   2.487  17.800  0.00  0.00    +0.000 NA
ATOM     15  C   UNL     1       3.459   3.750  18.088  0.00  0.00    +0.000 A 
ENDBRANCH   3   6
BRANCH   5  16
ATOM     16  O3* UNL     1       7.722   5.738  15.158  0.00  0.00    +0.000 OA
ATOM     17  H3* UNL     1       6.979   5.423  14.614  0.00  0.00    +0.000 HD
ENDBRANCH   5  16
BRANCH   1  18
ATOM     18  C5* UNL     1       7.760   6.024  18.884  0.00  0.00    +0.000 C 
BRANCH  18  19
ATOM     19  O5* UNL     1       7.088   5.373  19.954  0.00  0.00    +0.000 OA
ATOM     20  H5* UNL     1       7.721   5.327  20.698  0.00  0.00    +0.000 HD
ENDBRANCH  18  19
ENDBRANCH   1  18
TORSDOF 4
ENDMDL
MODEL 3
REMARK VINA RESULT:      -6.6      3.488      5.721
REMARK  Name = 
REMARK  4 active torsions:
REMARK  status: ('A' for Active; 'I' for Inactive)
REMARK    1  A    between atoms: O5*_1  and  C5*_2
REMARK    2  A    between atoms: C5*_2  and  C4*_3
REMARK    3  A    between atoms: C1*_5  and  N_6
REMARK    4  A    between atoms: C3*_17  and  O3*_18
REMARK                            x       y       z     vdW  Elec       q    Type
REMARK                         _______ _______ _______ _____ _____    ______ ____
ROOT
ATOM      1  C4* UNL     1       7.399   5.230  17.614  0.00  0.00    +0.000 C 
ATOM      2  O4* UNL     1       6.435   4.167  17.757  0.00  0.00    +0.000 OA
ATOM      3  C1* UNL     1       5.232   4.509  17.027  0.00  0.00    +0.000 C 
ATOM      4  C2* UNL     1       5.403   5.913  16.468  0.00  0.00    +0.000 C 
ATOM      5  C3* UNL     1       6.899   6.111  16.477  0.00  0.00    +0.000 C 
ENDROOT
BRANCH   3   6
ATOM      6  N   UNL     1       4.057   4.323  17.872  0.00  0.00    +0.000 N 
ATOM      7  C   UNL     1       2.842   4.955  17.743  0.00  0.00    +0.000 A 
ATOM      8  C   UNL     1       2.041   4.581  18.801  0.00  0.00    +0.000 A 
ATOM      9  C   UNL     1       2.787   3.676  19.601  0.00  0.00    +0.000 A 
ATOM     10  C   UNL     1       2.609   2.950  20.770  0.00  0.00    +0.000 A 
ATOM     11 CL   UNL     1       1.145   3.090  21.615  0.00  0.00    +0.000 Cl
ATOM     12  N   UNL     1       3.561   2.148  21.268  0.00  0.00    +0.000 NA
ATOM     13  C   UNL     1       4.708   2.090  20.574  0.00  0.00    +0.000 A 
ATOM     14  N   UNL     1       5.035   2.748  19.442  0.00  0.00    +0.000 NA
ATOM     15  C   UNL     1       4.030   3.526  18.996  0.00  0.00    +0.000 A 
ENDBRANCH   3   6
BRANCH   5  16
ATOM     16  O3* UNL     1       7.435   5.652  15.229  0.00  0.00    +0.000 OA
ATOM     17  H3* UNL     1       8.269   5.179  15.401  0.00  0.00    +0.000 HD
ENDBRANCH   5  16
BRANCH   1  18
ATOM     18  C5* UNL     1       7.593   5.958  18.949  0.00  0.00    +0.000 C 
BRANCH  18  19
ATOM     19  O5* UNL     1       6.996   5.263  20.036  0.00  0.00    +0.000 OA
ATOM     20  H5* UNL     1       6.062   5.106  19.792  0.00  0.00    +0.000 HD
ENDBRANCH  18  19
ENDBRANCH   1  18
TORSDOF 4
ENDMDL
MODEL 4
REMARK VINA RESULT:      -6.5      3.631      5.577
REMARK  Name = 
REMARK  4 active torsions:
REMARK  status: ('A' for Active; 'I' for Inactive)
REMARK    1  A    between atoms: O5*_1  and  C5*_2
REMARK    2  A    between atoms: C5*_2  and  C4*_3
REMARK    3  A    between atoms: C1*_5  and  N_6
REMARK    4  A    between atoms: C3*_17  and  O3*_18
REMARK                            x       y       z     vdW  Elec       q    Type
REMARK                         _______ _______ _______ _____ _____    ______ ____
ROOT
ATOM      1  C4* UNL     1       5.765   5.685  15.826  0.00  0.00    +0.000 C 
ATOM      2  O4* UNL     1       4.641   6.273  16.512  0.00  0.00    +0.000 OA
ATOM      3  C1* UNL     1       4.970   6.443  17.912  0.00  0.00    +0.000 C 
ATOM      4  C2* UNL     1       6.345   5.840  18.151  0.00  0.00    +0.000 C 
ATOM      5  C3* UNL     1       6.954   5.805  16.770  0.00  0.00    +0.000 C 
ENDROOT
BRANCH   3   6
ATOM      6  N   UNL     1       3.906   5.901  18.751  0.00  0.00    +0.000 N 
ATOM      7  C   UNL     1       2.832   6.589  19.265  0.00  0.00    +0.000 A 
ATOM      8  C   UNL     1       2.123   5.741  20.088  0.00  0.00    +0.000 A 
ATOM      9  C   UNL     1       2.778   4.481  20.067  0.00  0.00    +0.000 A 
ATOM     10  C   UNL     1       2.621   3.230  20.647  0.00  0.00    +0.000 A 
ATOM     11 CL   UNL     1       1.340   2.977  21.729  0.00  0.00    +0.000 Cl
ATOM     12  N   UNL     1       3.455   2.213  20.394  0.00  0.00    +0.000 NA
ATOM     13  C   UNL     1       4.465   2.472  19.550  0.00  0.00    +0.000 A 
ATOM     14  N   UNL     1       4.760   3.633  18.929  0.00  0.00    +0.000 NA
ATOM     15  C   UNL     1       3.875   4.606  19.222  0.00  0.00    +0.000 A 
ENDBRANCH   3   6
BRANCH   5  16
ATOM     16  O3* UNL     1       7.643   7.041  16.536  0.00  0.00    +0.000 OA
ATOM     17  H3* UNL     1       8.525   6.991  16.945  0.00  0.00    +0.000 HD
ENDBRANCH   5  16
BRANCH   1  18
ATOM     18  C5* UNL     1       5.435   4.251  15.392  0.00  0.00    +0.000 C 
BRANCH  18  19
ATOM     19  O5* UNL     1       5.979   3.280  16.276  0.00  0.00    +0.000 OA
ATOM     20  H5* UNL     1       6.747   3.697  16.716  0.00  0.00    +0.000 HD
ENDBRANCH  18  19
ENDBRANCH   1  18
TORSDOF 4
ENDMDL
MODEL 5
REMARK VINA RESULT:      -6.5      3.744      5.908
REMARK  Name = 
REMARK  4 active torsions:
REMARK  status: ('A' for Active; 'I' for Inactive)
REMARK    1  A    between atoms: O5*_1  and  C5*_2
REMARK    2  A    between atoms: C5*_2  and  C4*_3
REMARK    3  A    between atoms: C1*_5  and  N_6
REMARK    4  A    between atoms: C3*_17  and  O3*_18
REMARK                            x       y       z     vdW  Elec       q    Type
REMARK                         _______ _______ _______ _____ _____    ______ ____
ROOT
ATOM      1  C4* UNL     1       5.783   5.499  15.678  0.00  0.00    +0.000 C 
ATOM      2  O4* UNL     1       4.878   5.724  16.778  0.00  0.00    +0.000 OA
ATOM      3  C1* UNL     1       5.565   5.459  18.026  0.00  0.00    +0.000 C 
ATOM      4  C2* UNL     1       6.956   4.941  17.697  0.00  0.00    +0.000 C 
ATOM      5  C3* UNL     1       7.178   5.415  16.281  0.00  0.00    +0.000 C 
ENDROOT
BRANCH   3   6
ATOM      6  N   UNL     1       4.763   4.576  18.866  0.00  0.00    +0.000 N 
ATOM      7  C   UNL     1       4.968   3.231  19.078  0.00  0.00    +0.000 A 
ATOM      8  C   UNL     1       3.931   2.748  19.846  0.00  0.00    +0.000 A 
ATOM      9  C   UNL     1       3.065   3.837  20.128  0.00  0.00    +0.000 A 
ATOM     10  C   UNL     1       1.877   4.056  20.810  0.00  0.00    +0.000 A 
ATOM     11 CL   UNL     1       1.101   2.747  21.558  0.00  0.00    +0.000 Cl
ATOM     12  N   UNL     1       1.307   5.267  20.888  0.00  0.00    +0.000 NA
ATOM     13  C   UNL     1       1.949   6.264  20.259  0.00  0.00    +0.000 A 
ATOM     14  N   UNL     1       3.091   6.203  19.543  0.00  0.00    +0.000 NA
ATOM     15  C   UNL     1       3.610   4.960  19.516  0.00  0.00    +0.000 A 
ENDBRANCH   3   6
BRANCH   5  16
ATOM     16  O3* UNL     1       7.776   6.718  16.317  0.00  0.00    +0.000 OA
ATOM     17  H3* UNL     1       7.111   7.359  16.627  0.00  0.00    +0.000 HD
ENDBRANCH   5  16
BRANCH   1  18
ATOM     18  C5* UNL     1       5.355   4.261  14.880  0.00  0.00    +0.000 C 
BRANCH  18  19
ATOM     19  O5* UNL     1       6.463   3.571  14.318  0.00  0.00    +0.000 OA
ATOM     20  H5* UNL     1       6.102   2.943  13.661  0.00  0.00    +0.000 HD
ENDBRANCH  18  19
ENDBRANCH   1  18
TORSDOF 4
ENDMDL
MODEL 6
REMARK VINA RESULT:      -6.5      3.807      4.881
REMARK  Name = 
REMARK  4 active torsions:
REMARK  status: ('A' for Active; 'I' for Inactive)
REMARK    1  A    between atoms: O5*_1  and  C5*_2
REMARK    2  A    between atoms: C5*_2  and  C4*_3
REMARK    3  A    between atoms: C1*_5  and  N_6
REMARK    4  A    between atoms: C3*_17  and  O3*_18
REMARK                            x       y       z     vdW  Elec       q    Type
REMARK                         _______ _______ _______ _____ _____    ______ ____
ROOT
ATOM      1  C4* UNL     1       2.922   2.534  19.989  0.00  0.00    +0.000 C 
ATOM      2  O4* UNL     1       3.515   3.847  20.039  0.00  0.00    +0.000 OA
ATOM      3  C1* UNL     1       2.521   4.806  20.477  0.00  0.00    +0.000 C 
ATOM      4  C2* UNL     1       1.194   4.077  20.619  0.00  0.00    +0.000 C 
ATOM      5  C3* UNL     1       1.603   2.630  20.745  0.00  0.00    +0.000 C 
ENDROOT
BRANCH   3   6
ATOM      6  N   UNL     1       2.499   5.956  19.579  0.00  0.00    +0.000 N 
ATOM      7  C   UNL     1       3.094   6.044  18.341  0.00  0.00    +0.000 A 
ATOM      8  C   UNL     1       2.928   7.328  17.869  0.00  0.00    +0.000 A 
ATOM      9  C   UNL     1       2.192   8.050  18.845  0.00  0.00    +0.000 A 
ATOM     10  C   UNL     1       1.702   9.336  19.021  0.00  0.00    +0.000 A 
ATOM     11 CL   UNL     1       2.000  10.503  17.827  0.00  0.00    +0.000 Cl
ATOM     12  N   UNL     1       1.010   9.698  20.110  0.00  0.00    +0.000 NA
ATOM     13  C   UNL     1       0.823   8.744  21.035  0.00  0.00    +0.000 A 
ATOM     14  N   UNL     1       1.253   7.465  21.017  0.00  0.00    +0.000 NA
ATOM     15  C   UNL     1       1.930   7.172  19.891  0.00  0.00    +0.000 A 
ENDBRANCH   3   6
BRANCH   5  16
ATOM     16  O3* UNL     1       1.810   2.325  22.131  0.00  0.00    +0.000 OA
ATOM     17  H3* UNL     1       1.105   1.722  22.428  0.00  0.00    +0.000 HD
ENDBRANCH   5  16
BRANCH   1  18
ATOM     18  C5* UNL     1       2.793   2.062  18.536  0.00  0.00    +0.000 C 
BRANCH  18  19
ATOM     19  O5* UNL     1       4.006   1.515  18.035  0.00  0.00    +0.000 OA
ATOM     20  H5* UNL     1       3.837   1.251  17.109  0.00  0.00    +0.000 HD
ENDBRANCH  18  19
ENDBRANCH   1  18
TORSDOF 4
ENDMDL
MODEL 7
REMARK VINA RESULT:      -6.4      1.641      1.643
REMARK  Name = 
REMARK  4 active torsions:
REMARK  status: ('A' for Active; 'I' for Inactive)
REMARK    1  A    between atoms: O5*_1  and  C5*_2
REMARK    2  A    between atoms: C5*_2  and  C4*_3
REMARK    3  A    between atoms: C1*_5  and  N_6
REMARK    4  A    between atoms: C3*_17  and  O3*_18
REMARK                            x       y       z     vdW  Elec       q    Type
REMARK                         _______ _______ _______ _____ _____    ______ ____
ROOT
ATOM      1  C4* UNL     1       1.944   2.254  19.907  0.00  0.00    +0.000 C 
ATOM      2  O4* UNL     1       3.285   2.705  19.627  0.00  0.00    +0.000 OA
ATOM      3  C1* UNL     1       3.471   4.029  20.182  0.00  0.00    +0.000 C 
ATOM      4  C2* UNL     1       2.143   4.488  20.763  0.00  0.00    +0.000 C 
ATOM      5  C3* UNL     1       1.387   3.197  20.964  0.00  0.00    +0.000 C 
ENDROOT
BRANCH   3   6
ATOM      6  N   UNL     1       4.045   4.921  19.180  0.00  0.00    +0.000 N 
ATOM      7  C   UNL     1       3.395   5.471  18.099  0.00  0.00    +0.000 A 
ATOM      8  C   UNL     1       4.315   6.164  17.343  0.00  0.00    +0.000 A 
ATOM      9  C   UNL     1       5.573   6.048  17.991  0.00  0.00    +0.000 A 
ATOM     10  C   UNL     1       6.878   6.472  17.786  0.00  0.00    +0.000 A 
ATOM     11 CL   UNL     1       7.244   7.379  16.400  0.00  0.00    +0.000 Cl
ATOM     12  N   UNL     1       7.871   6.178  18.638  0.00  0.00    +0.000 NA
ATOM     13  C   UNL     1       7.533   5.438  19.705  0.00  0.00    +0.000 A 
ATOM     14  N   UNL     1       6.322   4.938  20.027  0.00  0.00    +0.000 NA
ATOM     15  C   UNL     1       5.375   5.281  19.133  0.00  0.00    +0.000 A 
ENDBRANCH   3   6
BRANCH   5  16
ATOM     16  O3* UNL     1       1.675   2.690  22.274  0.00  0.00    +0.000 OA
ATOM     17  H3* UNL     1       2.321   3.280  22.703  0.00  0.00    +0.000 HD
ENDBRANCH   5  16
BRANCH   1  18
ATOM     18  C5* UNL     1       1.123   2.187  18.613  0.00  0.00    +0.000 C 
BRANCH  18  19
ATOM     19  O5* UNL     1       1.942   2.047  17.460  0.00  0.00    +0.000 OA
ATOM     20  H5* UNL     1       2.797   1.681  17.763  0.00  0.00    +0.000 HD
ENDBRANCH  18  19
ENDBRANCH   1  18
TORSDOF 4
ENDMDL
MODEL 8
REMARK VINA RESULT:      -6.4      1.907      2.179
REMARK  Name = 
REMARK  4 active torsions:
REMARK  status: ('A' for Active; 'I' for Inactive)
REMARK    1  A    between atoms: O5*_1  and  C5*_2
REMARK    2  A    between atoms: C5*_2  and  C4*_3
REMARK    3  A    between atoms: C1*_5  and  N_6
REMARK    4  A    between atoms: C3*_17  and  O3*_18
REMARK                            x       y       z     vdW  Elec       q    Type
REMARK                         _______ _______ _______ _____ _____    ______ ____
ROOT
ATOM      1  C4* UNL     1       1.984   4.976  20.809  0.00  0.00    +0.000 C 
ATOM      2  O4* UNL     1       3.311   4.819  20.266  0.00  0.00    +0.000 OA
ATOM      3  C1* UNL     1       3.565   5.874  19.307  0.00  0.00    +0.000 C 
ATOM      4  C2* UNL     1       2.292   6.693  19.159  0.00  0.00    +0.000 C 
ATOM      5  C3* UNL     1       1.525   6.374  20.420  0.00  0.00    +0.000 C 
ENDROOT
BRANCH   3   6
ATOM      6  N   UNL     1       4.084   5.313  18.064  0.00  0.00    +0.000 N 
ATOM      7  C   UNL     1       3.560   4.256  17.357  0.00  0.00    +0.000 A 
ATOM      8  C   UNL     1       4.403   3.974  16.304  0.00  0.00    +0.000 A 
ATOM      9  C   UNL     1       5.477   4.901  16.358  0.00  0.00    +0.000 A 
ATOM     10  C   UNL     1       6.636   5.176  15.647  0.00  0.00    +0.000 A 
ATOM     11 CL   UNL     1       7.037   4.203  14.316  0.00  0.00    +0.000 Cl
ATOM     12  N   UNL     1       7.463   6.176  15.981  0.00  0.00    +0.000 NA
ATOM     13  C   UNL     1       7.113   6.899  17.055  0.00  0.00    +0.000 A 
ATOM     14  N   UNL     1       6.037   6.742  17.854  0.00  0.00    +0.000 NA
ATOM     15  C   UNL     1       5.248   5.727  17.454  0.00  0.00    +0.000 A 
ENDBRANCH   3   6
BRANCH   5  16
ATOM     16  O3* UNL     1       1.897   7.313  21.438  0.00  0.00    +0.000 OA
ATOM     17  H3* UNL     1       1.245   7.266  22.160  0.00  0.00    +0.000 HD
ENDBRANCH   5  16
BRANCH   1  18
ATOM     18  C5* UNL     1       1.071   3.844  20.323  0.00  0.00    +0.000 C 
BRANCH  18  19
ATOM     19  O5* UNL     1       0.850   2.860  21.324  0.00  0.00    +0.000 OA
ATOM     20  H5* UNL     1      -0.064   2.534  21.203  0.00  0.00    +0.000 HD
ENDBRANCH  18  19
ENDBRANCH   1  18
TORSDOF 4
ENDMDL
MODEL 9
REMARK VINA RESULT:      -6.4      3.806      5.914
REMARK  Name = 
REMARK  4 active torsions:
REMARK  status: ('A' for Active; 'I' for Inactive)
REMARK    1  A    between atoms: O5*_1  and  C5*_2
REMARK    2  A    between atoms: C5*_2  and  C4*_3
REMARK    3  A    between atoms: C1*_5  and  N_6
REMARK    4  A    between atoms: C3*_17  and  O3*_18
REMARK                            x       y       z     vdW  Elec       q    Type
REMARK                         _______ _______ _______ _____ _____    ______ ____
ROOT
ATOM      1  C4* UNL     1       7.005   6.132  16.477  0.00  0.00    +0.000 C 
ATOM      2  O4* UNL     1       5.581   6.142  16.708  0.00  0.00    +0.000 OA
ATOM      3  C1* UNL     1       5.313   5.723  18.069  0.00  0.00    +0.000 C 
ATOM      4  C2* UNL     1       6.635   5.330  18.710  0.00  0.00    +0.000 C 
ATOM      5  C3* UNL     1       7.660   6.025  17.848  0.00  0.00    +0.000 C 
ENDROOT
BRANCH   3   6
ATOM      6  N   UNL     1       4.289   4.684  18.085  0.00  0.00    +0.000 N 
ATOM      7  C   UNL     1       4.164   3.637  17.201  0.00  0.00    +0.000 A 
ATOM      8  C   UNL     1       3.008   2.949  17.499  0.00  0.00    +0.000 A 
ATOM      9  C   UNL     1       2.408   3.588  18.616  0.00  0.00    +0.000 A 
ATOM     10  C   UNL     1       1.274   3.437  19.400  0.00  0.00    +0.000 A 
ATOM     11 CL   UNL     1       0.179   2.193  19.037  0.00  0.00    +0.000 Cl
ATOM     12  N   UNL     1       1.000   4.250  20.430  0.00  0.00    +0.000 NA
ATOM     13  C   UNL     1       1.885   5.231  20.660  0.00  0.00    +0.000 A 
ATOM     14  N   UNL     1       3.014   5.517  19.978  0.00  0.00    +0.000 NA
ATOM     15  C   UNL     1       3.229   4.655  18.965  0.00  0.00    +0.000 A 
ENDBRANCH   3   6
BRANCH   5  16
ATOM     16  O3* UNL     1       7.902   7.335  18.378  0.00  0.00    +0.000 OA
ATOM     17  H3* UNL     1       7.738   7.992  17.678  0.00  0.00    +0.000 HD
ENDBRANCH   5  16
BRANCH   1  18
ATOM     18  C5* UNL     1       7.379   5.011  15.500  0.00  0.00    +0.000 C 
BRANCH  18  19
ATOM     19  O5* UNL     1       7.814   5.512  14.244  0.00  0.00    +0.000 OA
ATOM     20  H5* UNL     1       7.010   5.703  13.721  0.00  0.00    +0.000 HD
ENDBRANCH  18  19
ENDBRANCH   1  18
TORSDOF 4
ENDMDL
