MODEL 1
REMARK VINA RESULT:      -7.6      0.000      0.000
REMARK  Name = 
REMARK  17 active torsions:
REMARK  status: ('A' for Active; 'I' for Inactive)
REMARK    1  A    between atoms: C_1  and  C_2
REMARK    2  A    between atoms: N_4  and  C_5
REMARK    3  A    between atoms: C_8  and  O_9
REMARK    4  A    between atoms: O_9  and  C_10
REMARK    5  A    between atoms: C_10  and  C_11
REMARK    6  A    between atoms: C_11  and  O_12
REMARK    7  A    between atoms: C_11  and  C_13
REMARK    8  A    between atoms: C_13  and  N_14
REMARK    9  A    between atoms: N_14  and  C_15
REMARK   10  A    between atoms: C_15  and  C_16
REMARK   11  A    between atoms: C_15  and  C_17
REMARK   12  A    between atoms: C_17  and  C_18
REMARK   13  A    between atoms: C_18  and  C_19
REMARK   14  A    between atoms: C_19  and  C_20
REMARK   15  A    between atoms: C_20  and  C_21
REMARK   16  A    between atoms: N_23  and  C_24
REMARK   17  A    between atoms: C_27  and  C_28
REMARK                            x       y       z     vdW  Elec       q    Type
REMARK                         _______ _______ _______ _____ _____    ______ ____
ROOT
ATOM      1  C   UNL     1       7.358   7.336  17.692  0.00  0.00    +0.000 C 
ATOM      2  C   UNL     1       8.049   6.609  18.853  0.00  0.00    +0.000 C 
ENDROOT
BRANCH   1   3
ATOM      3  N   UNL     1       7.609   6.660  16.414  0.00  0.00    +0.000 NA
ATOM      4  H   UNL     1       7.012   7.037  15.675  0.00  0.00    +0.000 HD
BRANCH   3   5
ATOM      5  C   UNL     1       7.384   5.215  16.469  0.00  0.00    +0.000 C 
BRANCH   5   6
ATOM      6  C   UNL     1       7.073   4.649  15.072  0.00  0.00    +0.000 C 
BRANCH   6   7
ATOM      7  O   UNL     1       7.687   5.477  14.071  0.00  0.00    +0.000 OA
ATOM      8  H   UNL     1       7.241   6.340  14.076  0.00  0.00    +0.000 HD
ENDBRANCH   6   7
BRANCH   6   9
ATOM      9  C   UNL     1       5.546   4.591  14.912  0.00  0.00    +0.000 C 
BRANCH   9  10
ATOM     10  O   UNL     1       4.924   5.590  15.717  0.00  0.00    +0.000 OA
BRANCH  10  14
ATOM     11  C   UNL     1       3.332   3.920  19.199  0.00  0.00    +0.000 A 
ATOM     12  C   UNL     1       3.612   3.156  18.065  0.00  0.00    +0.000 A 
ATOM     13  C   UNL     1       4.140   3.754  16.918  0.00  0.00    +0.000 A 
ATOM     14  C   UNL     1       4.376   5.124  16.882  0.00  0.00    +0.000 A 
ATOM     15  C   UNL     1       4.092   5.897  18.007  0.00  0.00    +0.000 A 
ATOM     16  C   UNL     1       3.558   5.299  19.156  0.00  0.00    +0.000 A 
BRANCH  11  20
ATOM     17  C   UNL     1       1.293   2.509  22.038  0.00  0.00    +0.000 C 
ATOM     18  C   UNL     1       1.514   2.984  20.627  0.00  0.00    +0.000 C 
ATOM     19  O   UNL     1       0.592   2.990  19.819  0.00  0.00    +0.000 OA
ATOM     20  N   UNL     1       2.824   3.372  20.397  0.00  0.00    +0.000 N 
ATOM     21  H   UNL     1       3.499   3.161  21.120  0.00  0.00    +0.000 HD
ENDBRANCH  11  20
ENDBRANCH  10  14
ENDBRANCH   9  10
ENDBRANCH   6   9
ENDBRANCH   5   6
ENDBRANCH   3   5
ENDBRANCH   1   3
BRANCH   1  22
ATOM     22  C   UNL     1       7.886   8.783  17.612  0.00  0.00    +0.000 C 
BRANCH  22  23
ATOM     23  C   UNL     1       8.807   9.215  18.765  0.00  0.00    +0.000 C 
BRANCH  23  24
ATOM     24  C   UNL     1       9.177  10.698  18.771  0.00  0.00    +0.000 C 
BRANCH  24  25
ATOM     25  C   UNL     1      10.362  10.997  19.683  0.00  0.00    +0.000 C 
BRANCH  25  26
ATOM     26  C   UNL     1       9.948  11.920  20.800  0.00  0.00    +0.000 C 
ATOM     27  O   UNL     1      10.515  13.000  20.938  0.00  0.00    +0.000 OA
ATOM     28  N   UNL     1       8.960  11.392  21.611  0.00  0.00    +0.000 N 
ATOM     29  H   UNL     1       8.719  10.418  21.478  0.00  0.00    +0.000 HD
BRANCH  28  30
ATOM     30  C   UNL     1       8.319  12.066  22.672  0.00  0.00    +0.000 A 
ATOM     31  C   UNL     1       7.422  13.116  22.466  0.00  0.00    +0.000 A 
ATOM     32  C   UNL     1       6.814  13.758  23.545  0.00  0.00    +0.000 A 
ATOM     33  C   UNL     1       7.087  13.361  24.858  0.00  0.00    +0.000 A 
ATOM     34  C   UNL     1       7.979  12.298  25.064  0.00  0.00    +0.000 A 
ATOM     35  C   UNL     1       8.584  11.650  23.980  0.00  0.00    +0.000 A 
BRANCH  33  36
ATOM     36  C   UNL     1       6.429  14.060  26.018  0.00  0.00    +0.000 C 
ATOM     37  F   UNL     1       6.602  15.411  26.010  0.00  0.00    +0.000 F 
ATOM     38  F   UNL     1       5.084  13.857  26.050  0.00  0.00    +0.000 F 
ATOM     39  F   UNL     1       6.903  13.632  27.220  0.00  0.00    +0.000 F 
ENDBRANCH  33  36
ENDBRANCH  28  30
ENDBRANCH  25  26
ENDBRANCH  24  25
ENDBRANCH  23  24
ENDBRANCH  22  23
ENDBRANCH   1  22
TORSDOF 15
ENDMDL
MODEL 2
REMARK VINA RESULT:      -7.5      4.688      6.276
REMARK  Name = 
REMARK  17 active torsions:
REMARK  status: ('A' for Active; 'I' for Inactive)
REMARK    1  A    between atoms: C_1  and  C_2
REMARK    2  A    between atoms: N_4  and  C_5
REMARK    3  A    between atoms: C_8  and  O_9
REMARK    4  A    between atoms: O_9  and  C_10
REMARK    5  A    between atoms: C_10  and  C_11
REMARK    6  A    between atoms: C_11  and  O_12
REMARK    7  A    between atoms: C_11  and  C_13
REMARK    8  A    between atoms: C_13  and  N_14
REMARK    9  A    between atoms: N_14  and  C_15
REMARK   10  A    between atoms: C_15  and  C_16
REMARK   11  A    between atoms: C_15  and  C_17
REMARK   12  A    between atoms: C_17  and  C_18
REMARK   13  A    between atoms: C_18  and  C_19
REMARK   14  A    between atoms: C_19  and  C_20
REMARK   15  A    between atoms: C_20  and  C_21
REMARK   16  A    between atoms: N_23  and  C_24
REMARK   17  A    between atoms: C_27  and  C_28
REMARK                            x       y       z     vdW  Elec       q    Type
REMARK                         _______ _______ _______ _____ _____    ______ ____
ROOT
ATOM      1  C   UNL     1       6.177   5.066  16.628  0.00  0.00    +0.000 C 
ATOM      2  C   UNL     1       5.153   6.002  15.973  0.00  0.00    +0.000 C 
ENDROOT
BRANCH   1   3
ATOM      3  N   UNL     1       5.518   4.039  17.443  0.00  0.00    +0.000 NA
ATOM      4  H   UNL     1       4.603   3.794  17.059  0.00  0.00    +0.000 HD
BRANCH   3   5
ATOM      5  C   UNL     1       5.317   4.446  18.834  0.00  0.00    +0.000 C 
BRANCH   5   6
ATOM      6  C   UNL     1       3.985   3.903  19.383  0.00  0.00    +0.000 C 
BRANCH   6   7
ATOM      7  O   UNL     1       3.590   2.747  18.627  0.00  0.00    +0.000 OA
ATOM      8  H   UNL     1       3.341   2.047  19.251  0.00  0.00    +0.000 HD
ENDBRANCH   6   7
BRANCH   6   9
ATOM      9  C   UNL     1       2.943   5.028  19.298  0.00  0.00    +0.000 C 
BRANCH   9  10
ATOM     10  O   UNL     1       3.532   6.212  18.764  0.00  0.00    +0.000 OA
BRANCH  10  14
ATOM     11  C   UNL     1       1.126   9.585  19.299  0.00  0.00    +0.000 A 
ATOM     12  C   UNL     1       1.215   8.571  20.256  0.00  0.00    +0.000 A 
ATOM     13  C   UNL     1       2.028   7.457  20.036  0.00  0.00    +0.000 A 
ATOM     14  C   UNL     1       2.747   7.330  18.852  0.00  0.00    +0.000 A 
ATOM     15  C   UNL     1       2.657   8.332  17.886  0.00  0.00    +0.000 A 
ATOM     16  C   UNL     1       1.838   9.448  18.104  0.00  0.00    +0.000 A 
BRANCH  11  20
ATOM     17  C   UNL     1      -0.557  12.766  20.419  0.00  0.00    +0.000 C 
ATOM     18  C   UNL     1       0.489  11.686  20.482  0.00  0.00    +0.000 C 
ATOM     19  O   UNL     1       1.352  11.703  21.353  0.00  0.00    +0.000 OA
ATOM     20  N   UNL     1       0.345  10.748  19.473  0.00  0.00    +0.000 N 
ATOM     21  H   UNL     1      -0.321  10.958  18.742  0.00  0.00    +0.000 HD
ENDBRANCH  11  20
ENDBRANCH  10  14
ENDBRANCH   9  10
ENDBRANCH   6   9
ENDBRANCH   5   6
ENDBRANCH   3   5
ENDBRANCH   1   3
BRANCH   1  22
ATOM     22  C   UNL     1       7.123   5.893  17.523  0.00  0.00    +0.000 C 
BRANCH  22  23
ATOM     23  C   UNL     1       6.709   7.357  17.744  0.00  0.00    +0.000 C 
BRANCH  23  24
ATOM     24  C   UNL     1       7.826   8.380  17.533  0.00  0.00    +0.000 C 
BRANCH  24  25
ATOM     25  C   UNL     1       8.734   8.509  18.750  0.00  0.00    +0.000 C 
BRANCH  25  26
ATOM     26  C   UNL     1       9.058   9.957  19.015  0.00  0.00    +0.000 C 
ATOM     27  O   UNL     1       9.140  10.360  20.171  0.00  0.00    +0.000 OA
ATOM     28  N   UNL     1       9.182  10.712  17.862  0.00  0.00    +0.000 N 
ATOM     29  H   UNL     1       8.910  10.278  16.989  0.00  0.00    +0.000 HD
BRANCH  28  30
ATOM     30  C   UNL     1       9.568  12.067  17.806  0.00  0.00    +0.000 A 
ATOM     31  C   UNL     1      10.825  12.475  17.354  0.00  0.00    +0.000 A 
ATOM     32  C   UNL     1      11.168  13.827  17.319  0.00  0.00    +0.000 A 
ATOM     33  C   UNL     1      10.256  14.805  17.730  0.00  0.00    +0.000 A 
ATOM     34  C   UNL     1       8.989  14.396  18.171  0.00  0.00    +0.000 A 
ATOM     35  C   UNL     1       8.644  13.039  18.201  0.00  0.00    +0.000 A 
BRANCH  33  36
ATOM     36  C   UNL     1      10.632  16.263  17.692  0.00  0.00    +0.000 C 
ATOM     37  F   UNL     1      11.565  16.560  16.745  0.00  0.00    +0.000 F 
ATOM     38  F   UNL     1       9.565  17.067  17.428  0.00  0.00    +0.000 F 
ATOM     39  F   UNL     1      11.149  16.699  18.873  0.00  0.00    +0.000 F 
ENDBRANCH  33  36
ENDBRANCH  28  30
ENDBRANCH  25  26
ENDBRANCH  24  25
ENDBRANCH  23  24
ENDBRANCH  22  23
ENDBRANCH   1  22
TORSDOF 15
ENDMDL
MODEL 3
REMARK VINA RESULT:      -7.3      4.397      5.508
REMARK  Name = 
REMARK  17 active torsions:
REMARK  status: ('A' for Active; 'I' for Inactive)
REMARK    1  A    between atoms: C_1  and  C_2
REMARK    2  A    between atoms: N_4  and  C_5
REMARK    3  A    between atoms: C_8  and  O_9
REMARK    4  A    between atoms: O_9  and  C_10
REMARK    5  A    between atoms: C_10  and  C_11
REMARK    6  A    between atoms: C_11  and  O_12
REMARK    7  A    between atoms: C_11  and  C_13
REMARK    8  A    between atoms: C_13  and  N_14
REMARK    9  A    between atoms: N_14  and  C_15
REMARK   10  A    between atoms: C_15  and  C_16
REMARK   11  A    between atoms: C_15  and  C_17
REMARK   12  A    between atoms: C_17  and  C_18
REMARK   13  A    between atoms: C_18  and  C_19
REMARK   14  A    between atoms: C_19  and  C_20
REMARK   15  A    between atoms: C_20  and  C_21
REMARK   16  A    between atoms: N_23  and  C_24
REMARK   17  A    between atoms: C_27  and  C_28
REMARK                            x       y       z     vdW  Elec       q    Type
REMARK                         _______ _______ _______ _____ _____    ______ ____
ROOT
ATOM      1  C   UNL     1       7.640   4.927  18.341  0.00  0.00    +0.000 C 
ATOM      2  C   UNL     1       7.461   4.753  16.827  0.00  0.00    +0.000 C 
ENDROOT
BRANCH   1   3
ATOM      3  N   UNL     1       6.488   4.398  19.080  0.00  0.00    +0.000 NA
ATOM      4  H   UNL     1       6.684   3.465  19.449  0.00  0.00    +0.000 HD
BRANCH   3   5
ATOM      5  C   UNL     1       5.273   4.306  18.270  0.00  0.00    +0.000 C 
BRANCH   5   6
ATOM      6  C   UNL     1       4.309   3.247  18.835  0.00  0.00    +0.000 C 
BRANCH   6   7
ATOM      7  O   UNL     1       5.064   2.185  19.440  0.00  0.00    +0.000 OA
ATOM      8  H   UNL     1       5.098   1.443  18.815  0.00  0.00    +0.000 HD
ENDBRANCH   6   7
BRANCH   6   9
ATOM      9  C   UNL     1       3.429   2.741  17.682  0.00  0.00    +0.000 C 
BRANCH   9  10
ATOM     10  O   UNL     1       2.152   3.376  17.715  0.00  0.00    +0.000 OA
BRANCH  10  14
ATOM     11  C   UNL     1       1.850   6.783  20.112  0.00  0.00    +0.000 A 
ATOM     12  C   UNL     1       2.127   6.854  18.745  0.00  0.00    +0.000 A 
ATOM     13  C   UNL     1       2.225   5.690  17.979  0.00  0.00    +0.000 A 
ATOM     14  C   UNL     1       2.067   4.440  18.571  0.00  0.00    +0.000 A 
ATOM     15  C   UNL     1       1.799   4.359  19.937  0.00  0.00    +0.000 A 
ATOM     16  C   UNL     1       1.705   5.526  20.707  0.00  0.00    +0.000 A 
BRANCH  11  20
ATOM     17  C   UNL     1       1.149  10.137  21.683  0.00  0.00    +0.000 C 
ATOM     18  C   UNL     1       1.040   9.090  20.608  0.00  0.00    +0.000 C 
ATOM     19  O   UNL     1       0.401   9.309  19.585  0.00  0.00    +0.000 OA
ATOM     20  N   UNL     1       1.712   7.923  20.935  0.00  0.00    +0.000 N 
ATOM     21  H   UNL     1       2.060   7.842  21.880  0.00  0.00    +0.000 HD
ENDBRANCH  11  20
ENDBRANCH  10  14
ENDBRANCH   9  10
ENDBRANCH   6   9
ENDBRANCH   5   6
ENDBRANCH   3   5
ENDBRANCH   1   3
BRANCH   1  22
ATOM     22  C   UNL     1       7.802   6.427  18.664  0.00  0.00    +0.000 C 
BRANCH  22  23
ATOM     23  C   UNL     1       7.496   7.389  17.505  0.00  0.00    +0.000 C 
BRANCH  23  24
ATOM     24  C   UNL     1       7.787   8.862  17.797  0.00  0.00    +0.000 C 
BRANCH  24  25
ATOM     25  C   UNL     1       8.970   9.044  18.741  0.00  0.00    +0.000 C 
BRANCH  25  26
ATOM     26  C   UNL     1       9.165  10.503  19.066  0.00  0.00    +0.000 C 
ATOM     27  O   UNL     1       9.304  10.852  20.234  0.00  0.00    +0.000 OA
ATOM     28  N   UNL     1       9.109  11.326  17.955  0.00  0.00    +0.000 N 
ATOM     29  H   UNL     1       8.808  10.911  17.082  0.00  0.00    +0.000 HD
BRANCH  28  30
ATOM     30  C   UNL     1       9.347  12.716  17.950  0.00  0.00    +0.000 A 
ATOM     31  C   UNL     1       8.321  13.657  18.052  0.00  0.00    +0.000 A 
ATOM     32  C   UNL     1       8.601  15.024  18.039  0.00  0.00    +0.000 A 
ATOM     33  C   UNL     1       9.919  15.481  17.928  0.00  0.00    +0.000 A 
ATOM     34  C   UNL     1      10.951  14.535  17.838  0.00  0.00    +0.000 A 
ATOM     35  C   UNL     1      10.668  13.163  17.858  0.00  0.00    +0.000 A 
BRANCH  33  36
ATOM     36  C   UNL     1      10.215  16.957  17.911  0.00  0.00    +0.000 C 
ATOM     37  F   UNL     1       9.116  17.736  18.115  0.00  0.00    +0.000 F 
ATOM     38  F   UNL     1      11.109  17.317  18.872  0.00  0.00    +0.000 F 
ATOM     39  F   UNL     1      10.748  17.368  16.728  0.00  0.00    +0.000 F 
ENDBRANCH  33  36
ENDBRANCH  28  30
ENDBRANCH  25  26
ENDBRANCH  24  25
ENDBRANCH  23  24
ENDBRANCH  22  23
ENDBRANCH   1  22
TORSDOF 15
ENDMDL
MODEL 4
REMARK VINA RESULT:      -7.1      3.603      9.292
REMARK  Name = 
REMARK  17 active torsions:
REMARK  status: ('A' for Active; 'I' for Inactive)
REMARK    1  A    between atoms: C_1  and  C_2
REMARK    2  A    between atoms: N_4  and  C_5
REMARK    3  A    between atoms: C_8  and  O_9
REMARK    4  A    between atoms: O_9  and  C_10
REMARK    5  A    between atoms: C_10  and  C_11
REMARK    6  A    between atoms: C_11  and  O_12
REMARK    7  A    between atoms: C_11  and  C_13
REMARK    8  A    between atoms: C_13  and  N_14
REMARK    9  A    between atoms: N_14  and  C_15
REMARK   10  A    between atoms: C_15  and  C_16
REMARK   11  A    between atoms: C_15  and  C_17
REMARK   12  A    between atoms: C_17  and  C_18
REMARK   13  A    between atoms: C_18  and  C_19
REMARK   14  A    between atoms: C_19  and  C_20
REMARK   15  A    between atoms: C_20  and  C_21
REMARK   16  A    between atoms: N_23  and  C_24
REMARK   17  A    between atoms: C_27  and  C_28
REMARK                            x       y       z     vdW  Elec       q    Type
REMARK                         _______ _______ _______ _____ _____    ______ ____
ROOT
ATOM      1  C   UNL     1       4.602   4.775  18.517  0.00  0.00    +0.000 C 
ATOM      2  C   UNL     1       3.830   4.524  17.215  0.00  0.00    +0.000 C 
ENDROOT
BRANCH   1   3
ATOM      3  N   UNL     1       5.843   5.519  18.268  0.00  0.00    +0.000 NA
ATOM      4  H   UNL     1       6.330   5.724  19.142  0.00  0.00    +0.000 HD
BRANCH   3   5
ATOM      5  C   UNL     1       5.627   6.788  17.573  0.00  0.00    +0.000 C 
BRANCH   5   6
ATOM      6  C   UNL     1       6.925   7.283  16.909  0.00  0.00    +0.000 C 
BRANCH   6   7
ATOM      7  O   UNL     1       7.631   6.166  16.344  0.00  0.00    +0.000 OA
ATOM      8  H   UNL     1       8.580   6.299  16.497  0.00  0.00    +0.000 HD
ENDBRANCH   6   7
BRANCH   6   9
ATOM      9  C   UNL     1       7.757   8.009  17.977  0.00  0.00    +0.000 C 
BRANCH   9  10
ATOM     10  O   UNL     1       8.508   9.068  17.387  0.00  0.00    +0.000 OA
BRANCH  10  14
ATOM     11  C   UNL     1       9.239  12.393  19.807  0.00  0.00    +0.000 A 
ATOM     12  C   UNL     1       8.855  12.513  18.470  0.00  0.00    +0.000 A 
ATOM     13  C   UNL     1       8.625  11.375  17.692  0.00  0.00    +0.000 A 
ATOM     14  C   UNL     1       8.793  10.105  18.234  0.00  0.00    +0.000 A 
ATOM     15  C   UNL     1       9.185   9.975  19.566  0.00  0.00    +0.000 A 
ATOM     16  C   UNL     1       9.420  11.116  20.345  0.00  0.00    +0.000 A 
BRANCH  11  20
ATOM     17  C   UNL     1      10.549  15.326  21.780  0.00  0.00    +0.000 C 
ATOM     18  C   UNL     1      10.618  14.261  20.719  0.00  0.00    +0.000 C 
ATOM     19  O   UNL     1      11.617  14.141  20.019  0.00  0.00    +0.000 OA
ATOM     20  N   UNL     1       9.460  13.503  20.652  0.00  0.00    +0.000 N 
ATOM     21  H   UNL     1       8.668  13.826  21.191  0.00  0.00    +0.000 HD
ENDBRANCH  11  20
ENDBRANCH  10  14
ENDBRANCH   9  10
ENDBRANCH   6   9
ENDBRANCH   5   6
ENDBRANCH   3   5
ENDBRANCH   1   3
BRANCH   1  22
ATOM     22  C   UNL     1       4.946   3.422  19.173  0.00  0.00    +0.000 C 
BRANCH  22  23
ATOM     23  C   UNL     1       3.739   2.581  19.622  0.00  0.00    +0.000 C 
BRANCH  23  24
ATOM     24  C   UNL     1       3.297   2.812  21.068  0.00  0.00    +0.000 C 
BRANCH  24  25
ATOM     25  C   UNL     1       1.810   3.128  21.177  0.00  0.00    +0.000 C 
BRANCH  25  26
ATOM     26  C   UNL     1       1.469   4.349  20.362  0.00  0.00    +0.000 C 
ATOM     27  O   UNL     1       0.781   4.234  19.353  0.00  0.00    +0.000 OA
ATOM     28  N   UNL     1       2.046   5.510  20.846  0.00  0.00    +0.000 N 
ATOM     29  H   UNL     1       2.734   5.417  21.582  0.00  0.00    +0.000 HD
BRANCH  28  30
ATOM     30  C   UNL     1       1.828   6.808  20.339  0.00  0.00    +0.000 A 
ATOM     31  C   UNL     1       2.241   7.201  19.065  0.00  0.00    +0.000 A 
ATOM     32  C   UNL     1       2.008   8.497  18.605  0.00  0.00    +0.000 A 
ATOM     33  C   UNL     1       1.349   9.432  19.411  0.00  0.00    +0.000 A 
ATOM     34  C   UNL     1       0.922   9.034  20.686  0.00  0.00    +0.000 A 
ATOM     35  C   UNL     1       1.151   7.730  21.144  0.00  0.00    +0.000 A 
BRANCH  33  36
ATOM     36  C   UNL     1       1.102  10.830  18.911  0.00  0.00    +0.000 C 
ATOM     37  F   UNL     1       1.027  11.760  19.904  0.00  0.00    +0.000 F 
ATOM     38  F   UNL     1       2.083  11.261  18.071  0.00  0.00    +0.000 F 
ATOM     39  F   UNL     1      -0.063  10.936  18.214  0.00  0.00    +0.000 F 
ENDBRANCH  33  36
ENDBRANCH  28  30
ENDBRANCH  25  26
ENDBRANCH  24  25
ENDBRANCH  23  24
ENDBRANCH  22  23
ENDBRANCH   1  22
TORSDOF 15
ENDMDL
MODEL 5
REMARK VINA RESULT:      -7.0      8.625     10.592
REMARK  Name = 
REMARK  17 active torsions:
REMARK  status: ('A' for Active; 'I' for Inactive)
REMARK    1  A    between atoms: C_1  and  C_2
REMARK    2  A    between atoms: N_4  and  C_5
REMARK    3  A    between atoms: C_8  and  O_9
REMARK    4  A    between atoms: O_9  and  C_10
REMARK    5  A    between atoms: C_10  and  C_11
REMARK    6  A    between atoms: C_11  and  O_12
REMARK    7  A    between atoms: C_11  and  C_13
REMARK    8  A    between atoms: C_13  and  N_14
REMARK    9  A    between atoms: N_14  and  C_15
REMARK   10  A    between atoms: C_15  and  C_16
REMARK   11  A    between atoms: C_15  and  C_17
REMARK   12  A    between atoms: C_17  and  C_18
REMARK   13  A    between atoms: C_18  and  C_19
REMARK   14  A    between atoms: C_19  and  C_20
REMARK   15  A    between atoms: C_20  and  C_21
REMARK   16  A    between atoms: N_23  and  C_24
REMARK   17  A    between atoms: C_27  and  C_28
REMARK                            x       y       z     vdW  Elec       q    Type
REMARK                         _______ _______ _______ _____ _____    ______ ____
ROOT
ATOM      1  C   UNL     1      -2.330  11.149  16.893  0.00  0.00    +0.000 C 
ATOM      2  C   UNL     1      -2.064   9.866  17.690  0.00  0.00    +0.000 C 
ENDROOT
BRANCH   1   3
ATOM      3  N   UNL     1      -1.772  12.325  17.570  0.00  0.00    +0.000 NA
ATOM      4  H   UNL     1      -1.018  12.744  17.021  0.00  0.00    +0.000 HD
BRANCH   3   5
ATOM      5  C   UNL     1      -1.237  12.028  18.899  0.00  0.00    +0.000 C 
BRANCH   5   6
ATOM      6  C   UNL     1       0.160  12.648  19.085  0.00  0.00    +0.000 C 
BRANCH   6   7
ATOM      7  O   UNL     1       0.755  12.883  17.799  0.00  0.00    +0.000 OA
ATOM      8  H   UNL     1       0.062  13.197  17.196  0.00  0.00    +0.000 HD
ENDBRANCH   6   7
BRANCH   6   9
ATOM      9  C   UNL     1       0.998  11.684  19.938  0.00  0.00    +0.000 C 
BRANCH   9  10
ATOM     10  O   UNL     1       0.306  10.450  20.117  0.00  0.00    +0.000 OA
BRANCH  10  14
ATOM     11  C   UNL     1       2.533   7.211  18.704  0.00  0.00    +0.000 A 
ATOM     12  C   UNL     1       2.184   8.290  17.889  0.00  0.00    +0.000 A 
ATOM     13  C   UNL     1       1.434   9.352  18.399  0.00  0.00    +0.000 A 
ATOM     14  C   UNL     1       1.006   9.342  19.723  0.00  0.00    +0.000 A 
ATOM     15  C   UNL     1       1.342   8.265  20.542  0.00  0.00    +0.000 A 
ATOM     16  C   UNL     1       2.091   7.197  20.030  0.00  0.00    +0.000 A 
BRANCH  11  20
ATOM     17  C   UNL     1       3.934   3.933  17.481  0.00  0.00    +0.000 C 
ATOM     18  C   UNL     1       2.831   4.899  17.816  0.00  0.00    +0.000 C 
ATOM     19  O   UNL     1       1.656   4.577  17.680  0.00  0.00    +0.000 OA
ATOM     20  N   UNL     1       3.312   6.122  18.256  0.00  0.00    +0.000 N 
ATOM     21  H   UNL     1       4.306   6.284  18.165  0.00  0.00    +0.000 HD
ENDBRANCH  11  20
ENDBRANCH  10  14
ENDBRANCH   9  10
ENDBRANCH   6   9
ENDBRANCH   5   6
ENDBRANCH   3   5
ENDBRANCH   1   3
BRANCH   1  22
ATOM     22  C   UNL     1      -3.852  11.336  16.724  0.00  0.00    +0.000 C 
BRANCH  22  23
ATOM     23  C   UNL     1      -4.709  10.875  17.914  0.00  0.00    +0.000 C 
BRANCH  23  24
ATOM     24  C   UNL     1      -6.167  11.336  17.874  0.00  0.00    +0.000 C 
BRANCH  24  25
ATOM     25  C   UNL     1      -6.776  11.457  19.265  0.00  0.00    +0.000 C 
BRANCH  25  26
ATOM     26  C   UNL     1      -6.132  12.586  20.027  0.00  0.00    +0.000 C 
ATOM     27  O   UNL     1      -6.150  13.722  19.562  0.00  0.00    +0.000 OA
ATOM     28  N   UNL     1      -5.518  12.179  21.198  0.00  0.00    +0.000 N 
ATOM     29  H   UNL     1      -5.431  11.184  21.358  0.00  0.00    +0.000 HD
BRANCH  28  30
ATOM     30  C   UNL     1      -4.919  13.030  22.150  0.00  0.00    +0.000 A 
ATOM     31  C   UNL     1      -5.424  14.295  22.456  0.00  0.00    +0.000 A 
ATOM     32  C   UNL     1      -4.797  15.106  23.402  0.00  0.00    +0.000 A 
ATOM     33  C   UNL     1      -3.649  14.666  24.070  0.00  0.00    +0.000 A 
ATOM     34  C   UNL     1      -3.148  13.391  23.773  0.00  0.00    +0.000 A 
ATOM     35  C   UNL     1      -3.783  12.575  22.827  0.00  0.00    +0.000 A 
BRANCH  33  36
ATOM     36  C   UNL     1      -2.975  15.547  25.089  0.00  0.00    +0.000 C 
ATOM     37  F   UNL     1      -3.805  16.477  25.640  0.00  0.00    +0.000 F 
ATOM     38  F   UNL     1      -2.467  14.837  26.133  0.00  0.00    +0.000 F 
ATOM     39  F   UNL     1      -1.931  16.245  24.564  0.00  0.00    +0.000 F 
ENDBRANCH  33  36
ENDBRANCH  28  30
ENDBRANCH  25  26
ENDBRANCH  24  25
ENDBRANCH  23  24
ENDBRANCH  22  23
ENDBRANCH   1  22
TORSDOF 15
ENDMDL
MODEL 6
REMARK VINA RESULT:      -6.9      4.779      6.100
REMARK  Name = 
REMARK  17 active torsions:
REMARK  status: ('A' for Active; 'I' for Inactive)
REMARK    1  A    between atoms: C_1  and  C_2
REMARK    2  A    between atoms: N_4  and  C_5
REMARK    3  A    between atoms: C_8  and  O_9
REMARK    4  A    between atoms: O_9  and  C_10
REMARK    5  A    between atoms: C_10  and  C_11
REMARK    6  A    between atoms: C_11  and  O_12
REMARK    7  A    between atoms: C_11  and  C_13
REMARK    8  A    between atoms: C_13  and  N_14
REMARK    9  A    between atoms: N_14  and  C_15
REMARK   10  A    between atoms: C_15  and  C_16
REMARK   11  A    between atoms: C_15  and  C_17
REMARK   12  A    between atoms: C_17  and  C_18
REMARK   13  A    between atoms: C_18  and  C_19
REMARK   14  A    between atoms: C_19  and  C_20
REMARK   15  A    between atoms: C_20  and  C_21
REMARK   16  A    between atoms: N_23  and  C_24
REMARK   17  A    between atoms: C_27  and  C_28
REMARK                            x       y       z     vdW  Elec       q    Type
REMARK                         _______ _______ _______ _____ _____    ______ ____
ROOT
ATOM      1  C   UNL     1       6.701   5.699  17.288  0.00  0.00    +0.000 C 
ATOM      2  C   UNL     1       5.589   6.343  16.450  0.00  0.00    +0.000 C 
ENDROOT
BRANCH   1   3
ATOM      3  N   UNL     1       6.179   4.608  18.121  0.00  0.00    +0.000 NA
ATOM      4  H   UNL     1       6.613   3.716  17.874  0.00  0.00    +0.000 HD
BRANCH   3   5
ATOM      5  C   UNL     1       4.730   4.440  18.014  0.00  0.00    +0.000 C 
BRANCH   5   6
ATOM      6  C   UNL     1       4.094   4.219  19.399  0.00  0.00    +0.000 C 
BRANCH   6   7
ATOM      7  O   UNL     1       3.512   2.906  19.454  0.00  0.00    +0.000 OA
ATOM      8  H   UNL     1       4.168   2.299  19.833  0.00  0.00    +0.000 HD
ENDBRANCH   6   7
BRANCH   6   9
ATOM      9  C   UNL     1       3.048   5.321  19.623  0.00  0.00    +0.000 C 
BRANCH   9  10
ATOM     10  O   UNL     1       3.254   6.395  18.708  0.00  0.00    +0.000 OA
BRANCH  10  14
ATOM     11  C   UNL     1       0.795   9.662  19.561  0.00  0.00    +0.000 A 
ATOM     12  C   UNL     1       1.128   8.707  20.524  0.00  0.00    +0.000 A 
ATOM     13  C   UNL     1       1.950   7.625  20.197  0.00  0.00    +0.000 A 
ATOM     14  C   UNL     1       2.434   7.473  18.901  0.00  0.00    +0.000 A 
ATOM     15  C   UNL     1       2.099   8.418  17.931  0.00  0.00    +0.000 A 
ATOM     16  C   UNL     1       1.271   9.500  18.257  0.00  0.00    +0.000 A 
BRANCH  11  20
ATOM     17  C   UNL     1      -0.771  12.871  20.770  0.00  0.00    +0.000 C 
ATOM     18  C   UNL     1       0.347  11.875  20.623  0.00  0.00    +0.000 C 
ATOM     19  O   UNL     1       1.432  12.070  21.159  0.00  0.00    +0.000 OA
ATOM     20  N   UNL     1      -0.008  10.791  19.836  0.00  0.00    +0.000 N 
ATOM     21  H   UNL     1      -0.886  10.852  19.340  0.00  0.00    +0.000 HD
ENDBRANCH  11  20
ENDBRANCH  10  14
ENDBRANCH   9  10
ENDBRANCH   6   9
ENDBRANCH   5   6
ENDBRANCH   3   5
ENDBRANCH   1   3
BRANCH   1  22
ATOM     22  C   UNL     1       7.338   6.769  18.197  0.00  0.00    +0.000 C 
BRANCH  22  23
ATOM     23  C   UNL     1       8.106   7.883  17.467  0.00  0.00    +0.000 C 
BRANCH  23  24
ATOM     24  C   UNL     1       7.913   9.285  18.047  0.00  0.00    +0.000 C 
BRANCH  24  25
ATOM     25  C   UNL     1       9.082   9.717  18.923  0.00  0.00    +0.000 C 
BRANCH  25  26
ATOM     26  C   UNL     1       9.596  11.066  18.490  0.00  0.00    +0.000 C 
ATOM     27  O   UNL     1      10.452  11.138  17.613  0.00  0.00    +0.000 OA
ATOM     28  N   UNL     1       9.050  12.117  19.205  0.00  0.00    +0.000 N 
ATOM     29  H   UNL     1       8.492  11.888  20.018  0.00  0.00    +0.000 HD
BRANCH  28  30
ATOM     30  C   UNL     1       9.277  13.486  18.955  0.00  0.00    +0.000 A 
ATOM     31  C   UNL     1       8.444  14.252  18.136  0.00  0.00    +0.000 A 
ATOM     32  C   UNL     1       8.708  15.603  17.913  0.00  0.00    +0.000 A 
ATOM     33  C   UNL     1       9.812  16.223  18.509  0.00  0.00    +0.000 A 
ATOM     34  C   UNL     1      10.640  15.458  19.342  0.00  0.00    +0.000 A 
ATOM     35  C   UNL     1      10.370  14.102  19.571  0.00  0.00    +0.000 A 
BRANCH  33  36
ATOM     36  C   UNL     1      10.093  17.682  18.262  0.00  0.00    +0.000 C 
ATOM     37  F   UNL     1      10.082  18.023  16.943  0.00  0.00    +0.000 F 
ATOM     38  F   UNL     1       9.181  18.494  18.864  0.00  0.00    +0.000 F 
ATOM     39  F   UNL     1      11.309  18.065  18.737  0.00  0.00    +0.000 F 
ENDBRANCH  33  36
ENDBRANCH  28  30
ENDBRANCH  25  26
ENDBRANCH  24  25
ENDBRANCH  23  24
ENDBRANCH  22  23
ENDBRANCH   1  22
TORSDOF 15
ENDMDL
MODEL 7
REMARK VINA RESULT:      -6.8      4.720      7.669
REMARK  Name = 
REMARK  17 active torsions:
REMARK  status: ('A' for Active; 'I' for Inactive)
REMARK    1  A    between atoms: C_1  and  C_2
REMARK    2  A    between atoms: N_4  and  C_5
REMARK    3  A    between atoms: C_8  and  O_9
REMARK    4  A    between atoms: O_9  and  C_10
REMARK    5  A    between atoms: C_10  and  C_11
REMARK    6  A    between atoms: C_11  and  O_12
REMARK    7  A    between atoms: C_11  and  C_13
REMARK    8  A    between atoms: C_13  and  N_14
REMARK    9  A    between atoms: N_14  and  C_15
REMARK   10  A    between atoms: C_15  and  C_16
REMARK   11  A    between atoms: C_15  and  C_17
REMARK   12  A    between atoms: C_17  and  C_18
REMARK   13  A    between atoms: C_18  and  C_19
REMARK   14  A    between atoms: C_19  and  C_20
REMARK   15  A    between atoms: C_20  and  C_21
REMARK   16  A    between atoms: N_23  and  C_24
REMARK   17  A    between atoms: C_27  and  C_28
REMARK                            x       y       z     vdW  Elec       q    Type
REMARK                         _______ _______ _______ _____ _____    ______ ____
ROOT
ATOM      1  C   UNL     1       1.301   3.183  20.451  0.00  0.00    +0.000 C 
ATOM      2  C   UNL     1       1.996   3.062  21.813  0.00  0.00    +0.000 C 
ENDROOT
BRANCH   1   3
ATOM      3  N   UNL     1       2.079   2.528  19.393  0.00  0.00    +0.000 NA
ATOM      4  H   UNL     1       3.008   2.267  19.727  0.00  0.00    +0.000 HD
BRANCH   3   5
ATOM      5  C   UNL     1       2.256   3.363  18.204  0.00  0.00    +0.000 C 
BRANCH   5   6
ATOM      6  C   UNL     1       3.488   2.919  17.394  0.00  0.00    +0.000 C 
BRANCH   6   7
ATOM      7  O   UNL     1       4.367   2.158  18.238  0.00  0.00    +0.000 OA
ATOM      8  H   UNL     1       4.801   1.482  17.693  0.00  0.00    +0.000 HD
ENDBRANCH   6   7
BRANCH   6   9
ATOM      9  C   UNL     1       4.171   4.178  16.840  0.00  0.00    +0.000 C 
BRANCH   9  10
ATOM     10  O   UNL     1       5.572   3.960  16.693  0.00  0.00    +0.000 OA
BRANCH  10  14
ATOM     11  C   UNL     1       7.812   7.084  18.328  0.00  0.00    +0.000 A 
ATOM     12  C   UNL     1       6.900   7.282  17.289  0.00  0.00    +0.000 A 
ATOM     13  C   UNL     1       6.174   6.210  16.766  0.00  0.00    +0.000 A 
ATOM     14  C   UNL     1       6.362   4.923  17.260  0.00  0.00    +0.000 A 
ATOM     15  C   UNL     1       7.277   4.713  18.291  0.00  0.00    +0.000 A 
ATOM     16  C   UNL     1       8.009   5.788  18.813  0.00  0.00    +0.000 A 
BRANCH  11  20
ATOM     17  C   UNL     1       9.552  10.286  19.291  0.00  0.00    +0.000 C 
ATOM     18  C   UNL     1       8.601   9.445  18.482  0.00  0.00    +0.000 C 
ATOM     19  O   UNL     1       7.961   9.938  17.560  0.00  0.00    +0.000 OA
ATOM     20  N   UNL     1       8.556   8.130  18.916  0.00  0.00    +0.000 N 
ATOM     21  H   UNL     1       9.025   7.917  19.785  0.00  0.00    +0.000 HD
ENDBRANCH  11  20
ENDBRANCH  10  14
ENDBRANCH   9  10
ENDBRANCH   6   9
ENDBRANCH   5   6
ENDBRANCH   3   5
ENDBRANCH   1   3
BRANCH   1  22
ATOM     22  C   UNL     1       1.125   4.675  20.100  0.00  0.00    +0.000 C 
BRANCH  22  23
ATOM     23  C   UNL     1       2.352   5.564  20.365  0.00  0.00    +0.000 C 
BRANCH  23  24
ATOM     24  C   UNL     1       2.126   7.058  20.131  0.00  0.00    +0.000 C 
BRANCH  24  25
ATOM     25  C   UNL     1       1.017   7.623  21.012  0.00  0.00    +0.000 C 
BRANCH  25  26
ATOM     26  C   UNL     1       1.123   9.124  21.094  0.00  0.00    +0.000 C 
ATOM     27  O   UNL     1       1.386   9.658  22.167  0.00  0.00    +0.000 OA
ATOM     28  N   UNL     1       0.845   9.760  19.896  0.00  0.00    +0.000 N 
ATOM     29  H   UNL     1       0.468   9.196  19.145  0.00  0.00    +0.000 HD
BRANCH  28  30
ATOM     30  C   UNL     1       0.955  11.146  19.658  0.00  0.00    +0.000 A 
ATOM     31  C   UNL     1       1.878  11.686  18.760  0.00  0.00    +0.000 A 
ATOM     32  C   UNL     1       1.955  13.064  18.557  0.00  0.00    +0.000 A 
ATOM     33  C   UNL     1       1.105  13.936  19.246  0.00  0.00    +0.000 A 
ATOM     34  C   UNL     1       0.169  13.392  20.138  0.00  0.00    +0.000 A 
ATOM     35  C   UNL     1       0.088  12.008  20.336  0.00  0.00    +0.000 A 
BRANCH  33  36
ATOM     36  C   UNL     1       1.195  15.422  19.024  0.00  0.00    +0.000 C 
ATOM     37  F   UNL     1       1.891  15.766  17.905  0.00  0.00    +0.000 F 
ATOM     38  F   UNL     1      -0.030  16.002  18.892  0.00  0.00    +0.000 F 
ATOM     39  F   UNL     1       1.807  16.066  20.056  0.00  0.00    +0.000 F 
ENDBRANCH  33  36
ENDBRANCH  28  30
ENDBRANCH  25  26
ENDBRANCH  24  25
ENDBRANCH  23  24
ENDBRANCH  22  23
ENDBRANCH   1  22
TORSDOF 15
ENDMDL
MODEL 8
REMARK VINA RESULT:      -6.8      5.462      7.364
REMARK  Name = 
REMARK  17 active torsions:
REMARK  status: ('A' for Active; 'I' for Inactive)
REMARK    1  A    between atoms: C_1  and  C_2
REMARK    2  A    between atoms: N_4  and  C_5
REMARK    3  A    between atoms: C_8  and  O_9
REMARK    4  A    between atoms: O_9  and  C_10
REMARK    5  A    between atoms: C_10  and  C_11
REMARK    6  A    between atoms: C_11  and  O_12
REMARK    7  A    between atoms: C_11  and  C_13
REMARK    8  A    between atoms: C_13  and  N_14
REMARK    9  A    between atoms: N_14  and  C_15
REMARK   10  A    between atoms: C_15  and  C_16
REMARK   11  A    between atoms: C_15  and  C_17
REMARK   12  A    between atoms: C_17  and  C_18
REMARK   13  A    between atoms: C_18  and  C_19
REMARK   14  A    between atoms: C_19  and  C_20
REMARK   15  A    between atoms: C_20  and  C_21
REMARK   16  A    between atoms: N_23  and  C_24
REMARK   17  A    between atoms: C_27  and  C_28
REMARK                            x       y       z     vdW  Elec       q    Type
REMARK                         _______ _______ _______ _____ _____    ______ ____
ROOT
ATOM      1  C   UNL     1       0.257  12.746  19.604  0.00  0.00    +0.000 C 
ATOM      2  C   UNL     1      -0.751  13.266  20.637  0.00  0.00    +0.000 C 
ENDROOT
BRANCH   1   3
ATOM      3  N   UNL     1       0.606  11.342  19.857  0.00  0.00    +0.000 NA
ATOM      4  H   UNL     1      -0.187  10.726  19.667  0.00  0.00    +0.000 HD
BRANCH   3   5
ATOM      5  C   UNL     1       1.041  11.093  21.231  0.00  0.00    +0.000 C 
BRANCH   5   6
ATOM      6  C   UNL     1       0.177  10.005  21.897  0.00  0.00    +0.000 C 
BRANCH   6   7
ATOM      7  O   UNL     1      -0.020  10.331  23.282  0.00  0.00    +0.000 OA
ATOM      8  H   UNL     1      -0.835  10.853  23.358  0.00  0.00    +0.000 HD
ENDBRANCH   6   7
BRANCH   6   9
ATOM      9  C   UNL     1       0.892   8.657  21.719  0.00  0.00    +0.000 C 
BRANCH   9  10
ATOM     10  O   UNL     1       1.342   8.506  20.375  0.00  0.00    +0.000 OA
BRANCH  10  14
ATOM     11  C   UNL     1       2.941   4.809  19.270  0.00  0.00    +0.000 A 
ATOM     12  C   UNL     1       3.132   5.963  18.508  0.00  0.00    +0.000 A 
ATOM     13  C   UNL     1       2.576   7.180  18.909  0.00  0.00    +0.000 A 
ATOM     14  C   UNL     1       1.806   7.257  20.066  0.00  0.00    +0.000 A 
ATOM     15  C   UNL     1       1.602   6.108  20.829  0.00  0.00    +0.000 A 
ATOM     16  C   UNL     1       2.156   4.886  20.424  0.00  0.00    +0.000 A 
BRANCH  11  20
ATOM     17  C   UNL     1       3.710   1.297  18.139  0.00  0.00    +0.000 C 
ATOM     18  C   UNL     1       2.850   2.524  18.274  0.00  0.00    +0.000 C 
ATOM     19  O   UNL     1       1.712   2.542  17.819  0.00  0.00    +0.000 OA
ATOM     20  N   UNL     1       3.499   3.556  18.933  0.00  0.00    +0.000 N 
ATOM     21  H   UNL     1       4.487   3.439  19.110  0.00  0.00    +0.000 HD
ENDBRANCH  11  20
ENDBRANCH  10  14
ENDBRANCH   9  10
ENDBRANCH   6   9
ENDBRANCH   5   6
ENDBRANCH   3   5
ENDBRANCH   1   3
BRANCH   1  22
ATOM     22  C   UNL     1       1.537  13.604  19.665  0.00  0.00    +0.000 C 
BRANCH  22  23
ATOM     23  C   UNL     1       1.635  14.718  18.610  0.00  0.00    +0.000 C 
BRANCH  23  24
ATOM     24  C   UNL     1       2.803  15.686  18.803  0.00  0.00    +0.000 C 
BRANCH  24  25
ATOM     25  C   UNL     1       3.900  15.486  17.764  0.00  0.00    +0.000 C 
BRANCH  25  26
ATOM     26  C   UNL     1       5.163  14.987  18.420  0.00  0.00    +0.000 C 
ATOM     27  O   UNL     1       5.188  14.809  19.633  0.00  0.00    +0.000 OA
ATOM     28  N   UNL     1       6.216  14.829  17.536  0.00  0.00    +0.000 N 
ATOM     29  H   UNL     1       6.094  15.187  16.597  0.00  0.00    +0.000 HD
BRANCH  28  30
ATOM     30  C   UNL     1       7.481  14.293  17.853  0.00  0.00    +0.000 A 
ATOM     31  C   UNL     1       8.441  15.002  18.577  0.00  0.00    +0.000 A 
ATOM     32  C   UNL     1       9.682  14.435  18.866  0.00  0.00    +0.000 A 
ATOM     33  C   UNL     1       9.991  13.138  18.439  0.00  0.00    +0.000 A 
ATOM     34  C   UNL     1       9.022  12.421  17.722  0.00  0.00    +0.000 A 
ATOM     35  C   UNL     1       7.773  12.990  17.439  0.00  0.00    +0.000 A 
BRANCH  33  36
ATOM     36  C   UNL     1      11.333  12.532  18.751  0.00  0.00    +0.000 C 
ATOM     37  F   UNL     1      11.271  11.214  19.090  0.00  0.00    +0.000 F 
ATOM     38  F   UNL     1      12.192  12.605  17.698  0.00  0.00    +0.000 F 
ATOM     39  F   UNL     1      11.957  13.154  19.789  0.00  0.00    +0.000 F 
ENDBRANCH  33  36
ENDBRANCH  28  30
ENDBRANCH  25  26
ENDBRANCH  24  25
ENDBRANCH  23  24
ENDBRANCH  22  23
ENDBRANCH   1  22
TORSDOF 15
ENDMDL
MODEL 9
REMARK VINA RESULT:      -6.8      4.788      7.454
REMARK  Name = 
REMARK  17 active torsions:
REMARK  status: ('A' for Active; 'I' for Inactive)
REMARK    1  A    between atoms: C_1  and  C_2
REMARK    2  A    between atoms: N_4  and  C_5
REMARK    3  A    between atoms: C_8  and  O_9
REMARK    4  A    between atoms: O_9  and  C_10
REMARK    5  A    between atoms: C_10  and  C_11
REMARK    6  A    between atoms: C_11  and  O_12
REMARK    7  A    between atoms: C_11  and  C_13
REMARK    8  A    between atoms: C_13  and  N_14
REMARK    9  A    between atoms: N_14  and  C_15
REMARK   10  A    between atoms: C_15  and  C_16
REMARK   11  A    between atoms: C_15  and  C_17
REMARK   12  A    between atoms: C_17  and  C_18
REMARK   13  A    between atoms: C_18  and  C_19
REMARK   14  A    between atoms: C_19  and  C_20
REMARK   15  A    between atoms: C_20  and  C_21
REMARK   16  A    between atoms: N_23  and  C_24
REMARK   17  A    between atoms: C_27  and  C_28
REMARK                            x       y       z     vdW  Elec       q    Type
REMARK                         _______ _______ _______ _____ _____    ______ ____
ROOT
ATOM      1  C   UNL     1       3.131   3.778  20.835  0.00  0.00    +0.000 C 
ATOM      2  C   UNL     1       4.422   4.187  20.116  0.00  0.00    +0.000 C 
ENDROOT
BRANCH   1   3
ATOM      3  N   UNL     1       2.619   2.499  20.329  0.00  0.00    +0.000 NA
ATOM      4  H   UNL     1       3.376   1.916  19.967  0.00  0.00    +0.000 HD
BRANCH   3   5
ATOM      5  C   UNL     1       1.630   2.653  19.262  0.00  0.00    +0.000 C 
BRANCH   5   6
ATOM      6  C   UNL     1       2.216   2.236  17.900  0.00  0.00    +0.000 C 
BRANCH   6   7
ATOM      7  O   UNL     1       3.361   1.392  18.109  0.00  0.00    +0.000 OA
ATOM      8  H   UNL     1       3.481   0.843  17.318  0.00  0.00    +0.000 HD
ENDBRANCH   6   7
BRANCH   6   9
ATOM      9  C   UNL     1       2.577   3.512  17.126  0.00  0.00    +0.000 C 
BRANCH   9  10
ATOM     10  O   UNL     1       3.842   3.365  16.485  0.00  0.00    +0.000 OA
BRANCH  10  14
ATOM     11  C   UNL     1       6.167   6.803  16.958  0.00  0.00    +0.000 A 
ATOM     12  C   UNL     1       4.809   6.768  17.284  0.00  0.00    +0.000 A 
ATOM     13  C   UNL     1       4.065   5.599  17.107  0.00  0.00    +0.000 A 
ATOM     14  C   UNL     1       4.661   4.456  16.583  0.00  0.00    +0.000 A 
ATOM     15  C   UNL     1       6.014   4.484  16.246  0.00  0.00    +0.000 A 
ATOM     16  C   UNL     1       6.760   5.657  16.420  0.00  0.00    +0.000 A 
BRANCH  11  20
ATOM     17  C   UNL     1       8.619   9.452  18.042  0.00  0.00    +0.000 C 
ATOM     18  C   UNL     1       8.006   8.078  18.060  0.00  0.00    +0.000 C 
ATOM     19  O   UNL     1       8.425   7.217  18.825  0.00  0.00    +0.000 OA
ATOM     20  N   UNL     1       6.978   7.944  17.140  0.00  0.00    +0.000 N 
ATOM     21  H   UNL     1       6.855   8.696  16.476  0.00  0.00    +0.000 HD
ENDBRANCH  11  20
ENDBRANCH  10  14
ENDBRANCH   9  10
ENDBRANCH   6   9
ENDBRANCH   5   6
ENDBRANCH   3   5
ENDBRANCH   1   3
BRANCH   1  22
ATOM     22  C   UNL     1       2.062   4.870  20.624  0.00  0.00    +0.000 C 
BRANCH  22  23
ATOM     23  C   UNL     1       2.606   6.288  20.385  0.00  0.00    +0.000 C 
BRANCH  23  24
ATOM     24  C   UNL     1       1.555   7.319  19.973  0.00  0.00    +0.000 C 
BRANCH  24  25
ATOM     25  C   UNL     1       0.868   7.959  21.173  0.00  0.00    +0.000 C 
BRANCH  25  26
ATOM     26  C   UNL     1       1.073   9.453  21.163  0.00  0.00    +0.000 C 
ATOM     27  O   UNL     1       1.417  10.026  22.192  0.00  0.00    +0.000 OA
ATOM     28  N   UNL     1       0.784  10.039  19.944  0.00  0.00    +0.000 N 
ATOM     29  H   UNL     1       0.339   9.460  19.242  0.00  0.00    +0.000 HD
BRANCH  28  30
ATOM     30  C   UNL     1       0.972  11.399  19.620  0.00  0.00    +0.000 A 
ATOM     31  C   UNL     1       1.832  11.821  18.604  0.00  0.00    +0.000 A 
ATOM     32  C   UNL     1       1.991  13.177  18.320  0.00  0.00    +0.000 A 
ATOM     33  C   UNL     1       1.288  14.146  19.046  0.00  0.00    +0.000 A 
ATOM     34  C   UNL     1       0.415  13.721  20.058  0.00  0.00    +0.000 A 
ATOM     35  C   UNL     1       0.252  12.358  20.338  0.00  0.00    +0.000 A 
BRANCH  33  36
ATOM     36  C   UNL     1       1.466  15.608  18.737  0.00  0.00    +0.000 C 
ATOM     37  F   UNL     1       1.797  16.359  19.824  0.00  0.00    +0.000 F 
ATOM     38  F   UNL     1       2.448  15.829  17.820  0.00  0.00    +0.000 F 
ATOM     39  F   UNL     1       0.338  16.173  18.224  0.00  0.00    +0.000 F 
ENDBRANCH  33  36
ENDBRANCH  28  30
ENDBRANCH  25  26
ENDBRANCH  24  25
ENDBRANCH  23  24
ENDBRANCH  22  23
ENDBRANCH   1  22
TORSDOF 15
ENDMDL
