MODEL 1
REMARK VINA RESULT:      -7.1      0.000      0.000
REMARK  Name = 
REMARK  7 active torsions:
REMARK  status: ('A' for Active; 'I' for Inactive)
REMARK    1  A    between atoms: N_5  and  C_6
REMARK    2  A    between atoms: C_6  and  C_7
REMARK    3  A    between atoms: C_7  and  O_8
REMARK    4  A    between atoms: C_10  and  C_11
REMARK    5  A    between atoms: C_11  and  O_12
REMARK    6  A    between atoms: C_13  and  O_14
REMARK    7  A    between atoms: C_15  and  O_16
REMARK                            x       y       z     vdW  Elec       q    Type
REMARK                         _______ _______ _______ _____ _____    ______ ____
ROOT
ATOM      1  C   UNL     1       3.939   4.660  17.608  0.00  0.00    +0.000 C 
ATOM      2  C   UNL     1       4.417   4.178  18.970  0.00  0.00    +0.000 C 
ATOM      3  C   UNL     1       4.141   2.889  19.203  0.00  0.00    +0.000 C 
ATOM      4  C   UNL     1       3.400   2.277  18.061  0.00  0.00    +0.000 C 
ATOM      5  C   UNL     1       2.952   3.494  17.214  0.00  0.00    +0.000 C 
ENDROOT
BRANCH   1  10
ATOM      6  O   UNL     1       8.046   5.412  13.981  0.00  0.00    +0.000 OA
ATOM      7  C   UNL     1       7.177   5.181  14.808  0.00  0.00    +0.000 A 
ATOM      8  C   UNL     1       6.109   4.216  14.544  0.00  0.00    +0.000 A 
ATOM      9  C   UNL     1       5.137   4.059  15.443  0.00  0.00    +0.000 A 
ATOM     10  N   UNL     1       5.093   4.770  16.643  0.00  0.00    +0.000 N 
ATOM     11  C   UNL     1       6.114   5.677  16.949  0.00  0.00    +0.000 A 
ATOM     12  O   UNL     1       6.144   6.359  17.969  0.00  0.00    +0.000 OA
ATOM     13  N   UNL     1       7.118   5.794  16.025  0.00  0.00    +0.000 N 
ATOM     14  H   UNL     1       7.838   6.472  16.224  0.00  0.00    +0.000 HD
ENDBRANCH   1  10
BRANCH   4  15
ATOM     15  O   UNL     1       2.292   1.534  18.554  0.00  0.00    +0.000 OA
ATOM     16  H   UNL     1       2.176   1.840  19.479  0.00  0.00    +0.000 HD
ENDBRANCH   4  15
BRANCH   5  17
ATOM     17  O   UNL     1       1.555   3.738  17.489  0.00  0.00    +0.000 OA
ATOM     18  H   UNL     1       1.481   3.940  18.448  0.00  0.00    +0.000 HD
ENDBRANCH   5  17
BRANCH   1  19
ATOM     19  C   UNL     1       3.217   6.023  17.830  0.00  0.00    +0.000 C 
BRANCH  19  20
ATOM     20  O   UNL     1       2.537   6.055  19.097  0.00  0.00    +0.000 OA
ATOM     21  H   UNL     1       2.751   5.222  19.556  0.00  0.00    +0.000 HD
ENDBRANCH  19  20
ENDBRANCH   1  19
BRANCH   3  22
ATOM     22  C   UNL     1       4.552   2.101  20.392  0.00  0.00    +0.000 C 
BRANCH  22  23
ATOM     23  O   UNL     1       5.256   0.951  19.949  0.00  0.00    +0.000 OA
ATOM     24  H   UNL     1       5.600   1.172  19.065  0.00  0.00    +0.000 HD
ENDBRANCH  22  23
ENDBRANCH   3  22
TORSDOF 7
ENDMDL
MODEL 2
REMARK VINA RESULT:      -6.8      2.252      2.644
REMARK  Name = 
REMARK  7 active torsions:
REMARK  status: ('A' for Active; 'I' for Inactive)
REMARK    1  A    between atoms: N_5  and  C_6
REMARK    2  A    between atoms: C_6  and  C_7
REMARK    3  A    between atoms: C_7  and  O_8
REMARK    4  A    between atoms: C_10  and  C_11
REMARK    5  A    between atoms: C_11  and  O_12
REMARK    6  A    between atoms: C_13  and  O_14
REMARK    7  A    between atoms: C_15  and  O_16
REMARK                            x       y       z     vdW  Elec       q    Type
REMARK                         _______ _______ _______ _____ _____    ______ ____
ROOT
ATOM      1  C   UNL     1       3.035   5.132  18.461  0.00  0.00    +0.000 C 
ATOM      2  C   UNL     1       2.664   4.939  19.924  0.00  0.00    +0.000 C 
ATOM      3  C   UNL     1       2.115   3.745  20.178  0.00  0.00    +0.000 C 
ATOM      4  C   UNL     1       1.985   2.931  18.934  0.00  0.00    +0.000 C 
ATOM      5  C   UNL     1       2.228   3.952  17.795  0.00  0.00    +0.000 C 
ENDROOT
BRANCH   1  10
ATOM      6  O   UNL     1       8.442   4.197  17.763  0.00  0.00    +0.000 OA
ATOM      7  C   UNL     1       7.260   4.478  17.894  0.00  0.00    +0.000 A 
ATOM      8  C   UNL     1       6.761   5.134  19.104  0.00  0.00    +0.000 A 
ATOM      9  C   UNL     1       5.451   5.347  19.236  0.00  0.00    +0.000 A 
ATOM     10  N   UNL     1       4.522   4.980  18.261  0.00  0.00    +0.000 N 
ATOM     11  C   UNL     1       4.963   4.381  17.075  0.00  0.00    +0.000 A 
ATOM     12  O   UNL     1       4.215   4.008  16.175  0.00  0.00    +0.000 OA
ATOM     13  N   UNL     1       6.315   4.206  16.950  0.00  0.00    +0.000 N 
ATOM     14  H   UNL     1       6.635   3.744  16.112  0.00  0.00    +0.000 HD
ENDBRANCH   1  10
BRANCH   4  15
ATOM     15  O   UNL     1       0.683   2.362  18.869  0.00  0.00    +0.000 OA
ATOM     16  H   UNL     1       0.829   1.394  18.944  0.00  0.00    +0.000 HD
ENDBRANCH   4  15
BRANCH   5  17
ATOM     17  O   UNL     1       0.945   4.311  17.236  0.00  0.00    +0.000 OA
ATOM     18  H   UNL     1       0.269   3.760  17.689  0.00  0.00    +0.000 HD
ENDBRANCH   5  17
BRANCH   1  19
ATOM     19  C   UNL     1       2.520   6.541  18.038  0.00  0.00    +0.000 C 
BRANCH  19  20
ATOM     20  O   UNL     1       2.305   7.385  19.183  0.00  0.00    +0.000 OA
ATOM     21  H   UNL     1       1.414   7.183  19.522  0.00  0.00    +0.000 HD
ENDBRANCH  19  20
ENDBRANCH   1  19
BRANCH   3  22
ATOM     22  C   UNL     1       1.730   3.218  21.511  0.00  0.00    +0.000 C 
BRANCH  22  23
ATOM     23  O   UNL     1       2.814   2.461  22.027  0.00  0.00    +0.000 OA
ATOM     24  H   UNL     1       2.413   1.717  22.512  0.00  0.00    +0.000 HD
ENDBRANCH  22  23
ENDBRANCH   3  22
TORSDOF 7
ENDMDL
MODEL 3
REMARK VINA RESULT:      -6.8      2.036      2.126
REMARK  Name = 
REMARK  7 active torsions:
REMARK  status: ('A' for Active; 'I' for Inactive)
REMARK    1  A    between atoms: N_5  and  C_6
REMARK    2  A    between atoms: C_6  and  C_7
REMARK    3  A    between atoms: C_7  and  O_8
REMARK    4  A    between atoms: C_10  and  C_11
REMARK    5  A    between atoms: C_11  and  O_12
REMARK    6  A    between atoms: C_13  and  O_14
REMARK    7  A    between atoms: C_15  and  O_16
REMARK                            x       y       z     vdW  Elec       q    Type
REMARK                         _______ _______ _______ _____ _____    ______ ____
ROOT
ATOM      1  C   UNL     1       2.899   4.796  18.273  0.00  0.00    +0.000 C 
ATOM      2  C   UNL     1       2.630   4.415  19.720  0.00  0.00    +0.000 C 
ATOM      3  C   UNL     1       1.990   3.245  19.850  0.00  0.00    +0.000 C 
ATOM      4  C   UNL     1       1.682   2.644  18.519  0.00  0.00    +0.000 C 
ATOM      5  C   UNL     1       1.931   3.803  17.521  0.00  0.00    +0.000 C 
ENDROOT
BRANCH   1  10
ATOM      6  O   UNL     1       8.240   4.279  16.931  0.00  0.00    +0.000 OA
ATOM      7  C   UNL     1       7.060   4.316  17.246  0.00  0.00    +0.000 A 
ATOM      8  C   UNL     1       6.008   3.897  16.319  0.00  0.00    +0.000 A 
ATOM      9  C   UNL     1       4.732   4.033  16.678  0.00  0.00    +0.000 A 
ATOM     10  N   UNL     1       4.344   4.552  17.914  0.00  0.00    +0.000 N 
ATOM     11  C   UNL     1       5.320   4.933  18.842  0.00  0.00    +0.000 A 
ATOM     12  O   UNL     1       5.069   5.418  19.942  0.00  0.00    +0.000 OA
ATOM     13  N   UNL     1       6.622   4.751  18.463  0.00  0.00    +0.000 N 
ATOM     14  H   UNL     1       7.330   5.056  19.114  0.00  0.00    +0.000 HD
ENDBRANCH   1  10
BRANCH   4  15
ATOM     15  O   UNL     1       0.331   2.202  18.495  0.00  0.00    +0.000 OA
ATOM     16  H   UNL     1      -0.179   2.929  18.915  0.00  0.00    +0.000 HD
ENDBRANCH   4  15
BRANCH   5  17
ATOM     17  O   UNL     1       0.648   4.347  17.142  0.00  0.00    +0.000 OA
ATOM     18  H   UNL     1       0.601   4.319  16.161  0.00  0.00    +0.000 HD
ENDBRANCH   5  17
BRANCH   1  19
ATOM     19  C   UNL     1       2.490   6.291  18.107  0.00  0.00    +0.000 C 
BRANCH  19  20
ATOM     20  O   UNL     1       2.504   6.980  19.370  0.00  0.00    +0.000 OA
ATOM     21  H   UNL     1       3.436   7.183  19.572  0.00  0.00    +0.000 HD
ENDBRANCH  19  20
ENDBRANCH   1  19
BRANCH   3  22
ATOM     22  C   UNL     1       1.664   2.556  21.123  0.00  0.00    +0.000 C 
BRANCH  22  23
ATOM     23  O   UNL     1       2.816   2.572  21.952  0.00  0.00    +0.000 OA
ATOM     24  H   UNL     1       2.486   2.549  22.869  0.00  0.00    +0.000 HD
ENDBRANCH  22  23
ENDBRANCH   3  22
TORSDOF 7
ENDMDL
MODEL 4
REMARK VINA RESULT:      -6.7      2.103      4.278
REMARK  Name = 
REMARK  7 active torsions:
REMARK  status: ('A' for Active; 'I' for Inactive)
REMARK    1  A    between atoms: N_5  and  C_6
REMARK    2  A    between atoms: C_6  and  C_7
REMARK    3  A    between atoms: C_7  and  O_8
REMARK    4  A    between atoms: C_10  and  C_11
REMARK    5  A    between atoms: C_11  and  O_12
REMARK    6  A    between atoms: C_13  and  O_14
REMARK    7  A    between atoms: C_15  and  O_16
REMARK                            x       y       z     vdW  Elec       q    Type
REMARK                         _______ _______ _______ _____ _____    ______ ____
ROOT
ATOM      1  C   UNL     1       2.672   5.181  18.296  0.00  0.00    +0.000 C 
ATOM      2  C   UNL     1       2.192   6.538  17.804  0.00  0.00    +0.000 C 
ATOM      3  C   UNL     1       2.151   7.468  18.767  0.00  0.00    +0.000 C 
ATOM      4  C   UNL     1       2.562   6.901  20.085  0.00  0.00    +0.000 C 
ATOM      5  C   UNL     1       2.536   5.370  19.856  0.00  0.00    +0.000 C 
ENDROOT
BRANCH   1  10
ATOM      6  O   UNL     1       8.023   4.458  17.094  0.00  0.00    +0.000 OA
ATOM      7  C   UNL     1       6.823   4.568  17.301  0.00  0.00    +0.000 A 
ATOM      8  C   UNL     1       5.995   5.486  16.518  0.00  0.00    +0.000 A 
ATOM      9  C   UNL     1       4.708   5.632  16.834  0.00  0.00    +0.000 A 
ATOM     10  N   UNL     1       4.102   4.936  17.881  0.00  0.00    +0.000 N 
ATOM     11  C   UNL     1       4.851   4.024  18.632  0.00  0.00    +0.000 A 
ATOM     12  O   UNL     1       4.405   3.386  19.582  0.00  0.00    +0.000 OA
ATOM     13  N   UNL     1       6.161   3.867  18.264  0.00  0.00    +0.000 N 
ATOM     14  H   UNL     1       6.715   3.236  18.824  0.00  0.00    +0.000 HD
ENDBRANCH   1  10
BRANCH   4  15
ATOM     15  O   UNL     1       1.638   7.305  21.087  0.00  0.00    +0.000 OA
ATOM     16  H   UNL     1       0.754   7.203  20.671  0.00  0.00    +0.000 HD
ENDBRANCH   4  15
BRANCH   5  17
ATOM     17  O   UNL     1       1.324   4.851  20.445  0.00  0.00    +0.000 OA
ATOM     18  H   UNL     1       1.340   5.091  21.398  0.00  0.00    +0.000 HD
ENDBRANCH   5  17
BRANCH   1  19
ATOM     19  C   UNL     1       1.695   4.111  17.722  0.00  0.00    +0.000 C 
BRANCH  19  20
ATOM     20  O   UNL     1       1.694   2.919  18.527  0.00  0.00    +0.000 OA
ATOM     21  H   UNL     1       1.524   2.171  17.926  0.00  0.00    +0.000 HD
ENDBRANCH  19  20
ENDBRANCH   1  19
BRANCH   3  22
ATOM     22  C   UNL     1       1.815   8.903  18.593  0.00  0.00    +0.000 C 
BRANCH  22  23
ATOM     23  O   UNL     1       2.173   9.292  17.276  0.00  0.00    +0.000 OA
ATOM     24  H   UNL     1       3.072   8.947  17.130  0.00  0.00    +0.000 HD
ENDBRANCH  22  23
ENDBRANCH   3  22
TORSDOF 7
ENDMDL
MODEL 5
REMARK VINA RESULT:      -6.7      2.523      5.268
REMARK  Name = 
REMARK  7 active torsions:
REMARK  status: ('A' for Active; 'I' for Inactive)
REMARK    1  A    between atoms: N_5  and  C_6
REMARK    2  A    between atoms: C_6  and  C_7
REMARK    3  A    between atoms: C_7  and  O_8
REMARK    4  A    between atoms: C_10  and  C_11
REMARK    5  A    between atoms: C_11  and  O_12
REMARK    6  A    between atoms: C_13  and  O_14
REMARK    7  A    between atoms: C_15  and  O_16
REMARK                            x       y       z     vdW  Elec       q    Type
REMARK                         _______ _______ _______ _____ _____    ______ ____
ROOT
ATOM      1  C   UNL     1       4.376   5.430  17.745  0.00  0.00    +0.000 C 
ATOM      2  C   UNL     1       5.557   5.084  18.639  0.00  0.00    +0.000 C 
ATOM      3  C   UNL     1       6.704   5.652  18.244  0.00  0.00    +0.000 C 
ATOM      4  C   UNL     1       6.514   6.452  16.999  0.00  0.00    +0.000 C 
ATOM      5  C   UNL     1       5.123   6.010  16.482  0.00  0.00    +0.000 C 
ENDROOT
BRANCH   1  10
ATOM      6  O   UNL     1       0.843   8.982  20.089  0.00  0.00    +0.000 OA
ATOM      7  C   UNL     1       1.683   8.242  19.599  0.00  0.00    +0.000 A 
ATOM      8  C   UNL     1       2.301   8.540  18.306  0.00  0.00    +0.000 A 
ATOM      9  C   UNL     1       3.151   7.662  17.773  0.00  0.00    +0.000 A 
ATOM     10  N   UNL     1       3.492   6.463  18.400  0.00  0.00    +0.000 N 
ATOM     11  C   UNL     1       2.949   6.156  19.653  0.00  0.00    +0.000 A 
ATOM     12  O   UNL     1       3.177   5.116  20.265  0.00  0.00    +0.000 OA
ATOM     13  N   UNL     1       2.107   7.091  20.193  0.00  0.00    +0.000 N 
ATOM     14  H   UNL     1       1.685   6.860  21.080  0.00  0.00    +0.000 HD
ENDBRANCH   1  10
BRANCH   4  15
ATOM     15  O   UNL     1       7.548   6.146  16.072  0.00  0.00    +0.000 OA
ATOM     16  H   UNL     1       7.083   5.777  15.290  0.00  0.00    +0.000 HD
ENDBRANCH   4  15
BRANCH   5  17
ATOM     17  O   UNL     1       5.325   5.081  15.395  0.00  0.00    +0.000 OA
ATOM     18  H   UNL     1       5.529   5.614  14.594  0.00  0.00    +0.000 HD
ENDBRANCH   5  17
BRANCH   1  19
ATOM     19  C   UNL     1       3.617   4.101  17.450  0.00  0.00    +0.000 C 
BRANCH  19  20
ATOM     20  O   UNL     1       4.518   2.979  17.428  0.00  0.00    +0.000 OA
ATOM     21  H   UNL     1       4.702   2.745  18.356  0.00  0.00    +0.000 HD
ENDBRANCH  19  20
ENDBRANCH   1  19
BRANCH   3  22
ATOM     22  C   UNL     1       8.008   5.584  18.950  0.00  0.00    +0.000 C 
BRANCH  22  23
ATOM     23  O   UNL     1       7.763   5.534  20.346  0.00  0.00    +0.000 OA
ATOM     24  H   UNL     1       7.664   6.460  20.634  0.00  0.00    +0.000 HD
ENDBRANCH  22  23
ENDBRANCH   3  22
TORSDOF 7
ENDMDL
MODEL 6
REMARK VINA RESULT:      -6.5      2.477      4.901
REMARK  Name = 
REMARK  7 active torsions:
REMARK  status: ('A' for Active; 'I' for Inactive)
REMARK    1  A    between atoms: N_5  and  C_6
REMARK    2  A    between atoms: C_6  and  C_7
REMARK    3  A    between atoms: C_7  and  O_8
REMARK    4  A    between atoms: C_10  and  C_11
REMARK    5  A    between atoms: C_11  and  O_12
REMARK    6  A    between atoms: C_13  and  O_14
REMARK    7  A    between atoms: C_15  and  O_16
REMARK                            x       y       z     vdW  Elec       q    Type
REMARK                         _______ _______ _______ _____ _____    ______ ____
ROOT
ATOM      1  C   UNL     1       4.695   4.861  18.410  0.00  0.00    +0.000 C 
ATOM      2  C   UNL     1       5.886   4.984  19.348  0.00  0.00    +0.000 C 
ATOM      3  C   UNL     1       7.028   5.285  18.717  0.00  0.00    +0.000 C 
ATOM      4  C   UNL     1       6.823   5.387  17.242  0.00  0.00    +0.000 C 
ATOM      5  C   UNL     1       5.427   4.756  17.016  0.00  0.00    +0.000 C 
ENDROOT
BRANCH   1  10
ATOM      6  O   UNL     1       1.182   9.127  18.642  0.00  0.00    +0.000 OA
ATOM      7  C   UNL     1       2.013   8.232  18.622  0.00  0.00    +0.000 A 
ATOM      8  C   UNL     1       2.985   8.117  17.533  0.00  0.00    +0.000 A 
ATOM      9  C   UNL     1       3.819   7.077  17.512  0.00  0.00    +0.000 A 
ATOM     10  N   UNL     1       3.818   6.085  18.495  0.00  0.00    +0.000 N 
ATOM     11  C   UNL     1       2.927   6.176  19.570  0.00  0.00    +0.000 A 
ATOM     12  O   UNL     1       2.843   5.340  20.465  0.00  0.00    +0.000 OA
ATOM     13  N   UNL     1       2.106   7.272  19.586  0.00  0.00    +0.000 N 
ATOM     14  H   UNL     1       1.438   7.325  20.340  0.00  0.00    +0.000 HD
ENDBRANCH   1  10
BRANCH   4  15
ATOM     15  O   UNL     1       7.847   4.667  16.567  0.00  0.00    +0.000 OA
ATOM     16  H   UNL     1       8.283   4.134  17.267  0.00  0.00    +0.000 HD
ENDBRANCH   4  15
BRANCH   5  17
ATOM     17  O   UNL     1       5.618   3.418  16.510  0.00  0.00    +0.000 OA
ATOM     18  H   UNL     1       4.726   3.015  16.415  0.00  0.00    +0.000 HD
ENDBRANCH   5  17
BRANCH   1  19
ATOM     19  C   UNL     1       3.935   3.558  18.800  0.00  0.00    +0.000 C 
BRANCH  19  20
ATOM     20  O   UNL     1       4.838   2.554  19.297  0.00  0.00    +0.000 OA
ATOM     21  H   UNL     1       4.871   2.655  20.266  0.00  0.00    +0.000 HD
ENDBRANCH  19  20
ENDBRANCH   1  19
BRANCH   3  22
ATOM     22  C   UNL     1       8.340   5.561  19.353  0.00  0.00    +0.000 C 
BRANCH  22  23
ATOM     23  O   UNL     1       8.211   5.366  20.753  0.00  0.00    +0.000 OA
ATOM     24  H   UNL     1       8.668   4.528  20.949  0.00  0.00    +0.000 HD
ENDBRANCH  22  23
ENDBRANCH   3  22
TORSDOF 7
ENDMDL
MODEL 7
REMARK VINA RESULT:      -6.5      2.268      5.332
REMARK  Name = 
REMARK  7 active torsions:
REMARK  status: ('A' for Active; 'I' for Inactive)
REMARK    1  A    between atoms: N_5  and  C_6
REMARK    2  A    between atoms: C_6  and  C_7
REMARK    3  A    between atoms: C_7  and  O_8
REMARK    4  A    between atoms: C_10  and  C_11
REMARK    5  A    between atoms: C_11  and  O_12
REMARK    6  A    between atoms: C_13  and  O_14
REMARK    7  A    between atoms: C_15  and  O_16
REMARK                            x       y       z     vdW  Elec       q    Type
REMARK                         _______ _______ _______ _____ _____    ______ ____
ROOT
ATOM      1  C   UNL     1       5.115   4.709  17.251  0.00  0.00    +0.000 C 
ATOM      2  C   UNL     1       6.398   4.619  18.063  0.00  0.00    +0.000 C 
ATOM      3  C   UNL     1       6.961   5.811  18.297  0.00  0.00    +0.000 C 
ATOM      4  C   UNL     1       6.184   6.914  17.659  0.00  0.00    +0.000 C 
ATOM      5  C   UNL     1       5.223   6.180  16.691  0.00  0.00    +0.000 C 
ENDROOT
BRANCH   1  10
ATOM      6  O   UNL     1       0.656   3.703  20.366  0.00  0.00    +0.000 OA
ATOM      7  C   UNL     1       1.652   3.992  19.720  0.00  0.00    +0.000 A 
ATOM      8  C   UNL     1       1.585   4.919  18.589  0.00  0.00    +0.000 A 
ATOM      9  C   UNL     1       2.681   5.140  17.863  0.00  0.00    +0.000 A 
ATOM     10  N   UNL     1       3.906   4.531  18.137  0.00  0.00    +0.000 N 
ATOM     11  C   UNL     1       4.020   3.664  19.230  0.00  0.00    +0.000 A 
ATOM     12  O   UNL     1       5.052   3.071  19.531  0.00  0.00    +0.000 OA
ATOM     13  N   UNL     1       2.890   3.482  19.980  0.00  0.00    +0.000 N 
ATOM     14  H   UNL     1       2.957   2.832  20.748  0.00  0.00    +0.000 HD
ENDBRANCH   1  10
BRANCH   4  15
ATOM     15  O   UNL     1       7.070   7.786  16.970  0.00  0.00    +0.000 OA
ATOM     16  H   UNL     1       6.716   7.832  16.055  0.00  0.00    +0.000 HD
ENDBRANCH   4  15
BRANCH   5  17
ATOM     17  O   UNL     1       5.757   6.302  15.355  0.00  0.00    +0.000 OA
ATOM     18  H   UNL     1       5.005   6.529  14.764  0.00  0.00    +0.000 HD
ENDBRANCH   5  17
BRANCH   1  19
ATOM     19  C   UNL     1       5.199   3.623  16.137  0.00  0.00    +0.000 C 
BRANCH  19  20
ATOM     20  O   UNL     1       6.538   3.501  15.625  0.00  0.00    +0.000 OA
ATOM     21  H   UNL     1       6.983   4.353  15.787  0.00  0.00    +0.000 HD
ENDBRANCH  19  20
ENDBRANCH   1  19
BRANCH   3  22
ATOM     22  C   UNL     1       8.163   6.069  19.130  0.00  0.00    +0.000 C 
BRANCH  22  23
ATOM     23  O   UNL     1       7.950   5.504  20.414  0.00  0.00    +0.000 OA
ATOM     24  H   UNL     1       8.174   6.204  21.054  0.00  0.00    +0.000 HD
ENDBRANCH  22  23
ENDBRANCH   3  22
TORSDOF 7
ENDMDL
MODEL 8
REMARK VINA RESULT:      -6.5      2.521      4.282
REMARK  Name = 
REMARK  7 active torsions:
REMARK  status: ('A' for Active; 'I' for Inactive)
REMARK    1  A    between atoms: N_5  and  C_6
REMARK    2  A    between atoms: C_6  and  C_7
REMARK    3  A    between atoms: C_7  and  O_8
REMARK    4  A    between atoms: C_10  and  C_11
REMARK    5  A    between atoms: C_11  and  O_12
REMARK    6  A    between atoms: C_13  and  O_14
REMARK    7  A    between atoms: C_15  and  O_16
REMARK                            x       y       z     vdW  Elec       q    Type
REMARK                         _______ _______ _______ _____ _____    ______ ____
ROOT
ATOM      1  C   UNL     1       6.042   5.312  17.676  0.00  0.00    +0.000 C 
ATOM      2  C   UNL     1       4.667   5.728  17.176  0.00  0.00    +0.000 C 
ATOM      3  C   UNL     1       3.720   5.673  18.122  0.00  0.00    +0.000 C 
ATOM      4  C   UNL     1       4.275   5.179  19.417  0.00  0.00    +0.000 C 
ATOM      5  C   UNL     1       5.660   4.603  19.033  0.00  0.00    +0.000 C 
ENDROOT
BRANCH   1  10
ATOM      6  O   UNL     1       9.091   9.779  18.834  0.00  0.00    +0.000 OA
ATOM      7  C   UNL     1       8.465   8.779  18.516  0.00  0.00    +0.000 A 
ATOM      8  C   UNL     1       7.434   8.821  17.478  0.00  0.00    +0.000 A 
ATOM      9  C   UNL     1       6.721   7.724  17.223  0.00  0.00    +0.000 A 
ATOM     10  N   UNL     1       6.919   6.519  17.899  0.00  0.00    +0.000 N 
ATOM     11  C   UNL     1       7.918   6.428  18.875  0.00  0.00    +0.000 A 
ATOM     12  O   UNL     1       8.146   5.415  19.532  0.00  0.00    +0.000 OA
ATOM     13  N   UNL     1       8.659   7.558  19.093  0.00  0.00    +0.000 N 
ATOM     14  H   UNL     1       9.356   7.508  19.819  0.00  0.00    +0.000 HD
ENDBRANCH   1  10
BRANCH   4  15
ATOM     15  O   UNL     1       3.415   4.183  19.956  0.00  0.00    +0.000 OA
ATOM     16  H   UNL     1       2.889   4.649  20.641  0.00  0.00    +0.000 HD
ENDBRANCH   4  15
BRANCH   5  17
ATOM     17  O   UNL     1       5.545   3.165  18.975  0.00  0.00    +0.000 OA
ATOM     18  H   UNL     1       6.232   2.796  19.574  0.00  0.00    +0.000 HD
ENDBRANCH   5  17
BRANCH   1  19
ATOM     19  C   UNL     1       6.638   4.332  16.621  0.00  0.00    +0.000 C 
BRANCH  19  20
ATOM     20  O   UNL     1       7.997   3.984  16.938  0.00  0.00    +0.000 OA
ATOM     21  H   UNL     1       8.055   3.012  16.913  0.00  0.00    +0.000 HD
ENDBRANCH  19  20
ENDBRANCH   1  19
BRANCH   3  22
ATOM     22  C   UNL     1       2.306   6.098  17.979  0.00  0.00    +0.000 C 
BRANCH  22  23
ATOM     23  O   UNL     1       1.515   4.949  17.717  0.00  0.00    +0.000 OA
ATOM     24  H   UNL     1       0.592   5.261  17.691  0.00  0.00    +0.000 HD
ENDBRANCH  22  23
ENDBRANCH   3  22
TORSDOF 7
ENDMDL
MODEL 9
REMARK VINA RESULT:      -6.4      2.065      2.201
REMARK  Name = 
REMARK  7 active torsions:
REMARK  status: ('A' for Active; 'I' for Inactive)
REMARK    1  A    between atoms: N_5  and  C_6
REMARK    2  A    between atoms: C_6  and  C_7
REMARK    3  A    between atoms: C_7  and  O_8
REMARK    4  A    between atoms: C_10  and  C_11
REMARK    5  A    between atoms: C_11  and  O_12
REMARK    6  A    between atoms: C_13  and  O_14
REMARK    7  A    between atoms: C_15  and  O_16
REMARK                            x       y       z     vdW  Elec       q    Type
REMARK                         _______ _______ _______ _____ _____    ______ ____
ROOT
ATOM      1  C   UNL     1       3.542   5.092  18.835  0.00  0.00    +0.000 C 
ATOM      2  C   UNL     1       3.878   3.891  19.707  0.00  0.00    +0.000 C 
ATOM      3  C   UNL     1       3.736   2.720  19.073  0.00  0.00    +0.000 C 
ATOM      4  C   UNL     1       3.246   2.914  17.677  0.00  0.00    +0.000 C 
ATOM      5  C   UNL     1       2.774   4.388  17.650  0.00  0.00    +0.000 C 
ENDROOT
BRANCH   1  10
ATOM      6  O   UNL     1       8.092   7.454  16.760  0.00  0.00    +0.000 OA
ATOM      7  C   UNL     1       7.094   6.980  17.282  0.00  0.00    +0.000 A 
ATOM      8  C   UNL     1       7.189   5.924  18.292  0.00  0.00    +0.000 A 
ATOM      9  C   UNL     1       6.071   5.380  18.772  0.00  0.00    +0.000 A 
ATOM     10  N   UNL     1       4.798   5.780  18.362  0.00  0.00    +0.000 N 
ATOM     11  C   UNL     1       4.663   6.809  17.423  0.00  0.00    +0.000 A 
ATOM     12  O   UNL     1       3.585   7.208  16.992  0.00  0.00    +0.000 OA
ATOM     13  N   UNL     1       5.826   7.374  16.973  0.00  0.00    +0.000 N 
ATOM     14  H   UNL     1       5.736   8.093  16.270  0.00  0.00    +0.000 HD
ENDBRANCH   1  10
BRANCH   4  15
ATOM     15  O   UNL     1       2.181   2.009  17.414  0.00  0.00    +0.000 OA
ATOM     16  H   UNL     1       1.651   1.997  18.240  0.00  0.00    +0.000 HD
ENDBRANCH   4  15
BRANCH   5  17
ATOM     17  O   UNL     1       1.333   4.397  17.747  0.00  0.00    +0.000 OA
ATOM     18  H   UNL     1       1.053   5.338  17.805  0.00  0.00    +0.000 HD
ENDBRANCH   5  17
BRANCH   1  19
ATOM     19  C   UNL     1       2.631   6.032  19.681  0.00  0.00    +0.000 C 
BRANCH  19  20
ATOM     20  O   UNL     1       1.770   5.281  20.554  0.00  0.00    +0.000 OA
ATOM     21  H   UNL     1       1.061   5.884  20.843  0.00  0.00    +0.000 HD
ENDBRANCH  19  20
ENDBRANCH   1  19
BRANCH   3  22
ATOM     22  C   UNL     1       4.070   1.379  19.615  0.00  0.00    +0.000 C 
BRANCH  22  23
ATOM     23  O   UNL     1       4.418   0.530  18.532  0.00  0.00    +0.000 OA
ATOM     24  H   UNL     1       4.059  -0.348  18.756  0.00  0.00    +0.000 HD
ENDBRANCH  22  23
ENDBRANCH   3  22
TORSDOF 7
ENDMDL
