MODEL 1
REMARK VINA RESULT:      -6.8      0.000      0.000
REMARK  Name = 
REMARK  5 active torsions:
REMARK  status: ('A' for Active; 'I' for Inactive)
REMARK    1  A    between atoms: C_1  and  N_2
REMARK    2  A    between atoms: C_6  and  C_7
REMARK    3  A    between atoms: C_7  and  N_8
REMARK    4  A    between atoms: C_9  and  C_11
REMARK    5  A    between atoms: C_11  and  N_12
REMARK                            x       y       z     vdW  Elec       q    Type
REMARK                         _______ _______ _______ _____ _____    ______ ____
ROOT
ATOM      1  N   UNL     1       5.044   5.480  17.046  0.00  0.00    +0.000 N 
ATOM      2  C   UNL     1       5.273   4.222  16.476  0.00  0.00    +0.000 C 
ATOM      3  O   UNL     1       4.404   3.340  16.500  0.00  0.00    +0.000 OA
ATOM      4  C   UNL     1       6.071   6.372  17.350  0.00  0.00    +0.000 A 
ATOM      5  N   UNL     1       5.956   7.681  17.337  0.00  0.00    +0.000 NA
ATOM      6  C   UNL     1       7.154   8.263  17.714  0.00  0.00    +0.000 A 
ATOM      7  C   UNL     1       8.129   7.388  18.135  0.00  0.00    +0.000 A 
ATOM      8  S   UNL     1       7.506   5.801  18.114  0.00  0.00    +0.000 S 
ENDROOT
BRANCH   1   9
ATOM      9  C   UNL     1       3.652   5.872  17.355  0.00  0.00    +0.000 C 
BRANCH   9  15
ATOM     10  C   UNL     1       1.912   2.242  19.136  0.00  0.00    +0.000 C 
ATOM     11  N   UNL     1       1.124   3.468  19.045  0.00  0.00    +0.000 NA
ATOM     12  C   UNL     1       1.054   4.180  20.337  0.00  0.00    +0.000 C 
ATOM     13  C   UNL     1       2.347   4.925  20.729  0.00  0.00    +0.000 C 
ATOM     14  O   UNL     1       2.839   5.772  19.674  0.00  0.00    +0.000 OA
ATOM     15  C   UNL     1       3.034   5.004  18.469  0.00  0.00    +0.000 C 
ATOM     16  C   UNL     1       1.680   4.398  18.037  0.00  0.00    +0.000 C 
ENDBRANCH   9  15
ENDBRANCH   1   9
BRANCH   2  17
ATOM     17  C   UNL     1       6.635   3.962  15.793  0.00  0.00    +0.000 C 
BRANCH  17  18
ATOM     18  N   UNL     1       6.643   4.037  14.344  0.00  0.00    +0.000 N 
ATOM     19  C   UNL     1       5.657   3.377  13.528  0.00  0.00    +0.000 C 
ATOM     20  C   UNL     1       6.276   3.451  12.145  0.00  0.00    +0.000 C 
ATOM     21  C   UNL     1       7.054   4.763  12.166  0.00  0.00    +0.000 C 
ATOM     22  C   UNL     1       7.424   4.918  13.621  0.00  0.00    +0.000 C 
ATOM     23  O   UNL     1       8.249   5.697  14.071  0.00  0.00    +0.000 OA
ENDBRANCH  17  18
ENDBRANCH   2  17
TORSDOF 4
ENDMDL
MODEL 2
REMARK VINA RESULT:      -6.4      3.486      5.319
REMARK  Name = 
REMARK  5 active torsions:
REMARK  status: ('A' for Active; 'I' for Inactive)
REMARK    1  A    between atoms: C_1  and  N_2
REMARK    2  A    between atoms: C_6  and  C_7
REMARK    3  A    between atoms: C_7  and  N_8
REMARK    4  A    between atoms: C_9  and  C_11
REMARK    5  A    between atoms: C_11  and  N_12
REMARK                            x       y       z     vdW  Elec       q    Type
REMARK                         _______ _______ _______ _____ _____    ______ ____
ROOT
ATOM      1  N   UNL     1       2.755   6.136  19.369  0.00  0.00    +0.000 N 
ATOM      2  C   UNL     1       3.268   6.244  18.070  0.00  0.00    +0.000 C 
ATOM      3  O   UNL     1       3.400   7.347  17.523  0.00  0.00    +0.000 OA
ATOM      4  C   UNL     1       2.273   4.939  19.895  0.00  0.00    +0.000 A 
ATOM      5  N   UNL     1       2.312   4.609  21.166  0.00  0.00    +0.000 NA
ATOM      6  C   UNL     1       1.725   3.370  21.349  0.00  0.00    +0.000 A 
ATOM      7  C   UNL     1       1.128   2.828  20.234  0.00  0.00    +0.000 A 
ATOM      8  S   UNL     1       1.255   3.930  18.939  0.00  0.00    +0.000 S 
ENDROOT
BRANCH   1   9
ATOM      9  C   UNL     1       2.709   7.350  20.212  0.00  0.00    +0.000 C 
BRANCH   9  15
ATOM     10  C   UNL     1      -0.387   9.626  18.063  0.00  0.00    +0.000 C 
ATOM     11  N   UNL     1       0.353  10.243  19.160  0.00  0.00    +0.000 NA
ATOM     12  C   UNL     1      -0.435  10.279  20.409  0.00  0.00    +0.000 C 
ATOM     13  C   UNL     1      -0.559   8.921  21.129  0.00  0.00    +0.000 C 
ATOM     14  O   UNL     1       0.715   8.276  21.315  0.00  0.00    +0.000 OA
ATOM     15  C   UNL     1       1.387   8.126  20.048  0.00  0.00    +0.000 C 
ATOM     16  C   UNL     1       1.618   9.525  19.435  0.00  0.00    +0.000 C 
ENDBRANCH   9  15
ENDBRANCH   1   9
BRANCH   2  17
ATOM     17  C   UNL     1       3.689   4.950  17.337  0.00  0.00    +0.000 C 
BRANCH  17  18
ATOM     18  N   UNL     1       5.102   4.824  17.034  0.00  0.00    +0.000 N 
ATOM     19  C   UNL     1       5.671   5.260  15.786  0.00  0.00    +0.000 C 
ATOM     20  C   UNL     1       7.042   4.612  15.807  0.00  0.00    +0.000 C 
ATOM     21  C   UNL     1       7.409   4.590  17.287  0.00  0.00    +0.000 C 
ATOM     22  C   UNL     1       6.066   4.505  17.972  0.00  0.00    +0.000 C 
ATOM     23  O   UNL     1       5.876   4.227  19.145  0.00  0.00    +0.000 OA
ENDBRANCH  17  18
ENDBRANCH   2  17
TORSDOF 4
ENDMDL
MODEL 3
REMARK VINA RESULT:      -6.4      3.486      7.808
REMARK  Name = 
REMARK  5 active torsions:
REMARK  status: ('A' for Active; 'I' for Inactive)
REMARK    1  A    between atoms: C_1  and  N_2
REMARK    2  A    between atoms: C_6  and  C_7
REMARK    3  A    between atoms: C_7  and  N_8
REMARK    4  A    between atoms: C_9  and  C_11
REMARK    5  A    between atoms: C_11  and  N_12
REMARK                            x       y       z     vdW  Elec       q    Type
REMARK                         _______ _______ _______ _____ _____    ______ ____
ROOT
ATOM      1  N   UNL     1       2.331   5.985  18.892  0.00  0.00    +0.000 N 
ATOM      2  C   UNL     1       2.234   7.271  19.437  0.00  0.00    +0.000 C 
ATOM      3  O   UNL     1       2.879   8.217  18.968  0.00  0.00    +0.000 OA
ATOM      4  C   UNL     1       1.911   4.841  19.568  0.00  0.00    +0.000 A 
ATOM      5  N   UNL     1       1.448   3.755  18.990  0.00  0.00    +0.000 NA
ATOM      6  C   UNL     1       1.149   2.803  19.949  0.00  0.00    +0.000 A 
ATOM      7  C   UNL     1       1.509   3.127  21.236  0.00  0.00    +0.000 A 
ATOM      8  S   UNL     1       2.297   4.639  21.235  0.00  0.00    +0.000 S 
ENDROOT
BRANCH   1   9
ATOM      9  C   UNL     1       2.923   5.833  17.546  0.00  0.00    +0.000 C 
BRANCH   9  15
ATOM     10  C   UNL     1       7.041   7.385  17.390  0.00  0.00    +0.000 C 
ATOM     11  N   UNL     1       6.579   6.419  16.396  0.00  0.00    +0.000 NA
ATOM     12  C   UNL     1       7.066   5.054  16.683  0.00  0.00    +0.000 C 
ATOM     13  C   UNL     1       6.342   4.347  17.848  0.00  0.00    +0.000 C 
ATOM     14  O   UNL     1       4.909   4.391  17.717  0.00  0.00    +0.000 OA
ATOM     15  C   UNL     1       4.462   5.757  17.589  0.00  0.00    +0.000 C 
ATOM     16  C   UNL     1       5.102   6.376  16.326  0.00  0.00    +0.000 C 
ENDBRANCH   9  15
ENDBRANCH   1   9
BRANCH   2  17
ATOM     17  C   UNL     1       1.279   7.490  20.633  0.00  0.00    +0.000 C 
BRANCH  17  18
ATOM     18  N   UNL     1       0.758   8.835  20.790  0.00  0.00    +0.000 N 
ATOM     19  C   UNL     1      -0.265   9.376  19.935  0.00  0.00    +0.000 C 
ATOM     20  C   UNL     1      -0.209  10.858  20.254  0.00  0.00    +0.000 C 
ATOM     21  C   UNL     1       0.192  10.896  21.725  0.00  0.00    +0.000 C 
ATOM     22  C   UNL     1       1.003   9.633  21.892  0.00  0.00    +0.000 C 
ATOM     23  O   UNL     1       1.723   9.365  22.839  0.00  0.00    +0.000 OA
ENDBRANCH  17  18
ENDBRANCH   2  17
TORSDOF 4
ENDMDL
MODEL 4
REMARK VINA RESULT:      -6.3      1.037      1.192
REMARK  Name = 
REMARK  5 active torsions:
REMARK  status: ('A' for Active; 'I' for Inactive)
REMARK    1  A    between atoms: C_1  and  N_2
REMARK    2  A    between atoms: C_6  and  C_7
REMARK    3  A    between atoms: C_7  and  N_8
REMARK    4  A    between atoms: C_9  and  C_11
REMARK    5  A    between atoms: C_11  and  N_12
REMARK                            x       y       z     vdW  Elec       q    Type
REMARK                         _______ _______ _______ _____ _____    ______ ____
ROOT
ATOM      1  N   UNL     1       4.823   5.611  17.023  0.00  0.00    +0.000 N 
ATOM      2  C   UNL     1       4.810   4.309  16.508  0.00  0.00    +0.000 C 
ATOM      3  O   UNL     1       3.768   3.641  16.479  0.00  0.00    +0.000 OA
ATOM      4  C   UNL     1       5.996   6.268  17.391  0.00  0.00    +0.000 A 
ATOM      5  N   UNL     1       6.176   7.569  17.334  0.00  0.00    +0.000 NA
ATOM      6  C   UNL     1       7.440   7.889  17.798  0.00  0.00    +0.000 A 
ATOM      7  C   UNL     1       8.160   6.842  18.323  0.00  0.00    +0.000 A 
ATOM      8  S   UNL     1       7.203   5.431  18.290  0.00  0.00    +0.000 S 
ENDROOT
BRANCH   1   9
ATOM      9  C   UNL     1       3.533   6.311  17.201  0.00  0.00    +0.000 C 
BRANCH   9  15
ATOM     10  C   UNL     1       2.623   4.375  21.049  0.00  0.00    +0.000 C 
ATOM     11  N   UNL     1       1.547   4.930  20.231  0.00  0.00    +0.000 NA
ATOM     12  C   UNL     1       1.084   6.239  20.737  0.00  0.00    +0.000 C 
ATOM     13  C   UNL     1       2.042   7.413  20.449  0.00  0.00    +0.000 C 
ATOM     14  O   UNL     1       2.433   7.481  19.065  0.00  0.00    +0.000 OA
ATOM     15  C   UNL     1       3.018   6.228  18.652  0.00  0.00    +0.000 C 
ATOM     16  C   UNL     1       1.971   5.106  18.823  0.00  0.00    +0.000 C 
ENDBRANCH   9  15
ENDBRANCH   1   9
BRANCH   2  17
ATOM     17  C   UNL     1       6.130   3.727  15.950  0.00  0.00    +0.000 C 
BRANCH  17  18
ATOM     18  N   UNL     1       6.375   3.950  14.538  0.00  0.00    +0.000 N 
ATOM     19  C   UNL     1       5.567   3.354  13.506  0.00  0.00    +0.000 C 
ATOM     20  C   UNL     1       6.403   3.583  12.262  0.00  0.00    +0.000 C 
ATOM     21  C   UNL     1       7.113   4.904  12.542  0.00  0.00    +0.000 C 
ATOM     22  C   UNL     1       7.229   4.919  14.047  0.00  0.00    +0.000 C 
ATOM     23  O   UNL     1       7.935   5.667  14.704  0.00  0.00    +0.000 OA
ENDBRANCH  17  18
ENDBRANCH   2  17
TORSDOF 4
ENDMDL
MODEL 5
REMARK VINA RESULT:      -6.1      3.451      7.510
REMARK  Name = 
REMARK  5 active torsions:
REMARK  status: ('A' for Active; 'I' for Inactive)
REMARK    1  A    between atoms: C_1  and  N_2
REMARK    2  A    between atoms: C_6  and  C_7
REMARK    3  A    between atoms: C_7  and  N_8
REMARK    4  A    between atoms: C_9  and  C_11
REMARK    5  A    between atoms: C_11  and  N_12
REMARK                            x       y       z     vdW  Elec       q    Type
REMARK                         _______ _______ _______ _____ _____    ______ ____
ROOT
ATOM      1  N   UNL     1       2.418   5.731  18.786  0.00  0.00    +0.000 N 
ATOM      2  C   UNL     1       2.408   7.073  19.187  0.00  0.00    +0.000 C 
ATOM      3  O   UNL     1       3.063   7.929  18.579  0.00  0.00    +0.000 OA
ATOM      4  C   UNL     1       1.992   4.691  19.610  0.00  0.00    +0.000 A 
ATOM      5  N   UNL     1       1.450   3.572  19.184  0.00  0.00    +0.000 NA
ATOM      6  C   UNL     1       1.170   2.747  20.260  0.00  0.00    +0.000 A 
ATOM      7  C   UNL     1       1.621   3.192  21.480  0.00  0.00    +0.000 A 
ATOM      8  S   UNL     1       2.470   4.655  21.264  0.00  0.00    +0.000 S 
ENDROOT
BRANCH   1   9
ATOM      9  C   UNL     1       2.920   5.404  17.434  0.00  0.00    +0.000 C 
BRANCH   9  15
ATOM     10  C   UNL     1       6.864   5.293  15.480  0.00  0.00    +0.000 C 
ATOM     11  N   UNL     1       6.482   4.250  16.429  0.00  0.00    +0.000 NA
ATOM     12  C   UNL     1       7.104   4.452  17.754  0.00  0.00    +0.000 C 
ATOM     13  C   UNL     1       6.472   5.582  18.593  0.00  0.00    +0.000 C 
ATOM     14  O   UNL     1       5.040   5.469  18.682  0.00  0.00    +0.000 OA
ATOM     15  C   UNL     1       4.460   5.426  17.362  0.00  0.00    +0.000 C 
ATOM     16  C   UNL     1       5.015   4.193  16.613  0.00  0.00    +0.000 C 
ENDBRANCH   9  15
ENDBRANCH   1   9
BRANCH   2  17
ATOM     17  C   UNL     1       1.537   7.469  20.402  0.00  0.00    +0.000 C 
BRANCH  17  18
ATOM     18  N   UNL     1       1.120   8.857  20.457  0.00  0.00    +0.000 N 
ATOM     19  C   UNL     1       0.407   9.497  19.383  0.00  0.00    +0.000 C 
ATOM     20  C   UNL     1       0.515  10.965  19.747  0.00  0.00    +0.000 C 
ATOM     21  C   UNL     1       0.524  10.960  21.272  0.00  0.00    +0.000 C 
ATOM     22  C   UNL     1       1.144   9.624  21.607  0.00  0.00    +0.000 C 
ATOM     23  O   UNL     1       1.567   9.285  22.700  0.00  0.00    +0.000 OA
ENDBRANCH  17  18
ENDBRANCH   2  17
TORSDOF 4
ENDMDL
MODEL 6
REMARK VINA RESULT:      -6.1      1.905      2.670
REMARK  Name = 
REMARK  5 active torsions:
REMARK  status: ('A' for Active; 'I' for Inactive)
REMARK    1  A    between atoms: C_1  and  N_2
REMARK    2  A    between atoms: C_6  and  C_7
REMARK    3  A    between atoms: C_7  and  N_8
REMARK    4  A    between atoms: C_9  and  C_11
REMARK    5  A    between atoms: C_11  and  N_12
REMARK                            x       y       z     vdW  Elec       q    Type
REMARK                         _______ _______ _______ _____ _____    ______ ____
ROOT
ATOM      1  N   UNL     1       5.519   4.971  18.060  0.00  0.00    +0.000 N 
ATOM      2  C   UNL     1       6.741   4.933  17.377  0.00  0.00    +0.000 C 
ATOM      3  O   UNL     1       7.685   4.247  17.791  0.00  0.00    +0.000 OA
ATOM      4  C   UNL     1       4.563   5.962  17.845  0.00  0.00    +0.000 A 
ATOM      5  N   UNL     1       3.266   5.793  17.975  0.00  0.00    +0.000 NA
ATOM      6  C   UNL     1       2.608   6.982  17.715  0.00  0.00    +0.000 A 
ATOM      7  C   UNL     1       3.419   8.076  17.518  0.00  0.00    +0.000 A 
ATOM      8  S   UNL     1       5.047   7.611  17.723  0.00  0.00    +0.000 S 
ENDROOT
BRANCH   1   9
ATOM      9  C   UNL     1       5.241   3.924  19.066  0.00  0.00    +0.000 C 
BRANCH   9  15
ATOM     10  C   UNL     1       1.058   3.797  20.436  0.00  0.00    +0.000 C 
ATOM     11  N   UNL     1       1.882   2.591  20.470  0.00  0.00    +0.000 NA
ATOM     12  C   UNL     1       1.580   1.681  19.346  0.00  0.00    +0.000 C 
ATOM     13  C   UNL     1       2.137   2.140  17.983  0.00  0.00    +0.000 C 
ATOM     14  O   UNL     1       3.536   2.477  18.041  0.00  0.00    +0.000 OA
ATOM     15  C   UNL     1       3.765   3.479  19.053  0.00  0.00    +0.000 C 
ATOM     16  C   UNL     1       3.325   2.917  20.423  0.00  0.00    +0.000 C 
ENDBRANCH   9  15
ENDBRANCH   1   9
BRANCH   2  17
ATOM     17  C   UNL     1       6.880   5.753  16.074  0.00  0.00    +0.000 C 
BRANCH  17  18
ATOM     18  N   UNL     1       6.680   5.020  14.838  0.00  0.00    +0.000 N 
ATOM     19  C   UNL     1       5.469   4.297  14.552  0.00  0.00    +0.000 C 
ATOM     20  C   UNL     1       5.870   3.444  13.364  0.00  0.00    +0.000 C 
ATOM     21  C   UNL     1       6.890   4.307  12.628  0.00  0.00    +0.000 C 
ATOM     22  C   UNL     1       7.503   5.132  13.734  0.00  0.00    +0.000 C 
ATOM     23  O   UNL     1       8.526   5.791  13.652  0.00  0.00    +0.000 OA
ENDBRANCH  17  18
ENDBRANCH   2  17
TORSDOF 4
ENDMDL
MODEL 7
REMARK VINA RESULT:      -6.0      3.575      5.333
REMARK  Name = 
REMARK  5 active torsions:
REMARK  status: ('A' for Active; 'I' for Inactive)
REMARK    1  A    between atoms: C_1  and  N_2
REMARK    2  A    between atoms: C_6  and  C_7
REMARK    3  A    between atoms: C_7  and  N_8
REMARK    4  A    between atoms: C_9  and  C_11
REMARK    5  A    between atoms: C_11  and  N_12
REMARK                            x       y       z     vdW  Elec       q    Type
REMARK                         _______ _______ _______ _____ _____    ______ ____
ROOT
ATOM      1  N   UNL     1       2.677   6.292  19.446  0.00  0.00    +0.000 N 
ATOM      2  C   UNL     1       3.207   6.470  18.163  0.00  0.00    +0.000 C 
ATOM      3  O   UNL     1       3.306   7.597  17.661  0.00  0.00    +0.000 OA
ATOM      4  C   UNL     1       2.230   5.059  19.917  0.00  0.00    +0.000 A 
ATOM      5  N   UNL     1       2.261   4.680  21.175  0.00  0.00    +0.000 NA
ATOM      6  C   UNL     1       1.717   3.414  21.299  0.00  0.00    +0.000 A 
ATOM      7  C   UNL     1       1.160   2.895  20.153  0.00  0.00    +0.000 A 
ATOM      8  S   UNL     1       1.268   4.050  18.904  0.00  0.00    +0.000 S 
ENDROOT
BRANCH   1   9
ATOM      9  C   UNL     1       2.570   7.469  20.334  0.00  0.00    +0.000 C 
BRANCH   9  15
ATOM     10  C   UNL     1      -0.438   9.724  18.043  0.00  0.00    +0.000 C 
ATOM     11  N   UNL     1       0.273  10.359  19.150  0.00  0.00    +0.000 NA
ATOM     12  C   UNL     1      -0.553  10.428  20.372  0.00  0.00    +0.000 C 
ATOM     13  C   UNL     1      -0.711   9.086  21.116  0.00  0.00    +0.000 C 
ATOM     14  O   UNL     1       0.550   8.434  21.355  0.00  0.00    +0.000 OA
ATOM     15  C   UNL     1       1.261   8.252  20.113  0.00  0.00    +0.000 C 
ATOM     16  C   UNL     1       1.522   9.636  19.479  0.00  0.00    +0.000 C 
ENDBRANCH   9  15
ENDBRANCH   1   9
BRANCH   2  17
ATOM     17  C   UNL     1       3.689   5.222  17.388  0.00  0.00    +0.000 C 
BRANCH  17  18
ATOM     18  N   UNL     1       5.122   5.112  17.190  0.00  0.00    +0.000 N 
ATOM     19  C   UNL     1       5.951   4.244  17.985  0.00  0.00    +0.000 C 
ATOM     20  C   UNL     1       7.347   4.734  17.655  0.00  0.00    +0.000 C 
ATOM     21  C   UNL     1       7.235   5.200  16.207  0.00  0.00    +0.000 C 
ATOM     22  C   UNL     1       5.791   5.626  16.096  0.00  0.00    +0.000 C 
ATOM     23  O   UNL     1       5.306   6.286  15.191  0.00  0.00    +0.000 OA
ENDBRANCH  17  18
ENDBRANCH   2  17
TORSDOF 4
ENDMDL
MODEL 8
REMARK VINA RESULT:      -6.0      1.789      2.151
REMARK  Name = 
REMARK  5 active torsions:
REMARK  status: ('A' for Active; 'I' for Inactive)
REMARK    1  A    between atoms: C_1  and  N_2
REMARK    2  A    between atoms: C_6  and  C_7
REMARK    3  A    between atoms: C_7  and  N_8
REMARK    4  A    between atoms: C_9  and  C_11
REMARK    5  A    between atoms: C_11  and  N_12
REMARK                            x       y       z     vdW  Elec       q    Type
REMARK                         _______ _______ _______ _____ _____    ______ ____
ROOT
ATOM      1  N   UNL     1       5.244   3.711  17.911  0.00  0.00    +0.000 N 
ATOM      2  C   UNL     1       4.930   3.649  16.548  0.00  0.00    +0.000 C 
ATOM      3  O   UNL     1       4.311   2.687  16.076  0.00  0.00    +0.000 OA
ATOM      4  C   UNL     1       6.210   4.573  18.427  0.00  0.00    +0.000 A 
ATOM      5  N   UNL     1       6.181   5.096  19.633  0.00  0.00    +0.000 NA
ATOM      6  C   UNL     1       7.304   5.880  19.832  0.00  0.00    +0.000 A 
ATOM      7  C   UNL     1       8.239   5.841  18.824  0.00  0.00    +0.000 A 
ATOM      8  S   UNL     1       7.724   4.746  17.623  0.00  0.00    +0.000 S 
ENDROOT
BRANCH   1   9
ATOM      9  C   UNL     1       4.530   2.809  18.840  0.00  0.00    +0.000 C 
BRANCH   9  15
ATOM     10  C   UNL     1       1.511   5.469  20.628  0.00  0.00    +0.000 C 
ATOM     11  N   UNL     1       1.583   4.065  21.023  0.00  0.00    +0.000 NA
ATOM     12  C   UNL     1       0.535   3.252  20.373  0.00  0.00    +0.000 C 
ATOM     13  C   UNL     1       0.792   2.946  18.884  0.00  0.00    +0.000 C 
ATOM     14  O   UNL     1       2.109   2.414  18.648  0.00  0.00    +0.000 OA
ATOM     15  C   UNL     1       3.110   3.313  19.168  0.00  0.00    +0.000 C 
ATOM     16  C   UNL     1       2.897   3.473  20.690  0.00  0.00    +0.000 C 
ENDBRANCH   9  15
ENDBRANCH   1   9
BRANCH   2  17
ATOM     17  C   UNL     1       5.358   4.827  15.642  0.00  0.00    +0.000 C 
BRANCH  17  18
ATOM     18  N   UNL     1       5.880   4.466  14.337  0.00  0.00    +0.000 N 
ATOM     19  C   UNL     1       5.079   3.821  13.331  0.00  0.00    +0.000 C 
ATOM     20  C   UNL     1       6.121   3.349  12.336  0.00  0.00    +0.000 C 
ATOM     21  C   UNL     1       7.213   4.410  12.424  0.00  0.00    +0.000 C 
ATOM     22  C   UNL     1       7.094   4.906  13.845  0.00  0.00    +0.000 C 
ATOM     23  O   UNL     1       7.915   5.589  14.436  0.00  0.00    +0.000 OA
ENDBRANCH  17  18
ENDBRANCH   2  17
TORSDOF 4
ENDMDL
MODEL 9
REMARK VINA RESULT:      -6.0      9.245     11.083
REMARK  Name = 
REMARK  5 active torsions:
REMARK  status: ('A' for Active; 'I' for Inactive)
REMARK    1  A    between atoms: C_1  and  N_2
REMARK    2  A    between atoms: C_6  and  C_7
REMARK    3  A    between atoms: C_7  and  N_8
REMARK    4  A    between atoms: C_9  and  C_11
REMARK    5  A    between atoms: C_11  and  N_12
REMARK                            x       y       z     vdW  Elec       q    Type
REMARK                         _______ _______ _______ _____ _____    ______ ____
ROOT
ATOM      1  N   UNL     1       0.231  12.032  19.855  0.00  0.00    +0.000 N 
ATOM      2  C   UNL     1      -0.747  12.459  18.948  0.00  0.00    +0.000 C 
ATOM      3  O   UNL     1      -0.496  13.320  18.095  0.00  0.00    +0.000 OA
ATOM      4  C   UNL     1      -0.073  11.340  21.026  0.00  0.00    +0.000 A 
ATOM      5  N   UNL     1       0.712  10.457  21.601  0.00  0.00    +0.000 NA
ATOM      6  C   UNL     1       0.119   9.983  22.758  0.00  0.00    +0.000 A 
ATOM      7  C   UNL     1      -1.052  10.606  23.120  0.00  0.00    +0.000 A 
ATOM      8  S   UNL     1      -1.387  11.859  22.013  0.00  0.00    +0.000 S 
ENDROOT
BRANCH   1   9
ATOM      9  C   UNL     1       1.647  12.344  19.565  0.00  0.00    +0.000 C 
BRANCH   9  15
ATOM     10  C   UNL     1       2.188  16.713  19.520  0.00  0.00    +0.000 C 
ATOM     11  N   UNL     1       3.347  15.828  19.611  0.00  0.00    +0.000 NA
ATOM     12  C   UNL     1       3.870  15.741  20.990  0.00  0.00    +0.000 C 
ATOM     13  C   UNL     1       3.017  14.882  21.946  0.00  0.00    +0.000 C 
ATOM     14  O   UNL     1       2.714  13.584  21.403  0.00  0.00    +0.000 OA
ATOM     15  C   UNL     1       2.067  13.720  20.120  0.00  0.00    +0.000 C 
ATOM     16  C   UNL     1       3.021  14.458  19.155  0.00  0.00    +0.000 C 
ENDBRANCH   9  15
ENDBRANCH   1   9
BRANCH   2  17
ATOM     17  C   UNL     1      -2.149  11.813  19.022  0.00  0.00    +0.000 C 
BRANCH  17  18
ATOM     18  N   UNL     1      -2.669  11.282  17.775  0.00  0.00    +0.000 N 
ATOM     19  C   UNL     1      -1.967  10.292  17.001  0.00  0.00    +0.000 C 
ATOM     20  C   UNL     1      -2.705  10.331  15.676  0.00  0.00    +0.000 C 
ATOM     21  C   UNL     1      -4.138  10.673  16.069  0.00  0.00    +0.000 C 
ATOM     22  C   UNL     1      -3.963  11.480  17.333  0.00  0.00    +0.000 C 
ATOM     23  O   UNL     1      -4.820  12.163  17.871  0.00  0.00    +0.000 OA
ENDBRANCH  17  18
ENDBRANCH   2  17
TORSDOF 4
ENDMDL
