MODEL 1
REMARK VINA RESULT:      -5.9      0.000      0.000
REMARK  Name = 
REMARK  4 active torsions:
REMARK  status: ('A' for Active; 'I' for Inactive)
REMARK    1  A    between atoms: C_1  and  N_2
REMARK    2  A    between atoms: N_2  and  C_3
REMARK    3  A    between atoms: N_2  and  S_4
REMARK    4  A    between atoms: S_4  and  C_7
REMARK                            x       y       z     vdW  Elec       q    Type
REMARK                         _______ _______ _______ _____ _____    ______ ____
ROOT
ATOM      1  C   UNL     1       4.223   3.867  18.164  0.00  0.00    +0.000 A 
ATOM      2  C   UNL     1       3.899   5.165  18.576  0.00  0.00    +0.000 A 
ATOM      3  C   UNL     1       4.221   6.248  17.759  0.00  0.00    +0.000 A 
ATOM      4  C   UNL     1       4.850   6.032  16.531  0.00  0.00    +0.000 A 
ATOM      5  C   UNL     1       5.147   4.731  16.119  0.00  0.00    +0.000 A 
ATOM      6 BR   UNL     1       5.987   4.449  14.450  0.00  0.00    +0.000 Br
ATOM      7  C   UNL     1       4.831   3.640  16.925  0.00  0.00    +0.000 A 
ENDROOT
BRANCH   1   8
ATOM      8  S   UNL     1       3.796   2.487  19.207  0.00  0.00    +0.000 S 
ATOM      9  O   UNL     1       4.853   2.342  20.185  0.00  0.00    +0.000 OA
ATOM     10  O   UNL     1       3.426   1.392  18.335  0.00  0.00    +0.000 OA
BRANCH   8  12
ATOM     11  C   UNL     1       1.104   2.737  19.359  0.00  0.00    +0.000 C 
ATOM     12  N   UNL     1       2.393   3.030  20.006  0.00  0.00    +0.000 NA
ATOM     13  C   UNL     1       2.368   2.878  21.470  0.00  0.00    +0.000 C 
ENDBRANCH   8  12
ENDBRANCH   1   8
TORSDOF 2
ENDMDL
MODEL 2
REMARK VINA RESULT:      -5.8      1.402      1.646
REMARK  Name = 
REMARK  4 active torsions:
REMARK  status: ('A' for Active; 'I' for Inactive)
REMARK    1  A    between atoms: C_1  and  N_2
REMARK    2  A    between atoms: N_2  and  C_3
REMARK    3  A    between atoms: N_2  and  S_4
REMARK    4  A    between atoms: S_4  and  C_7
REMARK                            x       y       z     vdW  Elec       q    Type
REMARK                         _______ _______ _______ _____ _____    ______ ____
ROOT
ATOM      1  C   UNL     1       3.448   4.443  17.471  0.00  0.00    +0.000 A 
ATOM      2  C   UNL     1       3.303   5.770  17.892  0.00  0.00    +0.000 A 
ATOM      3  C   UNL     1       4.189   6.742  17.428  0.00  0.00    +0.000 A 
ATOM      4  C   UNL     1       5.203   6.389  16.534  0.00  0.00    +0.000 A 
ATOM      5  C   UNL     1       5.323   5.067  16.102  0.00  0.00    +0.000 A 
ATOM      6 BR   UNL     1       6.692   4.605  14.884  0.00  0.00    +0.000 Br
ATOM      7  C   UNL     1       4.446   4.087  16.558  0.00  0.00    +0.000 A 
ENDROOT
BRANCH   1   8
ATOM      8  S   UNL     1       2.304   3.210  18.058  0.00  0.00    +0.000 S 
ATOM      9  O   UNL     1       2.821   1.917  17.660  0.00  0.00    +0.000 OA
ATOM     10  O   UNL     1       0.977   3.638  17.668  0.00  0.00    +0.000 OA
BRANCH   8  12
ATOM     11  C   UNL     1       1.180   3.274  20.520  0.00  0.00    +0.000 C 
ATOM     12  N   UNL     1       2.432   3.344  19.751  0.00  0.00    +0.000 NA
ATOM     13  C   UNL     1       3.555   2.633  20.386  0.00  0.00    +0.000 C 
ENDBRANCH   8  12
ENDBRANCH   1   8
TORSDOF 2
ENDMDL
MODEL 3
REMARK VINA RESULT:      -5.7      1.773      2.181
REMARK  Name = 
REMARK  4 active torsions:
REMARK  status: ('A' for Active; 'I' for Inactive)
REMARK    1  A    between atoms: C_1  and  N_2
REMARK    2  A    between atoms: N_2  and  C_3
REMARK    3  A    between atoms: N_2  and  S_4
REMARK    4  A    between atoms: S_4  and  C_7
REMARK                            x       y       z     vdW  Elec       q    Type
REMARK                         _______ _______ _______ _____ _____    ______ ____
ROOT
ATOM      1  C   UNL     1       4.093   4.147  18.194  0.00  0.00    +0.000 A 
ATOM      2  C   UNL     1       5.160   4.215  17.290  0.00  0.00    +0.000 A 
ATOM      3  C   UNL     1       5.416   5.407  16.613  0.00  0.00    +0.000 A 
ATOM      4  C   UNL     1       4.617   6.528  16.851  0.00  0.00    +0.000 A 
ATOM      5  C   UNL     1       3.570   6.456  17.773  0.00  0.00    +0.000 A 
ATOM      6 BR   UNL     1       2.504   7.983  18.095  0.00  0.00    +0.000 Br
ATOM      7  C   UNL     1       3.304   5.272  18.455  0.00  0.00    +0.000 A 
ENDROOT
BRANCH   1   8
ATOM      8  S   UNL     1       3.781   2.625  19.065  0.00  0.00    +0.000 S 
ATOM      9  O   UNL     1       4.855   2.446  20.019  0.00  0.00    +0.000 OA
ATOM     10  O   UNL     1       3.487   1.616  18.069  0.00  0.00    +0.000 OA
BRANCH   8  12
ATOM     11  C   UNL     1       1.089   2.493  19.324  0.00  0.00    +0.000 C 
ATOM     12  N   UNL     1       2.349   2.961  19.923  0.00  0.00    +0.000 NA
ATOM     13  C   UNL     1       2.403   2.799  21.386  0.00  0.00    +0.000 C 
ENDBRANCH   8  12
ENDBRANCH   1   8
TORSDOF 2
ENDMDL
MODEL 4
REMARK VINA RESULT:      -5.6      3.813      4.871
REMARK  Name = 
REMARK  4 active torsions:
REMARK  status: ('A' for Active; 'I' for Inactive)
REMARK    1  A    between atoms: C_1  and  N_2
REMARK    2  A    between atoms: N_2  and  C_3
REMARK    3  A    between atoms: N_2  and  S_4
REMARK    4  A    between atoms: S_4  and  C_7
REMARK                            x       y       z     vdW  Elec       q    Type
REMARK                         _______ _______ _______ _____ _____    ______ ____
ROOT
ATOM      1  C   UNL     1       4.672   5.325  17.357  0.00  0.00    +0.000 A 
ATOM      2  C   UNL     1       3.891   6.451  17.643  0.00  0.00    +0.000 A 
ATOM      3  C   UNL     1       2.583   6.286  18.097  0.00  0.00    +0.000 A 
ATOM      4  C   UNL     1       2.065   5.001  18.276  0.00  0.00    +0.000 A 
ATOM      5  C   UNL     1       2.861   3.885  18.010  0.00  0.00    +0.000 A 
ATOM      6 BR   UNL     1       2.154   2.152  18.269  0.00  0.00    +0.000 Br
ATOM      7  C   UNL     1       4.169   4.036  17.557  0.00  0.00    +0.000 A 
ENDROOT
BRANCH   1   8
ATOM      8  S   UNL     1       6.348   5.544  16.791  0.00  0.00    +0.000 S 
ATOM      9  O   UNL     1       6.292   6.309  15.563  0.00  0.00    +0.000 OA
ATOM     10  O   UNL     1       6.987   4.246  16.838  0.00  0.00    +0.000 OA
BRANCH   8  12
ATOM     11  C   UNL     1       7.762   5.833  19.082  0.00  0.00    +0.000 C 
ATOM     12  N   UNL     1       7.036   6.523  18.004  0.00  0.00    +0.000 NA
ATOM     13  C   UNL     1       7.684   7.768  17.558  0.00  0.00    +0.000 C 
ENDBRANCH   8  12
ENDBRANCH   1   8
TORSDOF 2
ENDMDL
MODEL 5
REMARK VINA RESULT:      -5.6      1.659      1.922
REMARK  Name = 
REMARK  4 active torsions:
REMARK  status: ('A' for Active; 'I' for Inactive)
REMARK    1  A    between atoms: C_1  and  N_2
REMARK    2  A    between atoms: N_2  and  C_3
REMARK    3  A    between atoms: N_2  and  S_4
REMARK    4  A    between atoms: S_4  and  C_7
REMARK                            x       y       z     vdW  Elec       q    Type
REMARK                         _______ _______ _______ _____ _____    ______ ____
ROOT
ATOM      1  C   UNL     1       4.661   3.667  18.236  0.00  0.00    +0.000 A 
ATOM      2  C   UNL     1       4.269   3.669  16.892  0.00  0.00    +0.000 A 
ATOM      3  C   UNL     1       4.885   4.540  15.995  0.00  0.00    +0.000 A 
ATOM      4  C   UNL     1       5.897   5.395  16.438  0.00  0.00    +0.000 A 
ATOM      5  C   UNL     1       6.297   5.368  17.775  0.00  0.00    +0.000 A 
ATOM      6 BR   UNL     1       7.677   6.520  18.360  0.00  0.00    +0.000 Br
ATOM      7  C   UNL     1       5.690   4.503  18.682  0.00  0.00    +0.000 A 
ENDROOT
BRANCH   1   8
ATOM      8  S   UNL     1       3.880   2.541  19.374  0.00  0.00    +0.000 S 
ATOM      9  O   UNL     1       4.890   2.112  20.318  0.00  0.00    +0.000 OA
ATOM     10  O   UNL     1       3.138   1.582  18.583  0.00  0.00    +0.000 OA
BRANCH   8  12
ATOM     11  C   UNL     1       1.712   4.162  19.378  0.00  0.00    +0.000 C 
ATOM     12  N   UNL     1       2.765   3.535  20.192  0.00  0.00    +0.000 NA
ATOM     13  C   UNL     1       2.293   3.056  21.502  0.00  0.00    +0.000 C 
ENDBRANCH   8  12
ENDBRANCH   1   8
TORSDOF 2
ENDMDL
MODEL 6
REMARK VINA RESULT:      -5.6      2.042      2.509
REMARK  Name = 
REMARK  4 active torsions:
REMARK  status: ('A' for Active; 'I' for Inactive)
REMARK    1  A    between atoms: C_1  and  N_2
REMARK    2  A    between atoms: N_2  and  C_3
REMARK    3  A    between atoms: N_2  and  S_4
REMARK    4  A    between atoms: S_4  and  C_7
REMARK                            x       y       z     vdW  Elec       q    Type
REMARK                         _______ _______ _______ _____ _____    ______ ____
ROOT
ATOM      1  C   UNL     1       4.658   4.400  17.810  0.00  0.00    +0.000 A 
ATOM      2  C   UNL     1       5.794   4.681  18.578  0.00  0.00    +0.000 A 
ATOM      3  C   UNL     1       7.044   4.747  17.963  0.00  0.00    +0.000 A 
ATOM      4  C   UNL     1       7.153   4.547  16.585  0.00  0.00    +0.000 A 
ATOM      5  C   UNL     1       6.010   4.290  15.825  0.00  0.00    +0.000 A 
ATOM      6 BR   UNL     1       6.169   4.033  13.960  0.00  0.00    +0.000 Br
ATOM      7  C   UNL     1       4.756   4.222  16.427  0.00  0.00    +0.000 A 
ENDROOT
BRANCH   1   8
ATOM      8  S   UNL     1       3.063   4.331  18.601  0.00  0.00    +0.000 S 
ATOM      9  O   UNL     1       2.184   5.224  17.876  0.00  0.00    +0.000 OA
ATOM     10  O   UNL     1       3.285   4.488  20.022  0.00  0.00    +0.000 OA
BRANCH   8  12
ATOM     11  C   UNL     1       3.517   1.662  18.649  0.00  0.00    +0.000 C 
ATOM     12  N   UNL     1       2.561   2.729  18.312  0.00  0.00    +0.000 NA
ATOM     13  C   UNL     1       1.167   2.403  18.656  0.00  0.00    +0.000 C 
ENDBRANCH   8  12
ENDBRANCH   1   8
TORSDOF 2
ENDMDL
MODEL 7
REMARK VINA RESULT:      -5.6      1.411      1.841
REMARK  Name = 
REMARK  4 active torsions:
REMARK  status: ('A' for Active; 'I' for Inactive)
REMARK    1  A    between atoms: C_1  and  N_2
REMARK    2  A    between atoms: N_2  and  C_3
REMARK    3  A    between atoms: N_2  and  S_4
REMARK    4  A    between atoms: S_4  and  C_7
REMARK                            x       y       z     vdW  Elec       q    Type
REMARK                         _______ _______ _______ _____ _____    ______ ____
ROOT
ATOM      1  C   UNL     1       4.510   4.823  17.797  0.00  0.00    +0.000 A 
ATOM      2  C   UNL     1       4.332   6.211  17.791  0.00  0.00    +0.000 A 
ATOM      3  C   UNL     1       4.724   6.952  16.677  0.00  0.00    +0.000 A 
ATOM      4  C   UNL     1       5.277   6.304  15.569  0.00  0.00    +0.000 A 
ATOM      5  C   UNL     1       5.427   4.916  15.577  0.00  0.00    +0.000 A 
ATOM      6 BR   UNL     1       6.164   4.049  14.068  0.00  0.00    +0.000 Br
ATOM      7  C   UNL     1       5.040   4.164  16.684  0.00  0.00    +0.000 A 
ENDROOT
BRANCH   1   8
ATOM      8  S   UNL     1       3.994   3.882  19.220  0.00  0.00    +0.000 S 
ATOM      9  O   UNL     1       3.212   4.765  20.060  0.00  0.00    +0.000 OA
ATOM     10  O   UNL     1       5.166   3.203  19.730  0.00  0.00    +0.000 OA
BRANCH   8  12
ATOM     11  C   UNL     1       3.462   1.337  18.462  0.00  0.00    +0.000 C 
ATOM     12  N   UNL     1       2.951   2.714  18.548  0.00  0.00    +0.000 NA
ATOM     13  C   UNL     1       1.533   2.795  18.938  0.00  0.00    +0.000 C 
ENDBRANCH   8  12
ENDBRANCH   1   8
TORSDOF 2
ENDMDL
MODEL 8
REMARK VINA RESULT:      -5.6      3.853      4.880
REMARK  Name = 
REMARK  4 active torsions:
REMARK  status: ('A' for Active; 'I' for Inactive)
REMARK    1  A    between atoms: C_1  and  N_2
REMARK    2  A    between atoms: N_2  and  C_3
REMARK    3  A    between atoms: N_2  and  S_4
REMARK    4  A    between atoms: S_4  and  C_7
REMARK                            x       y       z     vdW  Elec       q    Type
REMARK                         _______ _______ _______ _____ _____    ______ ____
ROOT
ATOM      1  C   UNL     1       4.481   5.286  17.046  0.00  0.00    +0.000 A 
ATOM      2  C   UNL     1       4.029   6.381  17.792  0.00  0.00    +0.000 A 
ATOM      3  C   UNL     1       3.044   6.196  18.762  0.00  0.00    +0.000 A 
ATOM      4  C   UNL     1       2.526   4.919  18.992  0.00  0.00    +0.000 A 
ATOM      5  C   UNL     1       3.002   3.830  18.258  0.00  0.00    +0.000 A 
ATOM      6 BR   UNL     1       2.301   2.106  18.588  0.00  0.00    +0.000 Br
ATOM      7  C   UNL     1       3.984   4.002  17.287  0.00  0.00    +0.000 A 
ENDROOT
BRANCH   1   8
ATOM      8  S   UNL     1       5.750   5.529  15.819  0.00  0.00    +0.000 S 
ATOM      9  O   UNL     1       5.461   6.775  15.140  0.00  0.00    +0.000 OA
ATOM     10  O   UNL     1       5.878   4.288  15.085  0.00  0.00    +0.000 OA
BRANCH   8  12
ATOM     11  C   UNL     1       7.370   7.075  17.341  0.00  0.00    +0.000 C 
ATOM     12  N   UNL     1       7.155   5.741  16.758  0.00  0.00    +0.000 NA
ATOM     13  C   UNL     1       7.518   4.636  17.661  0.00  0.00    +0.000 C 
ENDBRANCH   8  12
ENDBRANCH   1   8
TORSDOF 2
ENDMDL
MODEL 9
REMARK VINA RESULT:      -5.6      1.685      1.789
REMARK  Name = 
REMARK  4 active torsions:
REMARK  status: ('A' for Active; 'I' for Inactive)
REMARK    1  A    between atoms: C_1  and  N_2
REMARK    2  A    between atoms: N_2  and  C_3
REMARK    3  A    between atoms: N_2  and  S_4
REMARK    4  A    between atoms: S_4  and  C_7
REMARK                            x       y       z     vdW  Elec       q    Type
REMARK                         _______ _______ _______ _____ _____    ______ ____
ROOT
ATOM      1  C   UNL     1       4.262   3.998  18.660  0.00  0.00    +0.000 A 
ATOM      2  C   UNL     1       3.475   4.764  17.792  0.00  0.00    +0.000 A 
ATOM      3  C   UNL     1       3.985   5.948  17.261  0.00  0.00    +0.000 A 
ATOM      4  C   UNL     1       5.281   6.355  17.586  0.00  0.00    +0.000 A 
ATOM      5  C   UNL     1       6.066   5.571  18.433  0.00  0.00    +0.000 A 
ATOM      6 BR   UNL     1       7.823   6.126  18.855  0.00  0.00    +0.000 Br
ATOM      7  C   UNL     1       5.569   4.387  18.971  0.00  0.00    +0.000 A 
ENDROOT
BRANCH   1   8
ATOM      8  S   UNL     1       3.609   2.479  19.323  0.00  0.00    +0.000 S 
ATOM      9  O   UNL     1       4.455   2.093  20.432  0.00  0.00    +0.000 OA
ATOM     10  O   UNL     1       3.385   1.587  18.205  0.00  0.00    +0.000 OA
BRANCH   8  12
ATOM     11  C   UNL     1       0.907   2.555  19.166  0.00  0.00    +0.000 C 
ATOM     12  N   UNL     1       2.093   2.952  19.941  0.00  0.00    +0.000 NA
ATOM     13  C   UNL     1       1.912   2.842  21.398  0.00  0.00    +0.000 C 
ENDBRANCH   8  12
ENDBRANCH   1   8
TORSDOF 2
ENDMDL
