MODEL 1
REMARK VINA RESULT:      -8.1      0.000      0.000
REMARK  Name = 
REMARK  6 active torsions:
REMARK  status: ('A' for Active; 'I' for Inactive)
REMARK    1  A    between atoms: C_1  and  O_2
REMARK    2  A    between atoms: O_2  and  C_3
REMARK    3  A    between atoms: C_5  and  N_6
REMARK    4  A    between atoms: C_7  and  C_9
REMARK    5  A    between atoms: C_17  and  C_18
REMARK    6  A    between atoms: C_21  and  C_22
REMARK                            x       y       z     vdW  Elec       q    Type
REMARK                         _______ _______ _______ _____ _____    ______ ____
ROOT
ATOM      1  C   UNL     1       2.380   6.054  19.635  0.00  0.00    +0.000 A 
ATOM      2  C   UNL     1       3.115   5.359  18.661  0.00  0.00    +0.000 A 
ATOM      3  C   UNL     1       3.650   5.987  17.536  0.00  0.00    +0.000 A 
ATOM      4  C   UNL     1       3.323   7.331  17.335  0.00  0.00    +0.000 A 
ATOM      5  C   UNL     1       2.582   8.038  18.292  0.00  0.00    +0.000 A 
ATOM      6  C   UNL     1       2.141   7.438  19.484  0.00  0.00    +0.000 A 
ENDROOT
BRANCH   3   7
ATOM      7  N   UNL     1       4.571   5.291  16.735  0.00  0.00    +0.000 N 
ATOM      8  C   UNL     1       5.738   5.753  16.172  0.00  0.00    +0.000 C 
ATOM      9  N   UNL     1       6.476   6.676  16.720  0.00  0.00    +0.000 NA
ATOM     10  H   UNL     1       4.299   4.347  16.459  0.00  0.00    +0.000 HD
ATOM     11  H   UNL     1       6.052   6.927  17.617  0.00  0.00    +0.000 HD
BRANCH   8  12
ATOM     12  C   UNL     1       6.212   5.109  14.891  0.00  0.00    +0.000 A 
ATOM     13  C   UNL     1       5.427   4.155  14.252  0.00  0.00    +0.000 A 
ATOM     14  C   UNL     1       5.890   3.602  13.061  0.00  0.00    +0.000 A 
ATOM     15  C   UNL     1       7.121   4.011  12.560  0.00  0.00    +0.000 A 
ATOM     16  C   UNL     1       7.841   4.959  13.267  0.00  0.00    +0.000 A 
ATOM     17  N   UNL     1       7.417   5.535  14.419  0.00  0.00    +0.000 NA
ENDBRANCH   8  12
ENDBRANCH   3   7
BRANCH   6  18
ATOM     18  C   UNL     1       1.522   8.274  20.528  0.00  0.00    +0.000 A 
ATOM     19  C   UNL     1       1.667   8.407  21.893  0.00  0.00    +0.000 A 
ATOM     20  C   UNL     1       0.801   9.451  22.306  0.00  0.00    +0.000 A 
ATOM     21  C   UNL     1       0.186   9.932  21.169  0.00  0.00    +0.000 A 
ATOM     22  O   UNL     1       0.618   9.211  20.092  0.00  0.00    +0.000 OA
BRANCH  21  23
ATOM     23  C   UNL     1      -0.766  11.008  20.900  0.00  0.00    +0.000 A 
ATOM     24  C   UNL     1      -1.314  11.758  21.952  0.00  0.00    +0.000 A 
ATOM     25  C   UNL     1      -2.214  12.800  21.702  0.00  0.00    +0.000 A 
ATOM     26  C   UNL     1      -2.580  13.107  20.395  0.00  0.00    +0.000 A 
ATOM     27  C   UNL     1      -2.047  12.374  19.338  0.00  0.00    +0.000 A 
ATOM     28  C   UNL     1      -1.148  11.332  19.589  0.00  0.00    +0.000 A 
ENDBRANCH  21  23
ENDBRANCH   6  18
BRANCH   1  30
ATOM     29  C   UNL     1       1.584   4.028  20.568  0.00  0.00    +0.000 C 
ATOM     30  O   UNL     1       1.852   5.417  20.731  0.00  0.00    +0.000 OA
ENDBRANCH   1  30
TORSDOF 5
ENDMDL
MODEL 2
REMARK VINA RESULT:      -8.1      2.966      9.594
REMARK  Name = 
REMARK  6 active torsions:
REMARK  status: ('A' for Active; 'I' for Inactive)
REMARK    1  A    between atoms: C_1  and  O_2
REMARK    2  A    between atoms: O_2  and  C_3
REMARK    3  A    between atoms: C_5  and  N_6
REMARK    4  A    between atoms: C_7  and  C_9
REMARK    5  A    between atoms: C_17  and  C_18
REMARK    6  A    between atoms: C_21  and  C_22
REMARK                            x       y       z     vdW  Elec       q    Type
REMARK                         _______ _______ _______ _____ _____    ______ ____
ROOT
ATOM      1  C   UNL     1       2.680   6.442  19.451  0.00  0.00    +0.000 A 
ATOM      2  C   UNL     1       1.966   7.569  19.888  0.00  0.00    +0.000 A 
ATOM      3  C   UNL     1       1.813   8.710  19.101  0.00  0.00    +0.000 A 
ATOM      4  C   UNL     1       2.509   8.753  17.891  0.00  0.00    +0.000 A 
ATOM      5  C   UNL     1       3.235   7.641  17.442  0.00  0.00    +0.000 A 
ATOM      6  C   UNL     1       3.294   6.446  18.179  0.00  0.00    +0.000 A 
ENDROOT
BRANCH   3   7
ATOM      7  N   UNL     1       0.891   9.696  19.496  0.00  0.00    +0.000 N 
ATOM      8  C   UNL     1       0.018  10.415  18.713  0.00  0.00    +0.000 C 
ATOM      9  N   UNL     1      -0.518   9.941  17.625  0.00  0.00    +0.000 NA
ATOM     10  H   UNL     1       0.935   9.982  20.474  0.00  0.00    +0.000 HD
ATOM     11  H   UNL     1      -0.207   8.972  17.517  0.00  0.00    +0.000 HD
BRANCH   8  12
ATOM     12  C   UNL     1      -0.380  11.795  19.177  0.00  0.00    +0.000 A 
ATOM     13  C   UNL     1       0.101  12.924  18.521  0.00  0.00    +0.000 A 
ATOM     14  C   UNL     1      -0.308  14.177  18.968  0.00  0.00    +0.000 A 
ATOM     15  C   UNL     1      -1.170  14.259  20.056  0.00  0.00    +0.000 A 
ATOM     16  C   UNL     1      -1.592  13.084  20.655  0.00  0.00    +0.000 A 
ATOM     17  N   UNL     1      -1.232  11.844  20.239  0.00  0.00    +0.000 NA
ENDBRANCH   8  12
ENDBRANCH   3   7
BRANCH   6  18
ATOM     18  C   UNL     1       3.924   5.256  17.577  0.00  0.00    +0.000 A 
ATOM     19  C   UNL     1       3.944   3.906  17.861  0.00  0.00    +0.000 A 
ATOM     20  C   UNL     1       4.703   3.277  16.843  0.00  0.00    +0.000 A 
ATOM     21  C   UNL     1       5.088   4.266  15.962  0.00  0.00    +0.000 A 
ATOM     22  O   UNL     1       4.623   5.468  16.415  0.00  0.00    +0.000 OA
BRANCH  21  23
ATOM     23  C   UNL     1       5.837   4.281  14.708  0.00  0.00    +0.000 A 
ATOM     24  C   UNL     1       5.386   3.553  13.595  0.00  0.00    +0.000 A 
ATOM     25  C   UNL     1       6.089   3.577  12.386  0.00  0.00    +0.000 A 
ATOM     26  C   UNL     1       7.254   4.327  12.270  0.00  0.00    +0.000 A 
ATOM     27  C   UNL     1       7.719   5.055  13.363  0.00  0.00    +0.000 A 
ATOM     28  C   UNL     1       7.016   5.030  14.572  0.00  0.00    +0.000 A 
ENDBRANCH  21  23
ENDBRANCH   6  18
BRANCH   1  30
ATOM     29  C   UNL     1       1.623   4.671  20.617  0.00  0.00    +0.000 C 
ATOM     30  O   UNL     1       2.830   5.329  20.244  0.00  0.00    +0.000 OA
ENDBRANCH   1  30
TORSDOF 5
ENDMDL
MODEL 3
REMARK VINA RESULT:      -8.0      2.956      9.745
REMARK  Name = 
REMARK  6 active torsions:
REMARK  status: ('A' for Active; 'I' for Inactive)
REMARK    1  A    between atoms: C_1  and  O_2
REMARK    2  A    between atoms: O_2  and  C_3
REMARK    3  A    between atoms: C_5  and  N_6
REMARK    4  A    between atoms: C_7  and  C_9
REMARK    5  A    between atoms: C_17  and  C_18
REMARK    6  A    between atoms: C_21  and  C_22
REMARK                            x       y       z     vdW  Elec       q    Type
REMARK                         _______ _______ _______ _____ _____    ______ ____
ROOT
ATOM      1  C   UNL     1       2.848   6.364  19.459  0.00  0.00    +0.000 A 
ATOM      2  C   UNL     1       2.057   7.432  19.910  0.00  0.00    +0.000 A 
ATOM      3  C   UNL     1       1.725   8.515  19.095  0.00  0.00    +0.000 A 
ATOM      4  C   UNL     1       2.317   8.571  17.831  0.00  0.00    +0.000 A 
ATOM      5  C   UNL     1       3.117   7.519  17.367  0.00  0.00    +0.000 A 
ATOM      6  C   UNL     1       3.358   6.370  18.141  0.00  0.00    +0.000 A 
ENDROOT
BRANCH   3   7
ATOM      7  N   UNL     1       0.740   9.420  19.526  0.00  0.00    +0.000 N 
ATOM      8  C   UNL     1       0.860  10.771  19.758  0.00  0.00    +0.000 C 
ATOM      9  N   UNL     1       1.683  11.536  19.098  0.00  0.00    +0.000 NA
ATOM     10  H   UNL     1      -0.157   9.012  19.789  0.00  0.00    +0.000 HD
ATOM     11  H   UNL     1       2.149  10.960  18.392  0.00  0.00    +0.000 HD
BRANCH   8  12
ATOM     12  C   UNL     1      -0.053  11.400  20.782  0.00  0.00    +0.000 A 
ATOM     13  C   UNL     1      -0.258  10.785  22.013  0.00  0.00    +0.000 A 
ATOM     14  C   UNL     1      -1.091  11.409  22.937  0.00  0.00    +0.000 A 
ATOM     15  C   UNL     1      -1.697  12.613  22.597  0.00  0.00    +0.000 A 
ATOM     16  C   UNL     1      -1.445  13.150  21.345  0.00  0.00    +0.000 A 
ATOM     17  N   UNL     1      -0.626  12.583  20.424  0.00  0.00    +0.000 NA
ENDBRANCH   8  12
ENDBRANCH   3   7
BRANCH   6  18
ATOM     18  C   UNL     1       4.058   5.224  17.536  0.00  0.00    +0.000 A 
ATOM     19  C   UNL     1       4.188   3.883  17.834  0.00  0.00    +0.000 A 
ATOM     20  C   UNL     1       4.964   3.298  16.802  0.00  0.00    +0.000 A 
ATOM     21  C   UNL     1       5.249   4.301  15.899  0.00  0.00    +0.000 A 
ATOM     22  O   UNL     1       4.707   5.471  16.351  0.00  0.00    +0.000 OA
BRANCH  21  23
ATOM     23  C   UNL     1       5.959   4.356  14.624  0.00  0.00    +0.000 A 
ATOM     24  C   UNL     1       5.504   3.619  13.518  0.00  0.00    +0.000 A 
ATOM     25  C   UNL     1       6.169   3.679  12.289  0.00  0.00    +0.000 A 
ATOM     26  C   UNL     1       7.300   4.476  12.146  0.00  0.00    +0.000 A 
ATOM     27  C   UNL     1       7.767   5.213  13.231  0.00  0.00    +0.000 A 
ATOM     28  C   UNL     1       7.103   5.152  14.460  0.00  0.00    +0.000 A 
ENDBRANCH  21  23
ENDBRANCH   6  18
BRANCH   1  30
ATOM     29  C   UNL     1       2.080   4.682  20.940  0.00  0.00    +0.000 C 
ATOM     30  O   UNL     1       3.174   5.310  20.278  0.00  0.00    +0.000 OA
ENDBRANCH   1  30
TORSDOF 5
ENDMDL
MODEL 4
REMARK VINA RESULT:      -8.0      2.972      9.748
REMARK  Name = 
REMARK  6 active torsions:
REMARK  status: ('A' for Active; 'I' for Inactive)
REMARK    1  A    between atoms: C_1  and  O_2
REMARK    2  A    between atoms: O_2  and  C_3
REMARK    3  A    between atoms: C_5  and  N_6
REMARK    4  A    between atoms: C_7  and  C_9
REMARK    5  A    between atoms: C_17  and  C_18
REMARK    6  A    between atoms: C_21  and  C_22
REMARK                            x       y       z     vdW  Elec       q    Type
REMARK                         _______ _______ _______ _____ _____    ______ ____
ROOT
ATOM      1  C   UNL     1       2.617   6.581  19.503  0.00  0.00    +0.000 A 
ATOM      2  C   UNL     1       1.813   7.664  19.891  0.00  0.00    +0.000 A 
ATOM      3  C   UNL     1       1.543   8.739  19.045  0.00  0.00    +0.000 A 
ATOM      4  C   UNL     1       2.210   8.772  17.817  0.00  0.00    +0.000 A 
ATOM      5  C   UNL     1       3.025   7.704  17.417  0.00  0.00    +0.000 A 
ATOM      6  C   UNL     1       3.205   6.564  18.219  0.00  0.00    +0.000 A 
ENDROOT
BRANCH   3   7
ATOM      7  N   UNL     1       0.545   9.661  19.403  0.00  0.00    +0.000 N 
ATOM      8  C   UNL     1       0.689  10.888  20.008  0.00  0.00    +0.000 C 
ATOM      9  N   UNL     1       1.732  11.649  19.835  0.00  0.00    +0.000 NA
ATOM     10  H   UNL     1      -0.418   9.346  19.283  0.00  0.00    +0.000 HD
ATOM     11  H   UNL     1       2.350  11.187  19.163  0.00  0.00    +0.000 HD
BRANCH   8  12
ATOM     12  C   UNL     1      -0.448  11.398  20.861  0.00  0.00    +0.000 A 
ATOM     13  C   UNL     1      -0.482  11.122  22.224  0.00  0.00    +0.000 A 
ATOM     14  C   UNL     1      -1.537  11.629  22.978  0.00  0.00    +0.000 A 
ATOM     15  C   UNL     1      -2.521  12.379  22.345  0.00  0.00    +0.000 A 
ATOM     16  C   UNL     1      -2.413  12.597  20.982  0.00  0.00    +0.000 A 
ATOM     17  N   UNL     1      -1.393  12.137  20.216  0.00  0.00    +0.000 NA
ENDBRANCH   8  12
ENDBRANCH   3   7
BRANCH   6  18
ATOM     18  C   UNL     1       3.928   5.401  17.672  0.00  0.00    +0.000 A 
ATOM     19  C   UNL     1       4.097   4.085  18.048  0.00  0.00    +0.000 A 
ATOM     20  C   UNL     1       4.873   3.459  17.041  0.00  0.00    +0.000 A 
ATOM     21  C   UNL     1       5.119   4.413  16.075  0.00  0.00    +0.000 A 
ATOM     22  O   UNL     1       4.552   5.594  16.465  0.00  0.00    +0.000 OA
BRANCH  21  23
ATOM     23  C   UNL     1       5.809   4.409  14.787  0.00  0.00    +0.000 A 
ATOM     24  C   UNL     1       7.007   5.121  14.615  0.00  0.00    +0.000 A 
ATOM     25  C   UNL     1       7.683   5.109  13.390  0.00  0.00    +0.000 A 
ATOM     26  C   UNL     1       7.171   4.385  12.318  0.00  0.00    +0.000 A 
ATOM     27  C   UNL     1       5.984   3.673  12.469  0.00  0.00    +0.000 A 
ATOM     28  C   UNL     1       5.308   3.686  13.694  0.00  0.00    +0.000 A 
ENDBRANCH  21  23
ENDBRANCH   6  18
BRANCH   1  30
ATOM     29  C   UNL     1       1.746   4.787  20.782  0.00  0.00    +0.000 C 
ATOM     30  O   UNL     1       2.880   5.535  20.355  0.00  0.00    +0.000 OA
ENDBRANCH   1  30
TORSDOF 5
ENDMDL
MODEL 5
REMARK VINA RESULT:      -7.9      2.924      9.575
REMARK  Name = 
REMARK  6 active torsions:
REMARK  status: ('A' for Active; 'I' for Inactive)
REMARK    1  A    between atoms: C_1  and  O_2
REMARK    2  A    between atoms: O_2  and  C_3
REMARK    3  A    between atoms: C_5  and  N_6
REMARK    4  A    between atoms: C_7  and  C_9
REMARK    5  A    between atoms: C_17  and  C_18
REMARK    6  A    between atoms: C_21  and  C_22
REMARK                            x       y       z     vdW  Elec       q    Type
REMARK                         _______ _______ _______ _____ _____    ______ ____
ROOT
ATOM      1  C   UNL     1       2.816   6.263  19.474  0.00  0.00    +0.000 A 
ATOM      2  C   UNL     1       2.087   7.357  19.968  0.00  0.00    +0.000 A 
ATOM      3  C   UNL     1       1.855   8.505  19.211  0.00  0.00    +0.000 A 
ATOM      4  C   UNL     1       2.485   8.592  17.967  0.00  0.00    +0.000 A 
ATOM      5  C   UNL     1       3.224   7.514  17.462  0.00  0.00    +0.000 A 
ATOM      6  C   UNL     1       3.362   6.309  18.172  0.00  0.00    +0.000 A 
ENDROOT
BRANCH   3   7
ATOM      7  N   UNL     1       0.922   9.452  19.670  0.00  0.00    +0.000 N 
ATOM      8  C   UNL     1       0.139  10.310  18.934  0.00  0.00    +0.000 C 
ATOM      9  N   UNL     1      -0.307  10.023  17.744  0.00  0.00    +0.000 NA
ATOM     10  H   UNL     1       0.883   9.586  20.681  0.00  0.00    +0.000 HD
ATOM     11  H   UNL     1      -0.007   9.071  17.517  0.00  0.00    +0.000 HD
BRANCH   8  12
ATOM     12  C   UNL     1      -0.271  11.617  19.567  0.00  0.00    +0.000 A 
ATOM     13  C   UNL     1      -1.597  12.038  19.515  0.00  0.00    +0.000 A 
ATOM     14  C   UNL     1      -1.937  13.239  20.131  0.00  0.00    +0.000 A 
ATOM     15  C   UNL     1      -0.944  13.980  20.764  0.00  0.00    +0.000 A 
ATOM     16  C   UNL     1       0.351  13.490  20.759  0.00  0.00    +0.000 A 
ATOM     17  N   UNL     1       0.719  12.317  20.188  0.00  0.00    +0.000 NA
ENDBRANCH   8  12
ENDBRANCH   3   7
BRANCH   6  18
ATOM     18  C   UNL     1       4.000   5.153  17.518  0.00  0.00    +0.000 A 
ATOM     19  C   UNL     1       4.042   3.794  17.749  0.00  0.00    +0.000 A 
ATOM     20  C   UNL     1       4.795   3.214  16.698  0.00  0.00    +0.000 A 
ATOM     21  C   UNL     1       5.156   4.241  15.852  0.00  0.00    +0.000 A 
ATOM     22  O   UNL     1       4.681   5.419  16.356  0.00  0.00    +0.000 OA
BRANCH  21  23
ATOM     23  C   UNL     1       5.888   4.315  14.589  0.00  0.00    +0.000 A 
ATOM     24  C   UNL     1       7.045   5.103  14.477  0.00  0.00    +0.000 A 
ATOM     25  C   UNL     1       7.761   5.165  13.277  0.00  0.00    +0.000 A 
ATOM     26  C   UNL     1       7.331   4.442  12.170  0.00  0.00    +0.000 A 
ATOM     27  C   UNL     1       6.186   3.655  12.261  0.00  0.00    +0.000 A 
ATOM     28  C   UNL     1       5.470   3.593  13.461  0.00  0.00    +0.000 A 
ENDBRANCH  21  23
ENDBRANCH   6  18
BRANCH   1  30
ATOM     29  C   UNL     1       1.896   4.579  20.864  0.00  0.00    +0.000 C 
ATOM     30  O   UNL     1       3.044   5.144  20.238  0.00  0.00    +0.000 OA
ENDBRANCH   1  30
TORSDOF 5
ENDMDL
MODEL 6
REMARK VINA RESULT:      -7.8      4.839     10.600
REMARK  Name = 
REMARK  6 active torsions:
REMARK  status: ('A' for Active; 'I' for Inactive)
REMARK    1  A    between atoms: C_1  and  O_2
REMARK    2  A    between atoms: O_2  and  C_3
REMARK    3  A    between atoms: C_5  and  N_6
REMARK    4  A    between atoms: C_7  and  C_9
REMARK    5  A    between atoms: C_17  and  C_18
REMARK    6  A    between atoms: C_21  and  C_22
REMARK                            x       y       z     vdW  Elec       q    Type
REMARK                         _______ _______ _______ _____ _____    ______ ____
ROOT
ATOM      1  C   UNL     1      -0.114  10.206  19.323  0.00  0.00    +0.000 A 
ATOM      2  C   UNL     1      -0.808  11.204  20.025  0.00  0.00    +0.000 A 
ATOM      3  C   UNL     1      -0.685  11.373  21.404  0.00  0.00    +0.000 A 
ATOM      4  C   UNL     1       0.066  10.425  22.102  0.00  0.00    +0.000 A 
ATOM      5  C   UNL     1       0.758   9.415  21.419  0.00  0.00    +0.000 A 
ATOM      6  C   UNL     1       0.732   9.312  20.018  0.00  0.00    +0.000 A 
ENDROOT
BRANCH   3   7
ATOM      7  N   UNL     1      -1.211  12.532  22.002  0.00  0.00    +0.000 N 
ATOM      8  C   UNL     1      -0.534  13.587  22.567  0.00  0.00    +0.000 C 
ATOM      9  N   UNL     1       0.637  13.984  22.155  0.00  0.00    +0.000 NA
ATOM     10  H   UNL     1      -2.225  12.555  22.114  0.00  0.00    +0.000 HD
ATOM     11  H   UNL     1       0.898  13.410  21.350  0.00  0.00    +0.000 HD
BRANCH   8  12
ATOM     12  C   UNL     1      -1.214  14.357  23.673  0.00  0.00    +0.000 A 
ATOM     13  C   UNL     1      -2.539  14.089  24.003  0.00  0.00    +0.000 A 
ATOM     14  C   UNL     1      -3.122  14.806  25.044  0.00  0.00    +0.000 A 
ATOM     15  C   UNL     1      -2.369  15.768  25.708  0.00  0.00    +0.000 A 
ATOM     16  C   UNL     1      -1.060  15.976  25.307  0.00  0.00    +0.000 A 
ATOM     17  N   UNL     1      -0.450  15.286  24.311  0.00  0.00    +0.000 NA
ENDBRANCH   8  12
ENDBRANCH   3   7
BRANCH   6  18
ATOM     18  C   UNL     1       1.616   8.343  19.346  0.00  0.00    +0.000 A 
ATOM     19  C   UNL     1       2.438   8.366  18.239  0.00  0.00    +0.000 A 
ATOM     20  C   UNL     1       3.074   7.102  18.163  0.00  0.00    +0.000 A 
ATOM     21  C   UNL     1       2.636   6.370  19.247  0.00  0.00    +0.000 A 
ATOM     22  O   UNL     1       1.744   7.121  19.959  0.00  0.00    +0.000 OA
BRANCH  21  23
ATOM     23  C   UNL     1       2.931   5.035  19.764  0.00  0.00    +0.000 A 
ATOM     24  C   UNL     1       2.185   4.497  20.824  0.00  0.00    +0.000 A 
ATOM     25  C   UNL     1       2.450   3.213  21.314  0.00  0.00    +0.000 A 
ATOM     26  C   UNL     1       3.466   2.448  20.751  0.00  0.00    +0.000 A 
ATOM     27  C   UNL     1       4.218   2.965  19.698  0.00  0.00    +0.000 A 
ATOM     28  C   UNL     1       3.953   4.249  19.210  0.00  0.00    +0.000 A 
ENDBRANCH  21  23
ENDBRANCH   6  18
BRANCH   1  30
ATOM     29  C   UNL     1      -1.595  10.018  17.483  0.00  0.00    +0.000 C 
ATOM     30  O   UNL     1      -0.255  10.047  17.965  0.00  0.00    +0.000 OA
ENDBRANCH   1  30
TORSDOF 5
ENDMDL
MODEL 7
REMARK VINA RESULT:      -7.7      5.067     10.932
REMARK  Name = 
REMARK  6 active torsions:
REMARK  status: ('A' for Active; 'I' for Inactive)
REMARK    1  A    between atoms: C_1  and  O_2
REMARK    2  A    between atoms: O_2  and  C_3
REMARK    3  A    between atoms: C_5  and  N_6
REMARK    4  A    between atoms: C_7  and  C_9
REMARK    5  A    between atoms: C_17  and  C_18
REMARK    6  A    between atoms: C_21  and  C_22
REMARK                            x       y       z     vdW  Elec       q    Type
REMARK                         _______ _______ _______ _____ _____    ______ ____
ROOT
ATOM      1  C   UNL     1      -0.130  10.421  20.091  0.00  0.00    +0.000 A 
ATOM      2  C   UNL     1      -0.766  11.357  20.922  0.00  0.00    +0.000 A 
ATOM      3  C   UNL     1      -0.738  11.265  22.313  0.00  0.00    +0.000 A 
ATOM      4  C   UNL     1      -0.154  10.124  22.869  0.00  0.00    +0.000 A 
ATOM      5  C   UNL     1       0.478   9.174  22.054  0.00  0.00    +0.000 A 
ATOM      6  C   UNL     1       0.554   9.323  20.659  0.00  0.00    +0.000 A 
ENDROOT
BRANCH   3   7
ATOM      7  N   UNL     1      -1.181  12.356  23.081  0.00  0.00    +0.000 N 
ATOM      8  C   UNL     1      -2.471  12.708  23.403  0.00  0.00    +0.000 C 
ATOM      9  N   UNL     1      -3.428  11.839  23.561  0.00  0.00    +0.000 NA
ATOM     10  H   UNL     1      -0.464  13.024  23.363  0.00  0.00    +0.000 HD
ATOM     11  H   UNL     1      -3.027  10.905  23.447  0.00  0.00    +0.000 HD
BRANCH   8  12
ATOM     12  C   UNL     1      -2.768  14.168  23.647  0.00  0.00    +0.000 A 
ATOM     13  C   UNL     1      -3.120  14.611  24.918  0.00  0.00    +0.000 A 
ATOM     14  C   UNL     1      -3.365  15.969  25.104  0.00  0.00    +0.000 A 
ATOM     15  C   UNL     1      -3.261  16.830  24.018  0.00  0.00    +0.000 A 
ATOM     16  C   UNL     1      -2.915  16.301  22.786  0.00  0.00    +0.000 A 
ATOM     17  N   UNL     1      -2.650  14.990  22.567  0.00  0.00    +0.000 NA
ENDBRANCH   8  12
ENDBRANCH   3   7
BRANCH   6  18
ATOM     18  C   UNL     1       1.379   8.387  19.875  0.00  0.00    +0.000 A 
ATOM     19  C   UNL     1       2.123   8.466  18.716  0.00  0.00    +0.000 A 
ATOM     20  C   UNL     1       2.737   7.203  18.526  0.00  0.00    +0.000 A 
ATOM     21  C   UNL     1       2.367   6.415  19.595  0.00  0.00    +0.000 A 
ATOM     22  O   UNL     1       1.535   7.131  20.408  0.00  0.00    +0.000 OA
BRANCH  21  23
ATOM     23  C   UNL     1       2.682   5.051  20.015  0.00  0.00    +0.000 A 
ATOM     24  C   UNL     1       3.692   4.318  19.371  0.00  0.00    +0.000 A 
ATOM     25  C   UNL     1       4.011   3.018  19.778  0.00  0.00    +0.000 A 
ATOM     26  C   UNL     1       3.325   2.431  20.836  0.00  0.00    +0.000 A 
ATOM     27  C   UNL     1       2.320   3.141  21.488  0.00  0.00    +0.000 A 
ATOM     28  C   UNL     1       2.001   4.440  21.079  0.00  0.00    +0.000 A 
ENDBRANCH  21  23
ENDBRANCH   6  18
BRANCH   1  30
ATOM     29  C   UNL     1      -1.464  10.354  18.133  0.00  0.00    +0.000 C 
ATOM     30  O   UNL     1      -0.177  10.522  18.721  0.00  0.00    +0.000 OA
ENDBRANCH   1  30
TORSDOF 5
ENDMDL
MODEL 8
REMARK VINA RESULT:      -7.6      4.831     10.923
REMARK  Name = 
REMARK  6 active torsions:
REMARK  status: ('A' for Active; 'I' for Inactive)
REMARK    1  A    between atoms: C_1  and  O_2
REMARK    2  A    between atoms: O_2  and  C_3
REMARK    3  A    between atoms: C_5  and  N_6
REMARK    4  A    between atoms: C_7  and  C_9
REMARK    5  A    between atoms: C_17  and  C_18
REMARK    6  A    between atoms: C_21  and  C_22
REMARK                            x       y       z     vdW  Elec       q    Type
REMARK                         _______ _______ _______ _____ _____    ______ ____
ROOT
ATOM      1  C   UNL     1      -0.119  10.715  20.014  0.00  0.00    +0.000 A 
ATOM      2  C   UNL     1      -0.774  11.476  20.996  0.00  0.00    +0.000 A 
ATOM      3  C   UNL     1      -0.780  11.115  22.343  0.00  0.00    +0.000 A 
ATOM      4  C   UNL     1      -0.211   9.884  22.680  0.00  0.00    +0.000 A 
ATOM      5  C   UNL     1       0.440   9.107  21.712  0.00  0.00    +0.000 A 
ATOM      6  C   UNL     1       0.550   9.524  20.374  0.00  0.00    +0.000 A 
ENDROOT
BRANCH   3   7
ATOM      7  N   UNL     1      -1.242  12.037  23.298  0.00  0.00    +0.000 N 
ATOM      8  C   UNL     1      -2.424  12.740  23.308  0.00  0.00    +0.000 C 
ATOM      9  N   UNL     1      -3.530  12.280  22.796  0.00  0.00    +0.000 NA
ATOM     10  H   UNL     1      -0.580  12.288  24.032  0.00  0.00    +0.000 HD
ATOM     11  H   UNL     1      -3.348  11.333  22.454  0.00  0.00    +0.000 HD
BRANCH   8  12
ATOM     12  C   UNL     1      -2.448  14.080  24.003  0.00  0.00    +0.000 A 
ATOM     13  C   UNL     1      -3.659  14.700  24.294  0.00  0.00    +0.000 A 
ATOM     14  C   UNL     1      -3.637  15.925  24.955  0.00  0.00    +0.000 A 
ATOM     15  C   UNL     1      -2.411  16.489  25.292  0.00  0.00    +0.000 A 
ATOM     16  C   UNL     1      -1.254  15.807  24.955  0.00  0.00    +0.000 A 
ATOM     17  N   UNL     1      -1.233  14.605  24.328  0.00  0.00    +0.000 NA
ENDBRANCH   8  12
ENDBRANCH   3   7
BRANCH   6  18
ATOM     18  C   UNL     1       1.394   8.754  19.443  0.00  0.00    +0.000 A 
ATOM     19  C   UNL     1       1.989   9.000  18.224  0.00  0.00    +0.000 A 
ATOM     20  C   UNL     1       2.731   7.843  17.879  0.00  0.00    +0.000 A 
ATOM     21  C   UNL     1       2.583   6.949  18.919  0.00  0.00    +0.000 A 
ATOM     22  O   UNL     1       1.763   7.499  19.863  0.00  0.00    +0.000 OA
BRANCH  21  23
ATOM     23  C   UNL     1       3.110   5.616  19.203  0.00  0.00    +0.000 A 
ATOM     24  C   UNL     1       2.443   4.757  20.090  0.00  0.00    +0.000 A 
ATOM     25  C   UNL     1       2.932   3.473  20.354  0.00  0.00    +0.000 A 
ATOM     26  C   UNL     1       4.096   3.029  19.736  0.00  0.00    +0.000 A 
ATOM     27  C   UNL     1       4.772   3.867  18.853  0.00  0.00    +0.000 A 
ATOM     28  C   UNL     1       4.284   5.151  18.590  0.00  0.00    +0.000 A 
ENDBRANCH  21  23
ENDBRANCH   6  18
BRANCH   1  30
ATOM     29  C   UNL     1      -1.415  11.367  18.141  0.00  0.00    +0.000 C 
ATOM     30  O   UNL     1      -0.133  11.080  18.689  0.00  0.00    +0.000 OA
ENDBRANCH   1  30
TORSDOF 5
ENDMDL
MODEL 9
REMARK VINA RESULT:      -7.6      4.938     11.224
REMARK  Name = 
REMARK  6 active torsions:
REMARK  status: ('A' for Active; 'I' for Inactive)
REMARK    1  A    between atoms: C_1  and  O_2
REMARK    2  A    between atoms: O_2  and  C_3
REMARK    3  A    between atoms: C_5  and  N_6
REMARK    4  A    between atoms: C_7  and  C_9
REMARK    5  A    between atoms: C_17  and  C_18
REMARK    6  A    between atoms: C_21  and  C_22
REMARK                            x       y       z     vdW  Elec       q    Type
REMARK                         _______ _______ _______ _____ _____    ______ ____
ROOT
ATOM      1  C   UNL     1      -0.568  11.353  19.934  0.00  0.00    +0.000 A 
ATOM      2  C   UNL     1      -1.215  12.108  20.926  0.00  0.00    +0.000 A 
ATOM      3  C   UNL     1      -1.091  11.822  22.285  0.00  0.00    +0.000 A 
ATOM      4  C   UNL     1      -0.390  10.666  22.636  0.00  0.00    +0.000 A 
ATOM      5  C   UNL     1       0.256   9.895  21.659  0.00  0.00    +0.000 A 
ATOM      6  C   UNL     1       0.230  10.246  20.299  0.00  0.00    +0.000 A 
ENDROOT
BRANCH   3   7
ATOM      7  N   UNL     1      -1.562  12.753  23.227  0.00  0.00    +0.000 N 
ATOM      8  C   UNL     1      -2.847  12.930  23.687  0.00  0.00    +0.000 C 
ATOM      9  N   UNL     1      -3.706  11.956  23.791  0.00  0.00    +0.000 NA
ATOM     10  H   UNL     1      -0.886  13.447  23.546  0.00  0.00    +0.000 HD
ATOM     11  H   UNL     1      -3.234  11.090  23.520  0.00  0.00    +0.000 HD
BRANCH   8  12
ATOM     12  C   UNL     1      -3.251  14.308  24.151  0.00  0.00    +0.000 A 
ATOM     13  C   UNL     1      -2.368  15.087  24.894  0.00  0.00    +0.000 A 
ATOM     14  C   UNL     1      -2.772  16.360  25.284  0.00  0.00    +0.000 A 
ATOM     15  C   UNL     1      -4.041  16.806  24.930  0.00  0.00    +0.000 A 
ATOM     16  C   UNL     1      -4.858  15.960  24.197  0.00  0.00    +0.000 A 
ATOM     17  N   UNL     1      -4.495  14.721  23.783  0.00  0.00    +0.000 NA
ENDBRANCH   8  12
ENDBRANCH   3   7
BRANCH   6  18
ATOM     18  C   UNL     1       1.069   9.501  19.343  0.00  0.00    +0.000 A 
ATOM     19  C   UNL     1       1.676   9.786  18.138  0.00  0.00    +0.000 A 
ATOM     20  C   UNL     1       2.405   8.633  17.753  0.00  0.00    +0.000 A 
ATOM     21  C   UNL     1       2.239   7.702  18.757  0.00  0.00    +0.000 A 
ATOM     22  O   UNL     1       1.420   8.227  19.717  0.00  0.00    +0.000 OA
BRANCH  21  23
ATOM     23  C   UNL     1       2.746   6.352  18.992  0.00  0.00    +0.000 A 
ATOM     24  C   UNL     1       2.307   5.604  20.096  0.00  0.00    +0.000 A 
ATOM     25  C   UNL     1       2.775   4.305  20.319  0.00  0.00    +0.000 A 
ATOM     26  C   UNL     1       3.691   3.734  19.442  0.00  0.00    +0.000 A 
ATOM     27  C   UNL     1       4.140   4.460  18.341  0.00  0.00    +0.000 A 
ATOM     28  C   UNL     1       3.672   5.759  18.120  0.00  0.00    +0.000 A 
ENDBRANCH  21  23
ENDBRANCH   6  18
BRANCH   1  30
ATOM     29  C   UNL     1      -1.989  11.360  18.038  0.00  0.00    +0.000 C 
ATOM     30  O   UNL     1      -0.710  11.643  18.598  0.00  0.00    +0.000 OA
ENDBRANCH   1  30
TORSDOF 5
ENDMDL
