MODEL 1
REMARK VINA RESULT:      -8.3      0.000      0.000
REMARK  Name = 
REMARK  5 active torsions:
REMARK  status: ('A' for Active; 'I' for Inactive)
REMARK    1  A    between atoms: C_1  and  N_2
REMARK    2  A    between atoms: C_6  and  C_7
REMARK    3  A    between atoms: C_6  and  C_8
REMARK    4  A    between atoms: C_11  and  C_12
REMARK    5  A    between atoms: C_16  and  C_17
REMARK                            x       y       z     vdW  Elec       q    Type
REMARK                         _______ _______ _______ _____ _____    ______ ____
ROOT
ATOM      1  C   UNL     1       3.388   6.621  18.502  0.00  0.00    +0.000 A 
ATOM      2  N   UNL     1       3.559   7.414  17.467  0.00  0.00    +0.000 NA
ATOM      3  C   UNL     1       2.659   8.460  17.536  0.00  0.00    +0.000 A 
ATOM      4  C   UNL     1       1.866   8.517  18.670  0.00  0.00    +0.000 A 
ATOM      5  S   UNL     1       2.283   7.206  19.690  0.00  0.00    +0.000 S 
ENDROOT
BRANCH   1  11
ATOM      6  C   UNL     1       1.430   2.007  19.594  0.00  0.00    +0.000 C 
ATOM      7  N   UNL     1       2.115   3.280  19.302  0.00  0.00    +0.000 N 
ATOM      8  C   UNL     1       2.691   4.083  20.276  0.00  0.00    +0.000 C 
ATOM      9  N   UNL     1       2.161   4.255  21.430  0.00  0.00    +0.000 NA
ATOM     10  N   UNL     1       3.885   4.629  19.975  0.00  0.00    +0.000 N 
ATOM     11  C   UNL     1       4.130   5.299  18.697  0.00  0.00    +0.000 C 
ATOM     12  C   UNL     1       5.645   5.619  18.662  0.00  0.00    +0.000 C 
ATOM     13  C   UNL     1       3.860   4.331  17.552  0.00  0.00    +0.000 C 
ATOM     14  S   UNL     1       2.231   3.654  17.666  0.00  0.00    +0.000 S 
ATOM     15  O   UNL     1       2.245   2.408  16.920  0.00  0.00    +0.000 OA
ATOM     16  O   UNL     1       1.241   4.663  17.369  0.00  0.00    +0.000 OA
ATOM     17  H   UNL     1       1.237   3.817  21.432  0.00  0.00    +0.000 HD
ATOM     18  H   UNL     1       4.173   5.202  20.766  0.00  0.00    +0.000 HD
ENDBRANCH   1  11
BRANCH   4  19
ATOM     19  C   UNL     1       0.792   9.457  19.009  0.00  0.00    +0.000 A 
ATOM     20  C   UNL     1       0.754  10.164  20.219  0.00  0.00    +0.000 A 
ATOM     21  C   UNL     1      -0.288  11.057  20.491  0.00  0.00    +0.000 A 
ATOM     22  C   UNL     1      -1.306  11.255  19.555  0.00  0.00    +0.000 A 
ATOM     23  C   UNL     1      -1.297  10.559  18.343  0.00  0.00    +0.000 A 
ATOM     24  C   UNL     1      -0.245   9.665  18.088  0.00  0.00    +0.000 A 
BRANCH  23  25
ATOM     25  C   UNL     1      -2.339  10.718  17.333  0.00  0.00    +0.000 A 
ATOM     26  N   UNL     1      -3.418  11.480  17.373  0.00  0.00    +0.000 NA
ATOM     27  C   UNL     1      -4.035  11.249  16.173  0.00  0.00    +0.000 A 
ATOM     28  C   UNL     1      -3.309  10.345  15.445  0.00  0.00    +0.000 A 
ATOM     29  O   UNL     1      -2.210   9.993  16.177  0.00  0.00    +0.000 OA
ENDBRANCH  23  25
ENDBRANCH   4  19
TORSDOF 3
ENDMDL
MODEL 2
REMARK VINA RESULT:      -8.1      3.299      8.364
REMARK  Name = 
REMARK  5 active torsions:
REMARK  status: ('A' for Active; 'I' for Inactive)
REMARK    1  A    between atoms: C_1  and  N_2
REMARK    2  A    between atoms: C_6  and  C_7
REMARK    3  A    between atoms: C_6  and  C_8
REMARK    4  A    between atoms: C_11  and  C_12
REMARK    5  A    between atoms: C_16  and  C_17
REMARK                            x       y       z     vdW  Elec       q    Type
REMARK                         _______ _______ _______ _____ _____    ______ ____
ROOT
ATOM      1  C   UNL     1       0.312  10.132  19.481  0.00  0.00    +0.000 A 
ATOM      2  N   UNL     1       0.655   9.477  20.569  0.00  0.00    +0.000 NA
ATOM      3  C   UNL     1       1.520   8.453  20.236  0.00  0.00    +0.000 A 
ATOM      4  C   UNL     1       1.911   8.383  18.909  0.00  0.00    +0.000 A 
ATOM      5  S   UNL     1       1.165   9.668  18.056  0.00  0.00    +0.000 S 
ENDROOT
BRANCH   1  11
ATOM      6  C   UNL     1       0.312  14.518  22.141  0.00  0.00    +0.000 C 
ATOM      7  N   UNL     1       0.186  13.288  21.339  0.00  0.00    +0.000 N 
ATOM      8  C   UNL     1      -0.582  12.197  21.719  0.00  0.00    +0.000 C 
ATOM      9  N   UNL     1      -0.664  11.803  22.936  0.00  0.00    +0.000 NA
ATOM     10  N   UNL     1      -1.304  11.603  20.749  0.00  0.00    +0.000 N 
ATOM     11  C   UNL     1      -0.721  11.258  19.452  0.00  0.00    +0.000 C 
ATOM     12  C   UNL     1      -1.897  10.772  18.567  0.00  0.00    +0.000 C 
ATOM     13  C   UNL     1      -0.164  12.513  18.791  0.00  0.00    +0.000 C 
ATOM     14  S   UNL     1       0.982  13.334  19.857  0.00  0.00    +0.000 S 
ATOM     15  O   UNL     1       1.038  14.717  19.420  0.00  0.00    +0.000 OA
ATOM     16  O   UNL     1       2.199  12.565  19.982  0.00  0.00    +0.000 OA
ATOM     17  H   UNL     1       0.004  12.337  23.497  0.00  0.00    +0.000 HD
ATOM     18  H   UNL     1      -1.796  10.816  21.166  0.00  0.00    +0.000 HD
ENDBRANCH   1  11
BRANCH   4  19
ATOM     19  C   UNL     1       2.760   7.393  18.239  0.00  0.00    +0.000 A 
ATOM     20  C   UNL     1       3.810   7.748  17.381  0.00  0.00    +0.000 A 
ATOM     21  C   UNL     1       4.599   6.765  16.774  0.00  0.00    +0.000 A 
ATOM     22  C   UNL     1       4.348   5.413  17.018  0.00  0.00    +0.000 A 
ATOM     23  C   UNL     1       3.304   5.029  17.865  0.00  0.00    +0.000 A 
ATOM     24  C   UNL     1       2.522   6.029  18.464  0.00  0.00    +0.000 A 
BRANCH  23  25
ATOM     25  C   UNL     1       2.990   3.632  18.149  0.00  0.00    +0.000 A 
ATOM     26  N   UNL     1       1.804   3.061  18.271  0.00  0.00    +0.000 NA
ATOM     27  C   UNL     1       2.091   1.747  18.531  0.00  0.00    +0.000 A 
ATOM     28  C   UNL     1       3.449   1.568  18.566  0.00  0.00    +0.000 A 
ATOM     29  O   UNL     1       4.044   2.773  18.319  0.00  0.00    +0.000 OA
ENDBRANCH  23  25
ENDBRANCH   4  19
TORSDOF 3
ENDMDL
MODEL 3
REMARK VINA RESULT:      -7.8      3.486      8.647
REMARK  Name = 
REMARK  5 active torsions:
REMARK  status: ('A' for Active; 'I' for Inactive)
REMARK    1  A    between atoms: C_1  and  N_2
REMARK    2  A    between atoms: C_6  and  C_7
REMARK    3  A    between atoms: C_6  and  C_8
REMARK    4  A    between atoms: C_11  and  C_12
REMARK    5  A    between atoms: C_16  and  C_17
REMARK                            x       y       z     vdW  Elec       q    Type
REMARK                         _______ _______ _______ _____ _____    ______ ____
ROOT
ATOM      1  C   UNL     1       0.072  10.440  19.739  0.00  0.00    +0.000 A 
ATOM      2  N   UNL     1       0.182   9.707  20.826  0.00  0.00    +0.000 NA
ATOM      3  C   UNL     1       1.039   8.651  20.583  0.00  0.00    +0.000 A 
ATOM      4  C   UNL     1       1.656   8.630  19.343  0.00  0.00    +0.000 A 
ATOM      5  S   UNL     1       1.140  10.003  18.457  0.00  0.00    +0.000 S 
ENDROOT
BRANCH   1  11
ATOM      6  C   UNL     1      -0.612  14.357  22.980  0.00  0.00    +0.000 C 
ATOM      7  N   UNL     1      -0.524  13.276  21.981  0.00  0.00    +0.000 N 
ATOM      8  C   UNL     1      -1.395  12.197  21.938  0.00  0.00    +0.000 C 
ATOM      9  N   UNL     1      -1.840  11.628  22.997  0.00  0.00    +0.000 NA
ATOM     10  N   UNL     1      -1.813  11.810  20.717  0.00  0.00    +0.000 N 
ATOM     11  C   UNL     1      -0.881  11.627  19.602  0.00  0.00    +0.000 C 
ATOM     12  C   UNL     1      -1.755  11.366  18.350  0.00  0.00    +0.000 C 
ATOM     13  C   UNL     1      -0.126  12.926  19.348  0.00  0.00    +0.000 C 
ATOM     14  S   UNL     1       0.673  13.492  20.819  0.00  0.00    +0.000 S 
ATOM     15  O   UNL     1       0.887  14.918  20.654  0.00  0.00    +0.000 OA
ATOM     16  O   UNL     1       1.782  12.629  21.158  0.00  0.00    +0.000 OA
ATOM     17  H   UNL     1      -1.355  12.022  23.806  0.00  0.00    +0.000 HD
ATOM     18  H   UNL     1      -2.423  11.005  20.838  0.00  0.00    +0.000 HD
ENDBRANCH   1  11
BRANCH   4  19
ATOM     19  C   UNL     1       2.560   7.628  18.769  0.00  0.00    +0.000 A 
ATOM     20  C   UNL     1       3.325   7.863  17.619  0.00  0.00    +0.000 A 
ATOM     21  C   UNL     1       4.181   6.877  17.117  0.00  0.00    +0.000 A 
ATOM     22  C   UNL     1       4.282   5.641  17.760  0.00  0.00    +0.000 A 
ATOM     23  C   UNL     1       3.527   5.376  18.906  0.00  0.00    +0.000 A 
ATOM     24  C   UNL     1       2.672   6.377  19.395  0.00  0.00    +0.000 A 
BRANCH  23  25
ATOM     25  C   UNL     1       3.586   4.101  19.614  0.00  0.00    +0.000 A 
ATOM     26  N   UNL     1       2.750   3.618  20.516  0.00  0.00    +0.000 NA
ATOM     27  C   UNL     1       3.277   2.396  20.840  0.00  0.00    +0.000 A 
ATOM     28  C   UNL     1       4.426   2.183  20.125  0.00  0.00    +0.000 A 
ATOM     29  O   UNL     1       4.639   3.271  19.327  0.00  0.00    +0.000 OA
ENDBRANCH  23  25
ENDBRANCH   4  19
TORSDOF 3
ENDMDL
MODEL 4
REMARK VINA RESULT:      -7.6      3.755      8.767
REMARK  Name = 
REMARK  5 active torsions:
REMARK  status: ('A' for Active; 'I' for Inactive)
REMARK    1  A    between atoms: C_1  and  N_2
REMARK    2  A    between atoms: C_6  and  C_7
REMARK    3  A    between atoms: C_6  and  C_8
REMARK    4  A    between atoms: C_11  and  C_12
REMARK    5  A    between atoms: C_16  and  C_17
REMARK                            x       y       z     vdW  Elec       q    Type
REMARK                         _______ _______ _______ _____ _____    ______ ____
ROOT
ATOM      1  C   UNL     1       0.102  10.991  20.100  0.00  0.00    +0.000 A 
ATOM      2  N   UNL     1       0.299  10.391  21.254  0.00  0.00    +0.000 NA
ATOM      3  C   UNL     1       0.998   9.217  21.049  0.00  0.00    +0.000 A 
ATOM      4  C   UNL     1       1.416   8.967  19.752  0.00  0.00    +0.000 A 
ATOM      5  S   UNL     1       0.916  10.270  18.760  0.00  0.00    +0.000 S 
ENDROOT
BRANCH   1  11
ATOM      6  C   UNL     1       0.827  15.596  22.237  0.00  0.00    +0.000 C 
ATOM      7  N   UNL     1       0.499  14.319  21.580  0.00  0.00    +0.000 N 
ATOM      8  C   UNL     1      -0.434  13.418  22.073  0.00  0.00    +0.000 C 
ATOM      9  N   UNL     1      -0.572  13.185  23.326  0.00  0.00    +0.000 NA
ATOM     10  N   UNL     1      -1.248  12.840  21.168  0.00  0.00    +0.000 N 
ATOM     11  C   UNL     1      -0.735  12.257  19.927  0.00  0.00    +0.000 C 
ATOM     12  C   UNL     1      -1.979  11.869  19.088  0.00  0.00    +0.000 C 
ATOM     13  C   UNL     1       0.014  13.321  19.134  0.00  0.00    +0.000 C 
ATOM     14  S   UNL     1       1.284  14.064  20.113  0.00  0.00    +0.000 S 
ATOM     15  O   UNL     1       1.562  15.359  19.521  0.00  0.00    +0.000 OA
ATOM     16  O   UNL     1       2.360  13.127  20.342  0.00  0.00    +0.000 OA
ATOM     17  H   UNL     1       0.177  13.666  23.830  0.00  0.00    +0.000 HD
ATOM     18  H   UNL     1      -1.858  12.196  21.666  0.00  0.00    +0.000 HD
ENDBRANCH   1  11
BRANCH   4  19
ATOM     19  C   UNL     1       2.118   7.799  19.209  0.00  0.00    +0.000 A 
ATOM     20  C   UNL     1       2.820   7.829  17.997  0.00  0.00    +0.000 A 
ATOM     21  C   UNL     1       3.481   6.690  17.526  0.00  0.00    +0.000 A 
ATOM     22  C   UNL     1       3.449   5.504  18.263  0.00  0.00    +0.000 A 
ATOM     23  C   UNL     1       2.752   5.443  19.474  0.00  0.00    +0.000 A 
ATOM     24  C   UNL     1       2.092   6.596  19.929  0.00  0.00    +0.000 A 
BRANCH  23  25
ATOM     25  C   UNL     1       2.676   4.229  20.281  0.00  0.00    +0.000 A 
ATOM     26  N   UNL     1       3.501   3.197  20.298  0.00  0.00    +0.000 NA
ATOM     27  C   UNL     1       2.961   2.353  21.232  0.00  0.00    +0.000 A 
ATOM     28  C   UNL     1       1.816   2.903  21.746  0.00  0.00    +0.000 A 
ATOM     29  O   UNL     1       1.618   4.114  21.145  0.00  0.00    +0.000 OA
ENDBRANCH  23  25
ENDBRANCH   4  19
TORSDOF 3
ENDMDL
MODEL 5
REMARK VINA RESULT:      -7.4      3.506      8.320
REMARK  Name = 
REMARK  5 active torsions:
REMARK  status: ('A' for Active; 'I' for Inactive)
REMARK    1  A    between atoms: C_1  and  N_2
REMARK    2  A    between atoms: C_6  and  C_7
REMARK    3  A    between atoms: C_6  and  C_8
REMARK    4  A    between atoms: C_11  and  C_12
REMARK    5  A    between atoms: C_16  and  C_17
REMARK                            x       y       z     vdW  Elec       q    Type
REMARK                         _______ _______ _______ _____ _____    ______ ____
ROOT
ATOM      1  C   UNL     1       0.267  10.159  20.028  0.00  0.00    +0.000 A 
ATOM      2  N   UNL     1       0.286   9.721  21.268  0.00  0.00    +0.000 NA
ATOM      3  C   UNL     1       0.930   8.500  21.316  0.00  0.00    +0.000 A 
ATOM      4  C   UNL     1       1.485   8.050  20.130  0.00  0.00    +0.000 A 
ATOM      5  S   UNL     1       1.191   9.219  18.914  0.00  0.00    +0.000 S 
ENDROOT
BRANCH   1  11
ATOM      6  C   UNL     1      -0.007  14.688  22.420  0.00  0.00    +0.000 C 
ATOM      7  N   UNL     1      -0.022  13.433  21.647  0.00  0.00    +0.000 N 
ATOM      8  C   UNL     1      -1.054  12.507  21.705  0.00  0.00    +0.000 C 
ATOM      9  N   UNL     1      -1.668  12.227  22.795  0.00  0.00    +0.000 NA
ATOM     10  N   UNL     1      -1.434  11.957  20.536  0.00  0.00    +0.000 N 
ATOM     11  C   UNL     1      -0.462  11.424  19.579  0.00  0.00    +0.000 C 
ATOM     12  C   UNL     1      -1.268  11.057  18.307  0.00  0.00    +0.000 C 
ATOM     13  C   UNL     1       0.515  12.522  19.178  0.00  0.00    +0.000 C 
ATOM     14  S   UNL     1       1.281  13.239  20.600  0.00  0.00    +0.000 S 
ATOM     15  O   UNL     1       1.740  14.558  20.206  0.00  0.00    +0.000 OA
ATOM     16  O   UNL     1       2.201  12.303  21.205  0.00  0.00    +0.000 OA
ATOM     17  H   UNL     1      -1.188  12.694  23.568  0.00  0.00    +0.000 HD
ATOM     18  H   UNL     1      -2.177  11.289  20.734  0.00  0.00    +0.000 HD
ENDBRANCH   1  11
BRANCH   4  19
ATOM     19  C   UNL     1       2.173   6.786  19.845  0.00  0.00    +0.000 A 
ATOM     20  C   UNL     1       2.096   5.670  20.690  0.00  0.00    +0.000 A 
ATOM     21  C   UNL     1       2.763   4.484  20.368  0.00  0.00    +0.000 A 
ATOM     22  C   UNL     1       3.516   4.397  19.195  0.00  0.00    +0.000 A 
ATOM     23  C   UNL     1       3.616   5.496  18.336  0.00  0.00    +0.000 A 
ATOM     24  C   UNL     1       2.942   6.679  18.676  0.00  0.00    +0.000 A 
BRANCH  23  25
ATOM     25  C   UNL     1       4.396   5.465  17.102  0.00  0.00    +0.000 A 
ATOM     26  N   UNL     1       4.890   6.479  16.414  0.00  0.00    +0.000 NA
ATOM     27  C   UNL     1       5.530   5.886  15.358  0.00  0.00    +0.000 A 
ATOM     28  C   UNL     1       5.395   4.525  15.440  0.00  0.00    +0.000 A 
ATOM     29  O   UNL     1       4.668   4.236  16.561  0.00  0.00    +0.000 OA
ENDBRANCH  23  25
ENDBRANCH   4  19
TORSDOF 3
ENDMDL
MODEL 6
REMARK VINA RESULT:      -7.4      1.173      1.309
REMARK  Name = 
REMARK  5 active torsions:
REMARK  status: ('A' for Active; 'I' for Inactive)
REMARK    1  A    between atoms: C_1  and  N_2
REMARK    2  A    between atoms: C_6  and  C_7
REMARK    3  A    between atoms: C_6  and  C_8
REMARK    4  A    between atoms: C_11  and  C_12
REMARK    5  A    between atoms: C_16  and  C_17
REMARK                            x       y       z     vdW  Elec       q    Type
REMARK                         _______ _______ _______ _____ _____    ______ ____
ROOT
ATOM      1  C   UNL     1       2.810   6.783  19.197  0.00  0.00    +0.000 A 
ATOM      2  N   UNL     1       2.132   6.864  20.321  0.00  0.00    +0.000 NA
ATOM      3  C   UNL     1       1.392   8.031  20.329  0.00  0.00    +0.000 A 
ATOM      4  C   UNL     1       1.432   8.794  19.174  0.00  0.00    +0.000 A 
ATOM      5  S   UNL     1       2.433   8.000  18.033  0.00  0.00    +0.000 S 
ENDROOT
BRANCH   1  11
ATOM      6  C   UNL     1       2.043   1.715  19.000  0.00  0.00    +0.000 C 
ATOM      7  N   UNL     1       2.396   3.146  19.048  0.00  0.00    +0.000 N 
ATOM      8  C   UNL     1       2.961   3.762  20.156  0.00  0.00    +0.000 C 
ATOM      9  N   UNL     1       2.620   3.470  21.356  0.00  0.00    +0.000 NA
ATOM     10  N   UNL     1       3.949   4.645  19.913  0.00  0.00    +0.000 N 
ATOM     11  C   UNL     1       3.825   5.684  18.889  0.00  0.00    +0.000 C 
ATOM     12  C   UNL     1       5.215   6.361  18.793  0.00  0.00    +0.000 C 
ATOM     13  C   UNL     1       3.558   5.037  17.535  0.00  0.00    +0.000 C 
ATOM     14  S   UNL     1       2.145   3.978  17.607  0.00  0.00    +0.000 S 
ATOM     15  O   UNL     1       2.277   3.033  16.514  0.00  0.00    +0.000 OA
ATOM     16  O   UNL     1       0.935   4.756  17.749  0.00  0.00    +0.000 OA
ATOM     17  H   UNL     1       1.817   2.836  21.321  0.00  0.00    +0.000 HD
ATOM     18  H   UNL     1       4.250   5.027  20.807  0.00  0.00    +0.000 HD
ENDBRANCH   1  11
BRANCH   4  19
ATOM     19  C   UNL     1       0.812  10.093  18.894  0.00  0.00    +0.000 A 
ATOM     20  C   UNL     1       1.431  11.313  19.199  0.00  0.00    +0.000 A 
ATOM     21  C   UNL     1       0.801  12.527  18.903  0.00  0.00    +0.000 A 
ATOM     22  C   UNL     1      -0.457  12.536  18.298  0.00  0.00    +0.000 A 
ATOM     23  C   UNL     1      -1.102  11.335  17.987  0.00  0.00    +0.000 A 
ATOM     24  C   UNL     1      -0.455  10.126  18.293  0.00  0.00    +0.000 A 
BRANCH  23  25
ATOM     25  C   UNL     1      -2.420  11.284  17.363  0.00  0.00    +0.000 A 
ATOM     26  N   UNL     1      -3.591  11.614  17.879  0.00  0.00    +0.000 NA
ATOM     27  C   UNL     1      -4.482  11.376  16.867  0.00  0.00    +0.000 A 
ATOM     28  C   UNL     1      -3.817  10.900  15.767  0.00  0.00    +0.000 A 
ATOM     29  O   UNL     1      -2.486  10.836  16.069  0.00  0.00    +0.000 OA
ENDBRANCH  23  25
ENDBRANCH   4  19
TORSDOF 3
ENDMDL
MODEL 7
REMARK VINA RESULT:      -7.3      3.046      8.180
REMARK  Name = 
REMARK  5 active torsions:
REMARK  status: ('A' for Active; 'I' for Inactive)
REMARK    1  A    between atoms: C_1  and  N_2
REMARK    2  A    between atoms: C_6  and  C_7
REMARK    3  A    between atoms: C_6  and  C_8
REMARK    4  A    between atoms: C_11  and  C_12
REMARK    5  A    between atoms: C_16  and  C_17
REMARK                            x       y       z     vdW  Elec       q    Type
REMARK                         _______ _______ _______ _____ _____    ______ ____
ROOT
ATOM      1  C   UNL     1       1.502   9.908  19.192  0.00  0.00    +0.000 A 
ATOM      2  N   UNL     1       1.453   9.292  20.353  0.00  0.00    +0.000 NA
ATOM      3  C   UNL     1       1.770   7.959  20.181  0.00  0.00    +0.000 A 
ATOM      4  C   UNL     1       2.151   7.576  18.905  0.00  0.00    +0.000 A 
ATOM      5  S   UNL     1       2.118   8.957  17.891  0.00  0.00    +0.000 S 
ENDROOT
BRANCH   1  11
ATOM      6  C   UNL     1      -3.169  11.999  19.548  0.00  0.00    +0.000 C 
ATOM      7  N   UNL     1      -1.785  11.516  19.394  0.00  0.00    +0.000 N 
ATOM      8  C   UNL     1      -1.216  11.191  18.171  0.00  0.00    +0.000 C 
ATOM      9  N   UNL     1      -1.872  10.604  17.239  0.00  0.00    +0.000 NA
ATOM     10  N   UNL     1       0.057  11.587  17.976  0.00  0.00    +0.000 N 
ATOM     11  C   UNL     1       1.099  11.367  18.981  0.00  0.00    +0.000 C 
ATOM     12  C   UNL     1       2.355  12.116  18.470  0.00  0.00    +0.000 C 
ATOM     13  C   UNL     1       0.694  12.032  20.291  0.00  0.00    +0.000 C 
ATOM     14  S   UNL     1      -0.895  11.470  20.821  0.00  0.00    +0.000 S 
ATOM     15  O   UNL     1      -1.421  12.489  21.711  0.00  0.00    +0.000 OA
ATOM     16  O   UNL     1      -0.826  10.094  21.258  0.00  0.00    +0.000 OA
ATOM     17  H   UNL     1      -2.787  10.332  17.608  0.00  0.00    +0.000 HD
ATOM     18  H   UNL     1       0.345  11.266  17.054  0.00  0.00    +0.000 HD
ENDBRANCH   1  11
BRANCH   4  19
ATOM     19  C   UNL     1       2.488   6.243  18.394  0.00  0.00    +0.000 A 
ATOM     20  C   UNL     1       1.696   5.113  18.639  0.00  0.00    +0.000 A 
ATOM     21  C   UNL     1       2.055   3.864  18.121  0.00  0.00    +0.000 A 
ATOM     22  C   UNL     1       3.212   3.729  17.350  0.00  0.00    +0.000 A 
ATOM     23  C   UNL     1       4.024   4.838  17.094  0.00  0.00    +0.000 A 
ATOM     24  C   UNL     1       3.649   6.083  17.624  0.00  0.00    +0.000 A 
BRANCH  23  25
ATOM     25  C   UNL     1       5.249   4.755  16.304  0.00  0.00    +0.000 A 
ATOM     26  N   UNL     1       6.461   5.182  16.613  0.00  0.00    +0.000 NA
ATOM     27  C   UNL     1       7.220   4.847  15.524  0.00  0.00    +0.000 A 
ATOM     28  C   UNL     1       6.436   4.231  14.583  0.00  0.00    +0.000 A 
ATOM     29  O   UNL     1       5.162   4.162  15.071  0.00  0.00    +0.000 OA
ENDBRANCH  23  25
ENDBRANCH   4  19
TORSDOF 3
ENDMDL
MODEL 8
REMARK VINA RESULT:      -7.3      3.251      8.171
REMARK  Name = 
REMARK  5 active torsions:
REMARK  status: ('A' for Active; 'I' for Inactive)
REMARK    1  A    between atoms: C_1  and  N_2
REMARK    2  A    between atoms: C_6  and  C_7
REMARK    3  A    between atoms: C_6  and  C_8
REMARK    4  A    between atoms: C_11  and  C_12
REMARK    5  A    between atoms: C_16  and  C_17
REMARK                            x       y       z     vdW  Elec       q    Type
REMARK                         _______ _______ _______ _____ _____    ______ ____
ROOT
ATOM      1  C   UNL     1       1.519   9.022  19.600  0.00  0.00    +0.000 A 
ATOM      2  N   UNL     1       1.935   9.352  18.397  0.00  0.00    +0.000 NA
ATOM      3  C   UNL     1       2.585   8.276  17.824  0.00  0.00    +0.000 A 
ATOM      4  C   UNL     1       2.584   7.097  18.551  0.00  0.00    +0.000 A 
ATOM      5  S   UNL     1       1.719   7.357  20.006  0.00  0.00    +0.000 S 
ENDROOT
BRANCH   1  11
ATOM      6  C   UNL     1      -0.697  13.530  18.566  0.00  0.00    +0.000 C 
ATOM      7  N   UNL     1      -0.072  12.266  18.994  0.00  0.00    +0.000 N 
ATOM      8  C   UNL     1       1.218  12.180  19.499  0.00  0.00    +0.000 C 
ATOM      9  N   UNL     1       2.186  12.884  19.042  0.00  0.00    +0.000 NA
ATOM     10  N   UNL     1       1.397  11.359  20.553  0.00  0.00    +0.000 N 
ATOM     11  C   UNL     1       0.859   9.998  20.574  0.00  0.00    +0.000 C 
ATOM     12  C   UNL     1       1.113   9.457  22.003  0.00  0.00    +0.000 C 
ATOM     13  C   UNL     1      -0.652  10.043  20.384  0.00  0.00    +0.000 C 
ATOM     14  S   UNL     1      -1.080  10.922  18.912  0.00  0.00    +0.000 S 
ATOM     15  O   UNL     1      -2.449  11.376  19.081  0.00  0.00    +0.000 OA
ATOM     16  O   UNL     1      -0.711  10.160  17.741  0.00  0.00    +0.000 OA
ATOM     17  H   UNL     1       1.860  13.384  18.211  0.00  0.00    +0.000 HD
ATOM     18  H   UNL     1       2.384  11.381  20.799  0.00  0.00    +0.000 HD
ENDBRANCH   1  11
BRANCH   4  19
ATOM     19  C   UNL     1       3.228   5.815  18.247  0.00  0.00    +0.000 A 
ATOM     20  C   UNL     1       2.961   4.640  18.963  0.00  0.00    +0.000 A 
ATOM     21  C   UNL     1       3.595   3.439  18.627  0.00  0.00    +0.000 A 
ATOM     22  C   UNL     1       4.505   3.397  17.568  0.00  0.00    +0.000 A 
ATOM     23  C   UNL     1       4.795   4.555  16.839  0.00  0.00    +0.000 A 
ATOM     24  C   UNL     1       4.151   5.751  17.192  0.00  0.00    +0.000 A 
BRANCH  23  25
ATOM     25  C   UNL     1       5.743   4.572  15.729  0.00  0.00    +0.000 A 
ATOM     26  N   UNL     1       6.984   5.028  15.711  0.00  0.00    +0.000 NA
ATOM     27  C   UNL     1       7.407   4.794  14.430  0.00  0.00    +0.000 A 
ATOM     28  C   UNL     1       6.400   4.207  13.709  0.00  0.00    +0.000 A 
ATOM     29  O   UNL     1       5.320   4.055  14.533  0.00  0.00    +0.000 OA
ENDBRANCH  23  25
ENDBRANCH   4  19
TORSDOF 3
ENDMDL
MODEL 9
REMARK VINA RESULT:      -7.3      3.025      3.979
REMARK  Name = 
REMARK  5 active torsions:
REMARK  status: ('A' for Active; 'I' for Inactive)
REMARK    1  A    between atoms: C_1  and  N_2
REMARK    2  A    between atoms: C_6  and  C_7
REMARK    3  A    between atoms: C_6  and  C_8
REMARK    4  A    between atoms: C_11  and  C_12
REMARK    5  A    between atoms: C_16  and  C_17
REMARK                            x       y       z     vdW  Elec       q    Type
REMARK                         _______ _______ _______ _____ _____    ______ ____
ROOT
ATOM      1  C   UNL     1       3.348   5.712  18.417  0.00  0.00    +0.000 A 
ATOM      2  N   UNL     1       3.305   6.702  17.552  0.00  0.00    +0.000 NA
ATOM      3  C   UNL     1       2.581   7.749  18.087  0.00  0.00    +0.000 A 
ATOM      4  C   UNL     1       2.150   7.596  19.395  0.00  0.00    +0.000 A 
ATOM      5  S   UNL     1       2.692   6.076  19.970  0.00  0.00    +0.000 S 
ENDROOT
BRANCH   1  11
ATOM      6  C   UNL     1       7.625   4.662  15.788  0.00  0.00    +0.000 C 
ATOM      7  N   UNL     1       6.371   4.831  16.543  0.00  0.00    +0.000 N 
ATOM      8  C   UNL     1       5.110   4.708  15.976  0.00  0.00    +0.000 C 
ATOM      9  N   UNL     1       4.841   5.130  14.796  0.00  0.00    +0.000 NA
ATOM     10  N   UNL     1       4.185   4.053  16.704  0.00  0.00    +0.000 N 
ATOM     11  C   UNL     1       3.967   4.346  18.122  0.00  0.00    +0.000 C 
ATOM     12  C   UNL     1       2.972   3.275  18.634  0.00  0.00    +0.000 C 
ATOM     13  C   UNL     1       5.266   4.141  18.892  0.00  0.00    +0.000 C 
ATOM     14  S   UNL     1       6.575   5.100  18.191  0.00  0.00    +0.000 S 
ATOM     15  O   UNL     1       7.817   4.469  18.598  0.00  0.00    +0.000 OA
ATOM     16  O   UNL     1       6.363   6.507  18.441  0.00  0.00    +0.000 OA
ATOM     17  H   UNL     1       5.648   5.649  14.444  0.00  0.00    +0.000 HD
ATOM     18  H   UNL     1       3.314   4.058  16.177  0.00  0.00    +0.000 HD
ENDBRANCH   1  11
BRANCH   4  19
ATOM     19  C   UNL     1       1.323   8.489  20.213  0.00  0.00    +0.000 A 
ATOM     20  C   UNL     1       0.841   8.131  21.480  0.00  0.00    +0.000 A 
ATOM     21  C   UNL     1       0.063   9.023  22.226  0.00  0.00    +0.000 A 
ATOM     22  C   UNL     1      -0.241  10.286  21.715  0.00  0.00    +0.000 A 
ATOM     23  C   UNL     1       0.221  10.669  20.452  0.00  0.00    +0.000 A 
ATOM     24  C   UNL     1       0.999   9.760  19.716  0.00  0.00    +0.000 A 
BRANCH  23  25
ATOM     25  C   UNL     1      -0.073  11.972  19.864  0.00  0.00    +0.000 A 
ATOM     26  N   UNL     1      -0.234  13.134  20.472  0.00  0.00    +0.000 NA
ATOM     27  C   UNL     1      -0.485  14.013  19.452  0.00  0.00    +0.000 A 
ATOM     28  C   UNL     1      -0.476  13.348  18.255  0.00  0.00    +0.000 A 
ATOM     29  O   UNL     1      -0.210  12.030  18.502  0.00  0.00    +0.000 OA
ENDBRANCH  23  25
ENDBRANCH   4  19
TORSDOF 3
ENDMDL
