MODEL 1
REMARK VINA RESULT:      -7.6      0.000      0.000
REMARK  Name = 
REMARK  9 active torsions:
REMARK  status: ('A' for Active; 'I' for Inactive)
REMARK    1  A    between atoms: C_1  and  C_2
REMARK    2  A    between atoms: C_4  and  C_5
REMARK    3  A    between atoms: N_10  and  C_11
REMARK    4  A    between atoms: C_11  and  C_12
REMARK    5  A    between atoms: C_24  and  O_25
REMARK    6  A    between atoms: O_25  and  C_26
REMARK    7  A    between atoms: C_26  and  C_27
REMARK    8  A    between atoms: C_30  and  C_31
REMARK    9  A    between atoms: C_31  and  O_32
REMARK                            x       y       z     vdW  Elec       q    Type
REMARK                         _______ _______ _______ _____ _____    ______ ____
ROOT
ATOM      1  C   UNL     1       2.479   2.783  21.931  0.00  0.00    +0.000 C 
ATOM      2  C   UNL     1       1.420   3.489  21.084  0.00  0.00    +0.000 C 
ATOM      3  C   UNL     1       1.856   4.888  20.793  0.00  0.00    +0.000 C 
ATOM      4  C   UNL     1       1.887   5.420  19.559  0.00  0.00    +0.000 C 
ATOM      5  O   UNL     1       1.484   4.716  18.448  0.00  0.00    +0.000 OA
ATOM      6  C   UNL     1       1.627   3.290  18.523  0.00  0.00    +0.000 C 
ATOM      7  C   UNL     1       1.061   2.700  19.818  0.00  0.00    +0.000 C 
ENDROOT
BRANCH   4   8
ATOM      8  C   UNL     1       2.306   6.870  19.457  0.00  0.00    +0.000 C 
ATOM      9  O   UNL     1       3.215   7.174  18.677  0.00  0.00    +0.000 OA
ATOM     10  N   UNL     1       1.636   7.839  20.187  0.00  0.00    +0.000 N 
ATOM     11  C   UNL     1       1.994   9.250  19.981  0.00  0.00    +0.000 C 
ATOM     12  C   UNL     1       0.742  10.135  19.762  0.00  0.00    +0.000 C 
ATOM     13  N   UNL     1      -0.332   9.970  20.775  0.00  0.00    +0.000 NA
ATOM     14  C   UNL     1      -0.645   8.528  20.876  0.00  0.00    +0.000 C 
ATOM     15  C   UNL     1       0.570   7.635  21.173  0.00  0.00    +0.000 C 
BRANCH  13  16
ATOM     16  C   UNL     1       0.076  10.564  22.060  0.00  0.00    +0.000 C 
BRANCH  16  17
ATOM     17  C   UNL     1      -0.796  11.715  22.533  0.00  0.00    +0.000 A 
ATOM     18  C   UNL     1      -2.047  11.465  23.139  0.00  0.00    +0.000 A 
ATOM     19  C   UNL     1      -2.871  12.521  23.548  0.00  0.00    +0.000 A 
ATOM     20  C   UNL     1      -2.415  13.806  23.343  0.00  0.00    +0.000 A 
ATOM     21  C   UNL     1      -1.196  14.057  22.765  0.00  0.00    +0.000 A 
ATOM     22  C   UNL     1      -0.365  13.039  22.350  0.00  0.00    +0.000 A 
ATOM     23  O   UNL     1      -0.934  15.388  22.654  0.00  0.00    +0.000 OA
ATOM     24  C   UNL     1      -2.139  15.946  23.218  0.00  0.00    +0.000 C 
ATOM     25  O   UNL     1      -3.083  14.947  23.662  0.00  0.00    +0.000 OA
ENDBRANCH  16  17
ENDBRANCH  13  16
ENDBRANCH   4   8
BRANCH   6  26
ATOM     26  O   UNL     1       2.977   2.882  18.253  0.00  0.00    +0.000 OA
BRANCH  26  27
ATOM     27  C   UNL     1       3.466   3.408  17.014  0.00  0.00    +0.000 C 
BRANCH  27  28
ATOM     28  C   UNL     1       4.626   4.350  17.217  0.00  0.00    +0.000 A 
ATOM     29  C   UNL     1       4.911   5.337  16.268  0.00  0.00    +0.000 A 
ATOM     30  C   UNL     1       5.930   6.268  16.492  0.00  0.00    +0.000 A 
ATOM     31  C   UNL     1       6.685   6.235  17.673  0.00  0.00    +0.000 A 
ATOM     32  C   UNL     1       6.403   5.242  18.620  0.00  0.00    +0.000 A 
ATOM     33  C   UNL     1       5.377   4.317  18.401  0.00  0.00    +0.000 A 
BRANCH  31  34
ATOM     34  C   UNL     1       7.827   7.202  17.856  0.00  0.00    +0.000 C 
BRANCH  34  35
ATOM     35  O   UNL     1       8.403   7.112  19.153  0.00  0.00    +0.000 OA
ATOM     36  H   UNL     1       7.707   7.358  19.785  0.00  0.00    +0.000 HD
ENDBRANCH  34  35
ENDBRANCH  31  34
ENDBRANCH  27  28
ENDBRANCH  26  27
ENDBRANCH   6  26
TORSDOF 8
ENDMDL
MODEL 2
REMARK VINA RESULT:      -7.5      2.491      3.377
REMARK  Name = 
REMARK  9 active torsions:
REMARK  status: ('A' for Active; 'I' for Inactive)
REMARK    1  A    between atoms: C_1  and  C_2
REMARK    2  A    between atoms: C_4  and  C_5
REMARK    3  A    between atoms: N_10  and  C_11
REMARK    4  A    between atoms: C_11  and  C_12
REMARK    5  A    between atoms: C_24  and  O_25
REMARK    6  A    between atoms: O_25  and  C_26
REMARK    7  A    between atoms: C_26  and  C_27
REMARK    8  A    between atoms: C_30  and  C_31
REMARK    9  A    between atoms: C_31  and  O_32
REMARK                            x       y       z     vdW  Elec       q    Type
REMARK                         _______ _______ _______ _____ _____    ______ ____
ROOT
ATOM      1  C   UNL     1       2.239   3.762  21.182  0.00  0.00    +0.000 C 
ATOM      2  C   UNL     1       1.548   4.693  20.185  0.00  0.00    +0.000 C 
ATOM      3  C   UNL     1       1.337   6.034  20.810  0.00  0.00    +0.000 C 
ATOM      4  C   UNL     1       1.712   7.191  20.238  0.00  0.00    +0.000 C 
ATOM      5  O   UNL     1       2.303   7.237  18.996  0.00  0.00    +0.000 OA
ATOM      6  C   UNL     1       3.053   6.075  18.615  0.00  0.00    +0.000 C 
ATOM      7  C   UNL     1       2.286   4.768  18.844  0.00  0.00    +0.000 C 
ENDROOT
BRANCH   4   8
ATOM      8  C   UNL     1       1.371   8.459  20.990  0.00  0.00    +0.000 C 
ATOM      9  O   UNL     1       1.533   8.486  22.216  0.00  0.00    +0.000 OA
ATOM     10  N   UNL     1       0.943   9.581  20.301  0.00  0.00    +0.000 N 
ATOM     11  C   UNL     1       0.728  10.829  21.050  0.00  0.00    +0.000 C 
ATOM     12  C   UNL     1       1.412  12.037  20.363  0.00  0.00    +0.000 C 
ATOM     13  N   UNL     1       1.113  12.191  18.916  0.00  0.00    +0.000 NA
ATOM     14  C   UNL     1       1.400  10.901  18.252  0.00  0.00    +0.000 C 
ATOM     15  C   UNL     1       0.670   9.696  18.865  0.00  0.00    +0.000 C 
BRANCH  13  16
ATOM     16  C   UNL     1      -0.274  12.646  18.721  0.00  0.00    +0.000 C 
BRANCH  16  17
ATOM     17  C   UNL     1      -0.550  14.065  19.191  0.00  0.00    +0.000 A 
ATOM     18  C   UNL     1       0.095  15.161  18.576  0.00  0.00    +0.000 A 
ATOM     19  C   UNL     1      -0.128  16.469  19.025  0.00  0.00    +0.000 A 
ATOM     20  C   UNL     1      -1.000  16.645  20.078  0.00  0.00    +0.000 A 
ATOM     21  C   UNL     1      -1.638  15.586  20.674  0.00  0.00    +0.000 A 
ATOM     22  C   UNL     1      -1.437  14.287  20.256  0.00  0.00    +0.000 A 
ATOM     23  O   UNL     1      -2.455  15.972  21.691  0.00  0.00    +0.000 OA
ATOM     24  C   UNL     1      -2.245  17.399  21.677  0.00  0.00    +0.000 C 
ATOM     25  O   UNL     1      -1.326  17.835  20.652  0.00  0.00    +0.000 OA
ENDBRANCH  16  17
ENDBRANCH  13  16
ENDBRANCH   4   8
BRANCH   6  26
ATOM     26  O   UNL     1       4.362   6.078  19.204  0.00  0.00    +0.000 OA
BRANCH  26  27
ATOM     27  C   UNL     1       5.099   4.889  18.894  0.00  0.00    +0.000 C 
BRANCH  27  28
ATOM     28  C   UNL     1       5.633   4.904  17.484  0.00  0.00    +0.000 A 
ATOM     29  C   UNL     1       6.580   5.858  17.095  0.00  0.00    +0.000 A 
ATOM     30  C   UNL     1       7.142   5.823  15.815  0.00  0.00    +0.000 A 
ATOM     31  C   UNL     1       6.774   4.831  14.896  0.00  0.00    +0.000 A 
ATOM     32  C   UNL     1       5.821   3.880  15.284  0.00  0.00    +0.000 A 
ATOM     33  C   UNL     1       5.265   3.909  16.567  0.00  0.00    +0.000 A 
BRANCH  31  34
ATOM     34  C   UNL     1       7.338   4.861  13.499  0.00  0.00    +0.000 C 
BRANCH  34  35
ATOM     35  O   UNL     1       8.381   5.819  13.361  0.00  0.00    +0.000 OA
ATOM     36  H   UNL     1       8.333   6.396  14.141  0.00  0.00    +0.000 HD
ENDBRANCH  34  35
ENDBRANCH  31  34
ENDBRANCH  27  28
ENDBRANCH  26  27
ENDBRANCH   6  26
TORSDOF 8
ENDMDL
MODEL 3
REMARK VINA RESULT:      -7.5      2.734      3.567
REMARK  Name = 
REMARK  9 active torsions:
REMARK  status: ('A' for Active; 'I' for Inactive)
REMARK    1  A    between atoms: C_1  and  C_2
REMARK    2  A    between atoms: C_4  and  C_5
REMARK    3  A    between atoms: N_10  and  C_11
REMARK    4  A    between atoms: C_11  and  C_12
REMARK    5  A    between atoms: C_24  and  O_25
REMARK    6  A    between atoms: O_25  and  C_26
REMARK    7  A    between atoms: C_26  and  C_27
REMARK    8  A    between atoms: C_30  and  C_31
REMARK    9  A    between atoms: C_31  and  O_32
REMARK                            x       y       z     vdW  Elec       q    Type
REMARK                         _______ _______ _______ _____ _____    ______ ____
ROOT
ATOM      1  C   UNL     1       1.920   3.732  21.246  0.00  0.00    +0.000 C 
ATOM      2  C   UNL     1       1.400   4.722  20.204  0.00  0.00    +0.000 C 
ATOM      3  C   UNL     1       1.229   6.069  20.828  0.00  0.00    +0.000 C 
ATOM      4  C   UNL     1       1.743   7.200  20.314  0.00  0.00    +0.000 C 
ATOM      5  O   UNL     1       2.453   7.213  19.136  0.00  0.00    +0.000 OA
ATOM      6  C   UNL     1       3.148   6.001  18.809  0.00  0.00    +0.000 C 
ATOM      7  C   UNL     1       2.269   4.754  18.940  0.00  0.00    +0.000 C 
ENDROOT
BRANCH   4   8
ATOM      8  C   UNL     1       1.426   8.482  21.052  0.00  0.00    +0.000 C 
ATOM      9  O   UNL     1       1.630   8.534  22.270  0.00  0.00    +0.000 OA
ATOM     10  N   UNL     1       0.973   9.590  20.355  0.00  0.00    +0.000 N 
ATOM     11  C   UNL     1       0.781  10.852  21.085  0.00  0.00    +0.000 C 
ATOM     12  C   UNL     1       1.439  12.046  20.350  0.00  0.00    +0.000 C 
ATOM     13  N   UNL     1       1.091  12.171  18.912  0.00  0.00    +0.000 NA
ATOM     14  C   UNL     1       1.357  10.868  18.265  0.00  0.00    +0.000 C 
ATOM     15  C   UNL     1       0.650   9.675  18.927  0.00  0.00    +0.000 C 
BRANCH  13  16
ATOM     16  C   UNL     1      -0.303  12.620  18.756  0.00  0.00    +0.000 C 
BRANCH  16  17
ATOM     17  C   UNL     1      -0.567  14.045  19.216  0.00  0.00    +0.000 A 
ATOM     18  C   UNL     1      -1.478  14.302  20.264  0.00  0.00    +0.000 A 
ATOM     19  C   UNL     1      -1.752  15.614  20.671  0.00  0.00    +0.000 A 
ATOM     20  C   UNL     1      -1.098  16.638  20.018  0.00  0.00    +0.000 A 
ATOM     21  C   UNL     1      -0.205  16.395  19.005  0.00  0.00    +0.000 A 
ATOM     22  C   UNL     1       0.083  15.115  18.581  0.00  0.00    +0.000 A 
ATOM     23  O   UNL     1       0.330  17.537  18.495  0.00  0.00    +0.000 OA
ATOM     24  C   UNL     1      -0.343  18.529  19.296  0.00  0.00    +0.000 C 
ATOM     25  O   UNL     1      -1.249  17.966  20.269  0.00  0.00    +0.000 OA
ENDBRANCH  16  17
ENDBRANCH  13  16
ENDBRANCH   4   8
BRANCH   6  26
ATOM     26  O   UNL     1       4.391   5.899  19.520  0.00  0.00    +0.000 OA
BRANCH  26  27
ATOM     27  C   UNL     1       5.097   4.692  19.210  0.00  0.00    +0.000 C 
BRANCH  27  28
ATOM     28  C   UNL     1       5.520   4.639  17.763  0.00  0.00    +0.000 A 
ATOM     29  C   UNL     1       6.584   5.424  17.306  0.00  0.00    +0.000 A 
ATOM     30  C   UNL     1       7.036   5.314  15.987  0.00  0.00    +0.000 A 
ATOM     31  C   UNL     1       6.436   4.414  15.096  0.00  0.00    +0.000 A 
ATOM     32  C   UNL     1       5.366   3.633  15.552  0.00  0.00    +0.000 A 
ATOM     33  C   UNL     1       4.920   3.735  16.874  0.00  0.00    +0.000 A 
BRANCH  31  34
ATOM     34  C   UNL     1       6.892   4.370  13.660  0.00  0.00    +0.000 C 
BRANCH  34  35
ATOM     35  O   UNL     1       6.355   3.254  12.960  0.00  0.00    +0.000 OA
ATOM     36  H   UNL     1       7.020   2.548  13.010  0.00  0.00    +0.000 HD
ENDBRANCH  34  35
ENDBRANCH  31  34
ENDBRANCH  27  28
ENDBRANCH  26  27
ENDBRANCH   6  26
TORSDOF 8
ENDMDL
MODEL 4
REMARK VINA RESULT:      -7.5      2.461      3.444
REMARK  Name = 
REMARK  9 active torsions:
REMARK  status: ('A' for Active; 'I' for Inactive)
REMARK    1  A    between atoms: C_1  and  C_2
REMARK    2  A    between atoms: C_4  and  C_5
REMARK    3  A    between atoms: N_10  and  C_11
REMARK    4  A    between atoms: C_11  and  C_12
REMARK    5  A    between atoms: C_24  and  O_25
REMARK    6  A    between atoms: O_25  and  C_26
REMARK    7  A    between atoms: C_26  and  C_27
REMARK    8  A    between atoms: C_30  and  C_31
REMARK    9  A    between atoms: C_31  and  O_32
REMARK                            x       y       z     vdW  Elec       q    Type
REMARK                         _______ _______ _______ _____ _____    ______ ____
ROOT
ATOM      1  C   UNL     1       2.077   3.846  21.359  0.00  0.00    +0.000 C 
ATOM      2  C   UNL     1       1.454   4.789  20.330  0.00  0.00    +0.000 C 
ATOM      3  C   UNL     1       1.262   6.142  20.937  0.00  0.00    +0.000 C 
ATOM      4  C   UNL     1       1.695   7.282  20.371  0.00  0.00    +0.000 C 
ATOM      5  O   UNL     1       2.334   7.299  19.153  0.00  0.00    +0.000 OA
ATOM      6  C   UNL     1       3.061   6.111  18.809  0.00  0.00    +0.000 C 
ATOM      7  C   UNL     1       2.245   4.831  19.017  0.00  0.00    +0.000 C 
ENDROOT
BRANCH   4   8
ATOM      8  C   UNL     1       1.366   8.566  21.101  0.00  0.00    +0.000 C 
ATOM      9  O   UNL     1       1.558   8.623  22.321  0.00  0.00    +0.000 OA
ATOM     10  N   UNL     1       0.914   9.669  20.396  0.00  0.00    +0.000 N 
ATOM     11  C   UNL     1       0.710  10.933  21.119  0.00  0.00    +0.000 C 
ATOM     12  C   UNL     1       1.370  12.127  20.386  0.00  0.00    +0.000 C 
ATOM     13  N   UNL     1       1.035  12.245  18.944  0.00  0.00    +0.000 NA
ATOM     14  C   UNL     1       1.312  10.941  18.305  0.00  0.00    +0.000 C 
ATOM     15  C   UNL     1       0.604   9.747  18.965  0.00  0.00    +0.000 C 
BRANCH  13  16
ATOM     16  C   UNL     1      -0.360  12.688  18.773  0.00  0.00    +0.000 C 
BRANCH  16  17
ATOM     17  C   UNL     1      -0.646  14.094  19.275  0.00  0.00    +0.000 A 
ATOM     18  C   UNL     1      -0.045  15.212  18.656  0.00  0.00    +0.000 A 
ATOM     19  C   UNL     1      -0.278  16.508  19.134  0.00  0.00    +0.000 A 
ATOM     20  C   UNL     1      -1.115  16.651  20.220  0.00  0.00    +0.000 A 
ATOM     21  C   UNL     1      -1.710  15.569  20.820  0.00  0.00    +0.000 A 
ATOM     22  C   UNL     1      -1.498  14.282  20.375  0.00  0.00    +0.000 A 
ATOM     23  O   UNL     1      -2.497  15.923  21.872  0.00  0.00    +0.000 OA
ATOM     24  C   UNL     1      -2.316  17.354  21.873  0.00  0.00    +0.000 C 
ATOM     25  O   UNL     1      -1.443  17.824  20.824  0.00  0.00    +0.000 OA
ENDBRANCH  16  17
ENDBRANCH  13  16
ENDBRANCH   4   8
BRANCH   6  26
ATOM     26  O   UNL     1       4.346   6.078  19.448  0.00  0.00    +0.000 OA
BRANCH  26  27
ATOM     27  C   UNL     1       5.030   4.838  19.227  0.00  0.00    +0.000 C 
BRANCH  27  28
ATOM     28  C   UNL     1       5.568   4.730  17.823  0.00  0.00    +0.000 A 
ATOM     29  C   UNL     1       5.022   3.808  16.923  0.00  0.00    +0.000 A 
ATOM     30  C   UNL     1       5.459   3.763  15.595  0.00  0.00    +0.000 A 
ATOM     31  C   UNL     1       6.448   4.643  15.136  0.00  0.00    +0.000 A 
ATOM     32  C   UNL     1       6.999   5.562  16.038  0.00  0.00    +0.000 A 
ATOM     33  C   UNL     1       6.556   5.613  17.364  0.00  0.00    +0.000 A 
BRANCH  31  34
ATOM     34  C   UNL     1       6.955   4.523  13.721  0.00  0.00    +0.000 C 
BRANCH  34  35
ATOM     35  O   UNL     1       6.409   3.395  13.049  0.00  0.00    +0.000 OA
ATOM     36  H   UNL     1       5.528   3.659  12.733  0.00  0.00    +0.000 HD
ENDBRANCH  34  35
ENDBRANCH  31  34
ENDBRANCH  27  28
ENDBRANCH  26  27
ENDBRANCH   6  26
TORSDOF 8
ENDMDL
MODEL 5
REMARK VINA RESULT:      -7.4      5.060      9.189
REMARK  Name = 
REMARK  9 active torsions:
REMARK  status: ('A' for Active; 'I' for Inactive)
REMARK    1  A    between atoms: C_1  and  C_2
REMARK    2  A    between atoms: C_4  and  C_5
REMARK    3  A    between atoms: N_10  and  C_11
REMARK    4  A    between atoms: C_11  and  C_12
REMARK    5  A    between atoms: C_24  and  O_25
REMARK    6  A    between atoms: O_25  and  C_26
REMARK    7  A    between atoms: C_26  and  C_27
REMARK    8  A    between atoms: C_30  and  C_31
REMARK    9  A    between atoms: C_31  and  O_32
REMARK                            x       y       z     vdW  Elec       q    Type
REMARK                         _______ _______ _______ _____ _____    ______ ____
ROOT
ATOM      1  C   UNL     1      -1.160  13.030  22.643  0.00  0.00    +0.000 C 
ATOM      2  C   UNL     1      -1.779  13.382  21.290  0.00  0.00    +0.000 C 
ATOM      3  C   UNL     1      -0.921  14.384  20.588  0.00  0.00    +0.000 C 
ATOM      4  C   UNL     1      -0.484  14.239  19.325  0.00  0.00    +0.000 C 
ATOM      5  O   UNL     1      -0.823  13.152  18.553  0.00  0.00    +0.000 OA
ATOM      6  C   UNL     1      -1.101  11.938  19.266  0.00  0.00    +0.000 C 
ATOM      7  C   UNL     1      -2.068  12.141  20.437  0.00  0.00    +0.000 C 
ENDROOT
BRANCH   4   8
ATOM      8  C   UNL     1       0.333  15.379  18.757  0.00  0.00    +0.000 C 
ATOM      9  O   UNL     1      -0.227  16.459  18.534  0.00  0.00    +0.000 OA
ATOM     10  N   UNL     1       1.693  15.222  18.549  0.00  0.00    +0.000 N 
ATOM     11  C   UNL     1       2.476  16.384  18.102  0.00  0.00    +0.000 C 
ATOM     12  C   UNL     1       3.757  16.575  18.951  0.00  0.00    +0.000 C 
ATOM     13  N   UNL     1       4.596  15.360  19.110  0.00  0.00    +0.000 NA
ATOM     14  C   UNL     1       3.726  14.268  19.600  0.00  0.00    +0.000 C 
ATOM     15  C   UNL     1       2.488  14.004  18.729  0.00  0.00    +0.000 C 
BRANCH  13  16
ATOM     16  C   UNL     1       5.276  15.034  17.845  0.00  0.00    +0.000 C 
BRANCH  16  17
ATOM     17  C   UNL     1       6.787  14.906  17.950  0.00  0.00    +0.000 A 
ATOM     18  C   UNL     1       7.580  16.029  18.274  0.00  0.00    +0.000 A 
ATOM     19  C   UNL     1       8.975  15.927  18.340  0.00  0.00    +0.000 A 
ATOM     20  C   UNL     1       9.541  14.696  18.084  0.00  0.00    +0.000 A 
ATOM     21  C   UNL     1       8.776  13.598  17.778  0.00  0.00    +0.000 A 
ATOM     22  C   UNL     1       7.401  13.668  17.703  0.00  0.00    +0.000 A 
ATOM     23  O   UNL     1       9.525  12.483  17.562  0.00  0.00    +0.000 OA
ATOM     24  C   UNL     1      10.854  13.011  17.753  0.00  0.00    +0.000 C 
ATOM     25  O   UNL     1      10.872  14.415  18.090  0.00  0.00    +0.000 OA
ENDBRANCH  16  17
ENDBRANCH  13  16
ENDBRANCH   4   8
BRANCH   6  26
ATOM     26  O   UNL     1       0.108  11.258  19.638  0.00  0.00    +0.000 OA
BRANCH  26  27
ATOM     27  C   UNL     1       0.781  10.691  18.507  0.00  0.00    +0.000 C 
BRANCH  27  28
ATOM     28  C   UNL     1       1.331   9.319  18.805  0.00  0.00    +0.000 A 
ATOM     29  C   UNL     1       2.035   8.610  17.826  0.00  0.00    +0.000 A 
ATOM     30  C   UNL     1       2.622   7.376  18.122  0.00  0.00    +0.000 A 
ATOM     31  C   UNL     1       2.521   6.825  19.407  0.00  0.00    +0.000 A 
ATOM     32  C   UNL     1       1.811   7.532  20.386  0.00  0.00    +0.000 A 
ATOM     33  C   UNL     1       1.232   8.771  20.092  0.00  0.00    +0.000 A 
BRANCH  31  34
ATOM     34  C   UNL     1       3.097   5.459  19.680  0.00  0.00    +0.000 C 
BRANCH  34  35
ATOM     35  O   UNL     1       3.538   4.814  18.491  0.00  0.00    +0.000 OA
ATOM     36  H   UNL     1       3.106   3.944  18.470  0.00  0.00    +0.000 HD
ENDBRANCH  34  35
ENDBRANCH  31  34
ENDBRANCH  27  28
ENDBRANCH  26  27
ENDBRANCH   6  26
TORSDOF 8
ENDMDL
MODEL 6
REMARK VINA RESULT:      -7.4      4.646      7.772
REMARK  Name = 
REMARK  9 active torsions:
REMARK  status: ('A' for Active; 'I' for Inactive)
REMARK    1  A    between atoms: C_1  and  C_2
REMARK    2  A    between atoms: C_4  and  C_5
REMARK    3  A    between atoms: N_10  and  C_11
REMARK    4  A    between atoms: C_11  and  C_12
REMARK    5  A    between atoms: C_24  and  O_25
REMARK    6  A    between atoms: O_25  and  C_26
REMARK    7  A    between atoms: C_26  and  C_27
REMARK    8  A    between atoms: C_30  and  C_31
REMARK    9  A    between atoms: C_31  and  O_32
REMARK                            x       y       z     vdW  Elec       q    Type
REMARK                         _______ _______ _______ _____ _____    ______ ____
ROOT
ATOM      1  C   UNL     1       0.455  10.035  22.461  0.00  0.00    +0.000 C 
ATOM      2  C   UNL     1      -0.525  10.437  21.359  0.00  0.00    +0.000 C 
ATOM      3  C   UNL     1      -0.277  11.855  20.956  0.00  0.00    +0.000 C 
ATOM      4  C   UNL     1      -0.100  12.249  19.683  0.00  0.00    +0.000 C 
ATOM      5  O   UNL     1      -0.165  11.369  18.627  0.00  0.00    +0.000 OA
ATOM      6  C   UNL     1       0.192  10.010  18.921  0.00  0.00    +0.000 C 
ATOM      7  C   UNL     1      -0.505   9.467  20.172  0.00  0.00    +0.000 C 
ENDROOT
BRANCH   4   8
ATOM      8  C   UNL     1       0.087  13.733  19.454  0.00  0.00    +0.000 C 
ATOM      9  O   UNL     1      -0.913  14.456  19.385  0.00  0.00    +0.000 OA
ATOM     10  N   UNL     1       1.363  14.269  19.384  0.00  0.00    +0.000 N 
ATOM     11  C   UNL     1       1.509  15.728  19.273  0.00  0.00    +0.000 C 
ATOM     12  C   UNL     1       2.537  16.281  20.291  0.00  0.00    +0.000 C 
ATOM     13  N   UNL     1       3.849  15.584  20.305  0.00  0.00    +0.000 NA
ATOM     14  C   UNL     1       3.592  14.136  20.460  0.00  0.00    +0.000 C 
ATOM     15  C   UNL     1       2.637  13.545  19.412  0.00  0.00    +0.000 C 
BRANCH  13  16
ATOM     16  C   UNL     1       4.617  15.908  19.090  0.00  0.00    +0.000 C 
BRANCH  16  17
ATOM     17  C   UNL     1       6.019  15.321  19.049  0.00  0.00    +0.000 A 
ATOM     18  C   UNL     1       6.992  15.722  19.992  0.00  0.00    +0.000 A 
ATOM     19  C   UNL     1       8.294  15.210  19.940  0.00  0.00    +0.000 A 
ATOM     20  C   UNL     1       8.588  14.301  18.945  0.00  0.00    +0.000 A 
ATOM     21  C   UNL     1       7.645  13.899  18.033  0.00  0.00    +0.000 A 
ATOM     22  C   UNL     1       6.355  14.388  18.056  0.00  0.00    +0.000 A 
ATOM     23  O   UNL     1       8.134  13.000  17.137  0.00  0.00    +0.000 OA
ATOM     24  C   UNL     1       9.501  12.893  17.584  0.00  0.00    +0.000 C 
ATOM     25  O   UNL     1       9.796  13.714  18.735  0.00  0.00    +0.000 OA
ENDBRANCH  16  17
ENDBRANCH  13  16
ENDBRANCH   4   8
BRANCH   6  26
ATOM     26  O   UNL     1       1.617   9.833  18.940  0.00  0.00    +0.000 OA
BRANCH  26  27
ATOM     27  C   UNL     1       2.092   9.128  17.788  0.00  0.00    +0.000 C 
BRANCH  27  28
ATOM     28  C   UNL     1       2.712   7.802  18.151  0.00  0.00    +0.000 A 
ATOM     29  C   UNL     1       3.744   7.265  17.373  0.00  0.00    +0.000 A 
ATOM     30  C   UNL     1       4.381   6.080  17.754  0.00  0.00    +0.000 A 
ATOM     31  C   UNL     1       4.004   5.407  18.924  0.00  0.00    +0.000 A 
ATOM     32  C   UNL     1       2.967   5.941  19.699  0.00  0.00    +0.000 A 
ATOM     33  C   UNL     1       2.336   7.132  19.324  0.00  0.00    +0.000 A 
BRANCH  31  34
ATOM     34  C   UNL     1       4.655   4.093  19.271  0.00  0.00    +0.000 C 
BRANCH  34  35
ATOM     35  O   UNL     1       5.966   3.983  18.730  0.00  0.00    +0.000 OA
ATOM     36  H   UNL     1       6.479   3.441  19.352  0.00  0.00    +0.000 HD
ENDBRANCH  34  35
ENDBRANCH  31  34
ENDBRANCH  27  28
ENDBRANCH  26  27
ENDBRANCH   6  26
TORSDOF 8
ENDMDL
MODEL 7
REMARK VINA RESULT:      -7.3      2.824     11.263
REMARK  Name = 
REMARK  9 active torsions:
REMARK  status: ('A' for Active; 'I' for Inactive)
REMARK    1  A    between atoms: C_1  and  C_2
REMARK    2  A    between atoms: C_4  and  C_5
REMARK    3  A    between atoms: N_10  and  C_11
REMARK    4  A    between atoms: C_11  and  C_12
REMARK    5  A    between atoms: C_24  and  O_25
REMARK    6  A    between atoms: O_25  and  C_26
REMARK    7  A    between atoms: C_26  and  C_27
REMARK    8  A    between atoms: C_30  and  C_31
REMARK    9  A    between atoms: C_31  and  O_32
REMARK                            x       y       z     vdW  Elec       q    Type
REMARK                         _______ _______ _______ _____ _____    ______ ____
ROOT
ATOM      1  C   UNL     1       0.680  13.493  21.314  0.00  0.00    +0.000 C 
ATOM      2  C   UNL     1       0.980  12.508  20.184  0.00  0.00    +0.000 C 
ATOM      3  C   UNL     1       1.059  11.120  20.731  0.00  0.00    +0.000 C 
ATOM      4  C   UNL     1       0.373  10.079  20.228  0.00  0.00    +0.000 C 
ATOM      5  O   UNL     1      -0.448  10.203  19.131  0.00  0.00    +0.000 OA
ATOM      6  C   UNL     1      -1.031  11.499  18.927  0.00  0.00    +0.000 C 
ATOM      7  C   UNL     1      -0.008  12.635  19.018  0.00  0.00    +0.000 C 
ENDROOT
BRANCH   4   8
ATOM      8  C   UNL     1       0.615   8.733  20.876  0.00  0.00    +0.000 C 
ATOM      9  O   UNL     1      -0.063   8.415  21.859  0.00  0.00    +0.000 OA
ATOM     10  N   UNL     1       1.542   7.858  20.333  0.00  0.00    +0.000 N 
ATOM     11  C   UNL     1       1.672   6.516  20.920  0.00  0.00    +0.000 C 
ATOM     12  C   UNL     1       1.650   5.410  19.836  0.00  0.00    +0.000 C 
ATOM     13  N   UNL     1       2.586   5.620  18.701  0.00  0.00    +0.000 NA
ATOM     14  C   UNL     1       2.346   6.976  18.160  0.00  0.00    +0.000 C 
ATOM     15  C   UNL     1       2.442   8.101  19.201  0.00  0.00    +0.000 C 
BRANCH  13  16
ATOM     16  C   UNL     1       3.978   5.409  19.136  0.00  0.00    +0.000 C 
BRANCH  16  17
ATOM     17  C   UNL     1       4.997   5.372  18.008  0.00  0.00    +0.000 A 
ATOM     18  C   UNL     1       6.249   6.011  18.151  0.00  0.00    +0.000 A 
ATOM     19  C   UNL     1       7.179   6.009  17.105  0.00  0.00    +0.000 A 
ATOM     20  C   UNL     1       6.832   5.359  15.939  0.00  0.00    +0.000 A 
ATOM     21  C   UNL     1       5.621   4.728  15.796  0.00  0.00    +0.000 A 
ATOM     22  C   UNL     1       4.684   4.715  16.807  0.00  0.00    +0.000 A 
ATOM     23  O   UNL     1       5.475   4.149  14.574  0.00  0.00    +0.000 OA
ATOM     24  C   UNL     1       6.730   4.502  13.957  0.00  0.00    +0.000 C 
ATOM     25  O   UNL     1       7.599   5.267  14.820  0.00  0.00    +0.000 OA
ENDBRANCH  16  17
ENDBRANCH  13  16
ENDBRANCH   4   8
BRANCH   6  26
ATOM     26  O   UNL     1      -2.178  11.697  19.769  0.00  0.00    +0.000 OA
BRANCH  26  27
ATOM     27  C   UNL     1      -2.484  13.084  19.950  0.00  0.00    +0.000 C 
BRANCH  27  28
ATOM     28  C   UNL     1      -3.694  13.287  20.827  0.00  0.00    +0.000 A 
ATOM     29  C   UNL     1      -3.778  14.398  21.673  0.00  0.00    +0.000 A 
ATOM     30  C   UNL     1      -4.934  14.638  22.422  0.00  0.00    +0.000 A 
ATOM     31  C   UNL     1      -6.035  13.774  22.340  0.00  0.00    +0.000 A 
ATOM     32  C   UNL     1      -5.948  12.658  21.497  0.00  0.00    +0.000 A 
ATOM     33  C   UNL     1      -4.796  12.423  20.740  0.00  0.00    +0.000 A 
BRANCH  31  34
ATOM     34  C   UNL     1      -7.239  14.012  23.215  0.00  0.00    +0.000 C 
BRANCH  34  35
ATOM     35  O   UNL     1      -6.957  13.783  24.590  0.00  0.00    +0.000 OA
ATOM     36  H   UNL     1      -6.210  13.161  24.621  0.00  0.00    +0.000 HD
ENDBRANCH  34  35
ENDBRANCH  31  34
ENDBRANCH  27  28
ENDBRANCH  26  27
ENDBRANCH   6  26
TORSDOF 8
ENDMDL
MODEL 8
REMARK VINA RESULT:      -7.3      4.568      7.659
REMARK  Name = 
REMARK  9 active torsions:
REMARK  status: ('A' for Active; 'I' for Inactive)
REMARK    1  A    between atoms: C_1  and  C_2
REMARK    2  A    between atoms: C_4  and  C_5
REMARK    3  A    between atoms: N_10  and  C_11
REMARK    4  A    between atoms: C_11  and  C_12
REMARK    5  A    between atoms: C_24  and  O_25
REMARK    6  A    between atoms: O_25  and  C_26
REMARK    7  A    between atoms: C_26  and  C_27
REMARK    8  A    between atoms: C_30  and  C_31
REMARK    9  A    between atoms: C_31  and  O_32
REMARK                            x       y       z     vdW  Elec       q    Type
REMARK                         _______ _______ _______ _____ _____    ______ ____
ROOT
ATOM      1  C   UNL     1       0.748   9.560  22.504  0.00  0.00    +0.000 C 
ATOM      2  C   UNL     1      -0.368  10.132  21.629  0.00  0.00    +0.000 C 
ATOM      3  C   UNL     1      -0.160  11.600  21.442  0.00  0.00    +0.000 C 
ATOM      4  C   UNL     1      -0.152  12.206  20.242  0.00  0.00    +0.000 C 
ATOM      5  O   UNL     1      -0.370  11.516  19.071  0.00  0.00    +0.000 OA
ATOM      6  C   UNL     1       0.008  10.132  19.080  0.00  0.00    +0.000 C 
ATOM      7  C   UNL     1      -0.520   9.376  20.304  0.00  0.00    +0.000 C 
ENDROOT
BRANCH   4   8
ATOM      8  C   UNL     1       0.020  13.709  20.244  0.00  0.00    +0.000 C 
ATOM      9  O   UNL     1      -0.972  14.422  20.433  0.00  0.00    +0.000 OA
ATOM     10  N   UNL     1       1.281  14.263  20.096  0.00  0.00    +0.000 N 
ATOM     11  C   UNL     1       1.428  15.722  20.215  0.00  0.00    +0.000 C 
ATOM     12  C   UNL     1       2.589  16.106  21.165  0.00  0.00    +0.000 C 
ATOM     13  N   UNL     1       3.883  15.432  20.884  0.00  0.00    +0.000 NA
ATOM     14  C   UNL     1       3.633  13.976  20.826  0.00  0.00    +0.000 C 
ATOM     15  C   UNL     1       2.539  13.560  19.830  0.00  0.00    +0.000 C 
BRANCH  13  16
ATOM     16  C   UNL     1       4.485  15.966  19.650  0.00  0.00    +0.000 C 
BRANCH  16  17
ATOM     17  C   UNL     1       5.790  15.302  19.242  0.00  0.00    +0.000 A 
ATOM     18  C   UNL     1       5.932  14.730  17.957  0.00  0.00    +0.000 A 
ATOM     19  C   UNL     1       7.119  14.088  17.585  0.00  0.00    +0.000 A 
ATOM     20  C   UNL     1       8.140  14.039  18.511  0.00  0.00    +0.000 A 
ATOM     21  C   UNL     1       8.013  14.600  19.757  0.00  0.00    +0.000 A 
ATOM     22  C   UNL     1       6.855  15.237  20.153  0.00  0.00    +0.000 A 
ATOM     23  O   UNL     1       9.130  14.444  20.518  0.00  0.00    +0.000 OA
ATOM     24  C   UNL     1       9.971  13.704  19.609  0.00  0.00    +0.000 C 
ATOM     25  O   UNL     1       9.351  13.447  18.331  0.00  0.00    +0.000 OA
ENDBRANCH  16  17
ENDBRANCH  13  16
ENDBRANCH   4   8
BRANCH   6  26
ATOM     26  O   UNL     1       1.420   9.970  18.876  0.00  0.00    +0.000 OA
BRANCH  26  27
ATOM     27  C   UNL     1       1.714   9.116  17.765  0.00  0.00    +0.000 C 
BRANCH  27  28
ATOM     28  C   UNL     1       2.590   7.953  18.160  0.00  0.00    +0.000 A 
ATOM     29  C   UNL     1       2.294   7.198  19.299  0.00  0.00    +0.000 A 
ATOM     30  C   UNL     1       3.051   6.067  19.621  0.00  0.00    +0.000 A 
ATOM     31  C   UNL     1       4.120   5.664  18.809  0.00  0.00    +0.000 A 
ATOM     32  C   UNL     1       4.420   6.425  17.672  0.00  0.00    +0.000 A 
ATOM     33  C   UNL     1       3.657   7.550  17.344  0.00  0.00    +0.000 A 
BRANCH  31  34
ATOM     34  C   UNL     1       4.967   4.487  19.220  0.00  0.00    +0.000 C 
BRANCH  34  35
ATOM     35  O   UNL     1       5.300   3.654  18.116  0.00  0.00    +0.000 OA
ATOM     36  H   UNL     1       4.951   2.770  18.319  0.00  0.00    +0.000 HD
ENDBRANCH  34  35
ENDBRANCH  31  34
ENDBRANCH  27  28
ENDBRANCH  26  27
ENDBRANCH   6  26
TORSDOF 8
ENDMDL
MODEL 9
REMARK VINA RESULT:      -7.3      1.734      2.119
REMARK  Name = 
REMARK  9 active torsions:
REMARK  status: ('A' for Active; 'I' for Inactive)
REMARK    1  A    between atoms: C_1  and  C_2
REMARK    2  A    between atoms: C_4  and  C_5
REMARK    3  A    between atoms: N_10  and  C_11
REMARK    4  A    between atoms: C_11  and  C_12
REMARK    5  A    between atoms: C_24  and  O_25
REMARK    6  A    between atoms: O_25  and  C_26
REMARK    7  A    between atoms: C_26  and  C_27
REMARK    8  A    between atoms: C_30  and  C_31
REMARK    9  A    between atoms: C_31  and  O_32
REMARK                            x       y       z     vdW  Elec       q    Type
REMARK                         _______ _______ _______ _____ _____    ______ ____
ROOT
ATOM      1  C   UNL     1       2.223   3.650  21.914  0.00  0.00    +0.000 C 
ATOM      2  C   UNL     1       1.316   4.079  20.760  0.00  0.00    +0.000 C 
ATOM      3  C   UNL     1       1.814   5.361  20.176  0.00  0.00    +0.000 C 
ATOM      4  C   UNL     1       2.040   5.545  18.863  0.00  0.00    +0.000 C 
ATOM      5  O   UNL     1       1.797   4.561  17.933  0.00  0.00    +0.000 OA
ATOM      6  C   UNL     1       1.902   3.211  18.406  0.00  0.00    +0.000 C 
ATOM      7  C   UNL     1       1.137   2.974  19.712  0.00  0.00    +0.000 C 
ENDROOT
BRANCH   4   8
ATOM      8  C   UNL     1       2.494   6.926  18.443  0.00  0.00    +0.000 C 
ATOM      9  O   UNL     1       3.222   7.036  17.450  0.00  0.00    +0.000 OA
ATOM     10  N   UNL     1       2.049   8.042  19.131  0.00  0.00    +0.000 N 
ATOM     11  C   UNL     1       2.419   9.374  18.628  0.00  0.00    +0.000 C 
ATOM     12  C   UNL     1       1.193  10.316  18.538  0.00  0.00    +0.000 C 
ATOM     13  N   UNL     1       0.363  10.390  19.768  0.00  0.00    +0.000 NA
ATOM     14  C   UNL     1       0.012   9.009  20.164  0.00  0.00    +0.000 C 
ATOM     15  C   UNL     1       1.219   8.074  20.339  0.00  0.00    +0.000 C 
BRANCH  13  16
ATOM     16  C   UNL     1       1.073  11.132  20.824  0.00  0.00    +0.000 C 
BRANCH  16  17
ATOM     17  C   UNL     1       0.822  12.631  20.826  0.00  0.00    +0.000 A 
ATOM     18  C   UNL     1      -0.037  13.213  21.785  0.00  0.00    +0.000 A 
ATOM     19  C   UNL     1      -0.299  14.589  21.772  0.00  0.00    +0.000 A 
ATOM     20  C   UNL     1       0.314  15.350  20.799  0.00  0.00    +0.000 A 
ATOM     21  C   UNL     1       1.157  14.793  19.870  0.00  0.00    +0.000 A 
ATOM     22  C   UNL     1       1.432  13.442  19.856  0.00  0.00    +0.000 A 
ATOM     23  O   UNL     1       1.657  15.712  19.001  0.00  0.00    +0.000 OA
ATOM     24  C   UNL     1       1.018  16.912  19.482  0.00  0.00    +0.000 C 
ATOM     25  O   UNL     1       0.166  16.691  20.627  0.00  0.00    +0.000 OA
ENDBRANCH  16  17
ENDBRANCH  13  16
ENDBRANCH   4   8
BRANCH   6  26
ATOM     26  O   UNL     1       3.270   2.777  18.460  0.00  0.00    +0.000 OA
BRANCH  26  27
ATOM     27  C   UNL     1       3.964   3.016  17.230  0.00  0.00    +0.000 C 
BRANCH  27  28
ATOM     28  C   UNL     1       5.001   4.102  17.365  0.00  0.00    +0.000 A 
ATOM     29  C   UNL     1       5.422   4.824  16.244  0.00  0.00    +0.000 A 
ATOM     30  C   UNL     1       6.318   5.889  16.377  0.00  0.00    +0.000 A 
ATOM     31  C   UNL     1       6.811   6.260  17.635  0.00  0.00    +0.000 A 
ATOM     32  C   UNL     1       6.394   5.532  18.758  0.00  0.00    +0.000 A 
ATOM     33  C   UNL     1       5.490   4.473  18.627  0.00  0.00    +0.000 A 
BRANCH  31  34
ATOM     34  C   UNL     1       7.833   7.362  17.742  0.00  0.00    +0.000 C 
BRANCH  34  35
ATOM     35  O   UNL     1       8.583   7.283  18.948  0.00  0.00    +0.000 OA
ATOM     36  H   UNL     1       9.145   6.493  18.876  0.00  0.00    +0.000 HD
ENDBRANCH  34  35
ENDBRANCH  31  34
ENDBRANCH  27  28
ENDBRANCH  26  27
ENDBRANCH   6  26
TORSDOF 8
ENDMDL
