MODEL 1
REMARK VINA RESULT:      -7.0      0.000      0.000
REMARK  Name = 
REMARK  11 active torsions:
REMARK  status: ('A' for Active; 'I' for Inactive)
REMARK    1  A    between atoms: C_1  and  O_2
REMARK    2  A    between atoms: O_2  and  C_3
REMARK    3  A    between atoms: C_6  and  N_7
REMARK    4  A    between atoms: N_8  and  C_9
REMARK    5  A    between atoms: C_10  and  C_11
REMARK    6  A    between atoms: C_12  and  O_13
REMARK    7  A    between atoms: O_13  and  C_14
REMARK    8  A    between atoms: C_21  and  O_22
REMARK    9  A    between atoms: O_22  and  C_23
REMARK   10  A    between atoms: C_27  and  C_28
REMARK   11  A    between atoms: C_30  and  C_31
REMARK                            x       y       z     vdW  Elec       q    Type
REMARK                         _______ _______ _______ _____ _____    ______ ____
ROOT
ATOM      1  C   UNL     1       0.098  11.939  21.657  0.00  0.00    +0.000 A 
ATOM      2  C   UNL     1       0.312  13.201  21.210  0.00  0.00    +0.000 A 
ATOM      3  N   UNL     1      -0.547  14.242  21.531  0.00  0.00    +0.000 N 
ATOM      4  C   UNL     1      -1.658  14.113  22.321  0.00  0.00    +0.000 A 
ATOM      5  O   UNL     1      -2.415  15.046  22.543  0.00  0.00    +0.000 OA
ATOM      6  C   UNL     1      -1.858  12.760  22.855  0.00  0.00    +0.000 A 
ATOM      7  C   UNL     1      -1.049  11.722  22.545  0.00  0.00    +0.000 A 
ATOM      8  C   UNL     1      -1.301  10.317  23.089  0.00  0.00    +0.000 C 
ATOM      9  H   UNL     1      -0.367  15.170  21.158  0.00  0.00    +0.000 HD
ENDROOT
BRANCH   2  10
ATOM     10  C   UNL     1       1.456  13.577  20.375  0.00  0.00    +0.000 A 
ATOM     11  C   UNL     1       1.439  13.245  18.995  0.00  0.00    +0.000 A 
ATOM     12  C   UNL     1       2.525  13.550  18.166  0.00  0.00    +0.000 A 
ATOM     13  C   UNL     1       3.604  14.187  18.756  0.00  0.00    +0.000 A 
ATOM     14  O   UNL     1       4.738  14.566  18.105  0.00  0.00    +0.000 OA
ATOM     15  C   UNL     1       5.553  15.135  19.028  0.00  0.00    +0.000 A 
ATOM     16  C   UNL     1       4.957  15.123  20.268  0.00  0.00    +0.000 A 
ATOM     17  C   UNL     1       3.679  14.516  20.101  0.00  0.00    +0.000 A 
ATOM     18  C   UNL     1       2.596  14.209  20.953  0.00  0.00    +0.000 A 
BRANCH  11  19
ATOM     19  O   UNL     1       0.492  12.499  18.326  0.00  0.00    +0.000 OA
ATOM     20  C   UNL     1      -0.785  13.070  18.070  0.00  0.00    +0.000 C 
ENDBRANCH  11  19
BRANCH  18  21
ATOM     21  O   UNL     1       2.723  14.634  22.251  0.00  0.00    +0.000 OA
ATOM     22  C   UNL     1       2.418  15.988  22.564  0.00  0.00    +0.000 C 
ENDBRANCH  18  21
ENDBRANCH   2  10
BRANCH   1  24
ATOM     23  N   UNL     1       0.342  10.060  20.487  0.00  0.00    +0.000 NA
ATOM     24  N   UNL     1       0.867  10.843  21.308  0.00  0.00    +0.000 NA
BRANCH  23  28
ATOM     25  C   UNL     1       2.704   7.121  18.568  0.00  0.00    +0.000 A 
ATOM     26  C   UNL     1       2.371   8.316  17.934  0.00  0.00    +0.000 A 
ATOM     27  C   UNL     1       1.646   9.297  18.615  0.00  0.00    +0.000 A 
ATOM     28  C   UNL     1       1.211   9.095  19.934  0.00  0.00    +0.000 A 
ATOM     29  C   UNL     1       1.599   7.915  20.579  0.00  0.00    +0.000 A 
ATOM     30  C   UNL     1       2.334   6.931  19.899  0.00  0.00    +0.000 A 
BRANCH  25  32
ATOM     31  C   UNL     1       4.501   6.662  17.092  0.00  0.00    +0.000 C 
ATOM     32  O   UNL     1       3.338   6.207  17.772  0.00  0.00    +0.000 OA
ENDBRANCH  25  32
ENDBRANCH  23  28
ENDBRANCH   1  24
BRANCH   6  33
ATOM     33  C   UNL     1      -3.042  12.448  23.754  0.00  0.00    +0.000 C 
ATOM     34  N   UNL     1      -4.025  12.189  24.501  0.00  0.00    +0.000 NA
ENDBRANCH   6  33
TORSDOF 7
ENDMDL
MODEL 2
REMARK VINA RESULT:      -6.4      2.495      5.589
REMARK  Name = 
REMARK  11 active torsions:
REMARK  status: ('A' for Active; 'I' for Inactive)
REMARK    1  A    between atoms: C_1  and  O_2
REMARK    2  A    between atoms: O_2  and  C_3
REMARK    3  A    between atoms: C_6  and  N_7
REMARK    4  A    between atoms: N_8  and  C_9
REMARK    5  A    between atoms: C_10  and  C_11
REMARK    6  A    between atoms: C_12  and  O_13
REMARK    7  A    between atoms: O_13  and  C_14
REMARK    8  A    between atoms: C_21  and  O_22
REMARK    9  A    between atoms: O_22  and  C_23
REMARK   10  A    between atoms: C_27  and  C_28
REMARK   11  A    between atoms: C_30  and  C_31
REMARK                            x       y       z     vdW  Elec       q    Type
REMARK                         _______ _______ _______ _____ _____    ______ ____
ROOT
ATOM      1  C   UNL     1       0.691  13.633  19.939  0.00  0.00    +0.000 A 
ATOM      2  C   UNL     1      -0.327  14.346  20.483  0.00  0.00    +0.000 A 
ATOM      3  N   UNL     1      -0.391  15.727  20.365  0.00  0.00    +0.000 N 
ATOM      4  C   UNL     1       0.527  16.491  19.695  0.00  0.00    +0.000 A 
ATOM      5  O   UNL     1       0.458  17.710  19.654  0.00  0.00    +0.000 OA
ATOM      6  C   UNL     1       1.596  15.715  19.055  0.00  0.00    +0.000 A 
ATOM      7  C   UNL     1       1.696  14.372  19.167  0.00  0.00    +0.000 A 
ATOM      8  C   UNL     1       2.839  13.594  18.516  0.00  0.00    +0.000 C 
ATOM      9  H   UNL     1      -1.156  16.230  20.808  0.00  0.00    +0.000 HD
ENDROOT
BRANCH   2  10
ATOM     10  C   UNL     1      -1.436  13.734  21.218  0.00  0.00    +0.000 A 
ATOM     11  C   UNL     1      -2.424  13.013  20.497  0.00  0.00    +0.000 A 
ATOM     12  C   UNL     1      -3.522  12.443  21.152  0.00  0.00    +0.000 A 
ATOM     13  C   UNL     1      -3.592  12.615  22.524  0.00  0.00    +0.000 A 
ATOM     14  O   UNL     1      -4.580  12.126  23.324  0.00  0.00    +0.000 OA
ATOM     15  C   UNL     1      -4.298  12.523  24.590  0.00  0.00    +0.000 A 
ATOM     16  C   UNL     1      -3.142  13.267  24.614  0.00  0.00    +0.000 A 
ATOM     17  C   UNL     1      -2.665  13.325  23.273  0.00  0.00    +0.000 A 
ATOM     18  C   UNL     1      -1.555  13.913  22.627  0.00  0.00    +0.000 A 
BRANCH  11  19
ATOM     19  O   UNL     1      -2.537  12.888  19.129  0.00  0.00    +0.000 OA
ATOM     20  C   UNL     1      -2.931  11.638  18.578  0.00  0.00    +0.000 C 
ENDBRANCH  11  19
BRANCH  18  21
ATOM     21  O   UNL     1      -0.651  14.534  23.451  0.00  0.00    +0.000 OA
ATOM     22  C   UNL     1      -0.895  15.878  23.851  0.00  0.00    +0.000 C 
ENDBRANCH  18  21
ENDBRANCH   2  10
BRANCH   1  24
ATOM     23  N   UNL     1       0.579  11.582  19.080  0.00  0.00    +0.000 NA
ATOM     24  N   UNL     1       0.858  12.268  20.087  0.00  0.00    +0.000 NA
BRANCH  23  28
ATOM     25  C   UNL     1       2.049   7.637  19.507  0.00  0.00    +0.000 A 
ATOM     26  C   UNL     1       1.422   8.299  20.560  0.00  0.00    +0.000 A 
ATOM     27  C   UNL     1       0.886   9.576  20.372  0.00  0.00    +0.000 A 
ATOM     28  C   UNL     1       0.992  10.233  19.136  0.00  0.00    +0.000 A 
ATOM     29  C   UNL     1       1.575   9.538  18.071  0.00  0.00    +0.000 A 
ATOM     30  C   UNL     1       2.107   8.252  18.256  0.00  0.00    +0.000 A 
BRANCH  25  32
ATOM     31  C   UNL     1       1.807   5.562  20.625  0.00  0.00    +0.000 C 
ATOM     32  O   UNL     1       2.607   6.434  19.837  0.00  0.00    +0.000 OA
ENDBRANCH  25  32
ENDBRANCH  23  28
ENDBRANCH   1  24
BRANCH   6  33
ATOM     33  C   UNL     1       2.694  16.410  18.266  0.00  0.00    +0.000 C 
ATOM     34  N   UNL     1       3.604  16.987  17.612  0.00  0.00    +0.000 NA
ENDBRANCH   6  33
TORSDOF 7
ENDMDL
MODEL 3
REMARK VINA RESULT:      -6.4      3.151      6.583
REMARK  Name = 
REMARK  11 active torsions:
REMARK  status: ('A' for Active; 'I' for Inactive)
REMARK    1  A    between atoms: C_1  and  O_2
REMARK    2  A    between atoms: O_2  and  C_3
REMARK    3  A    between atoms: C_6  and  N_7
REMARK    4  A    between atoms: N_8  and  C_9
REMARK    5  A    between atoms: C_10  and  C_11
REMARK    6  A    between atoms: C_12  and  O_13
REMARK    7  A    between atoms: O_13  and  C_14
REMARK    8  A    between atoms: C_21  and  O_22
REMARK    9  A    between atoms: O_22  and  C_23
REMARK   10  A    between atoms: C_27  and  C_28
REMARK   11  A    between atoms: C_30  and  C_31
REMARK                            x       y       z     vdW  Elec       q    Type
REMARK                         _______ _______ _______ _____ _____    ______ ____
ROOT
ATOM      1  C   UNL     1       0.595  13.206  20.196  0.00  0.00    +0.000 A 
ATOM      2  C   UNL     1       0.315  13.622  21.455  0.00  0.00    +0.000 A 
ATOM      3  N   UNL     1       1.133  14.523  22.121  0.00  0.00    +0.000 N 
ATOM      4  C   UNL     1       2.264  15.083  21.589  0.00  0.00    +0.000 A 
ATOM      5  O   UNL     1       2.982  15.838  22.227  0.00  0.00    +0.000 OA
ATOM      6  C   UNL     1       2.535  14.679  20.204  0.00  0.00    +0.000 A 
ATOM      7  C   UNL     1       1.768  13.789  19.536  0.00  0.00    +0.000 A 
ATOM      8  C   UNL     1       2.094  13.363  18.105  0.00  0.00    +0.000 C 
ATOM      9  H   UNL     1       0.904  14.794  23.075  0.00  0.00    +0.000 HD
ENDROOT
BRANCH   2  10
ATOM     10  C   UNL     1      -0.861  13.178  22.208  0.00  0.00    +0.000 A 
ATOM     11  C   UNL     1      -0.893  11.852  22.714  0.00  0.00    +0.000 A 
ATOM     12  C   UNL     1      -2.011  11.371  23.406  0.00  0.00    +0.000 A 
ATOM     13  C   UNL     1      -3.070  12.248  23.572  0.00  0.00    +0.000 A 
ATOM     14  O   UNL     1      -4.230  11.957  24.223  0.00  0.00    +0.000 OA
ATOM     15  C   UNL     1      -5.013  13.063  24.151  0.00  0.00    +0.000 A 
ATOM     16  C   UNL     1      -4.371  14.061  23.456  0.00  0.00    +0.000 A 
ATOM     17  C   UNL     1      -3.097  13.545  23.082  0.00  0.00    +0.000 A 
ATOM     18  C   UNL     1      -1.981  14.044  22.375  0.00  0.00    +0.000 A 
BRANCH  11  19
ATOM     19  O   UNL     1       0.031  10.853  22.500  0.00  0.00    +0.000 OA
ATOM     20  C   UNL     1      -0.128   9.607  23.168  0.00  0.00    +0.000 C 
ENDBRANCH  11  19
BRANCH  18  21
ATOM     21  O   UNL     1      -2.063  15.357  21.989  0.00  0.00    +0.000 OA
ATOM     22  C   UNL     1      -2.641  15.669  20.726  0.00  0.00    +0.000 C 
ENDBRANCH  18  21
ENDBRANCH   2  10
BRANCH   1  24
ATOM     23  N   UNL     1      -1.336  12.528  19.317  0.00  0.00    +0.000 NA
ATOM     24  N   UNL     1      -0.131  12.251  19.506  0.00  0.00    +0.000 NA
BRANCH  23  28
ATOM     25  C   UNL     1      -3.104  10.115  16.324  0.00  0.00    +0.000 A 
ATOM     26  C   UNL     1      -1.809   9.877  16.782  0.00  0.00    +0.000 A 
ATOM     27  C   UNL     1      -1.275  10.648  17.818  0.00  0.00    +0.000 A 
ATOM     28  C   UNL     1      -2.009  11.693  18.399  0.00  0.00    +0.000 A 
ATOM     29  C   UNL     1      -3.326  11.887  17.970  0.00  0.00    +0.000 A 
ATOM     30  C   UNL     1      -3.869  11.109  16.935  0.00  0.00    +0.000 A 
BRANCH  25  32
ATOM     31  C   UNL     1      -3.548  10.022  13.998  0.00  0.00    +0.000 C 
ATOM     32  O   UNL     1      -3.481   9.356  15.252  0.00  0.00    +0.000 OA
ENDBRANCH  25  32
ENDBRANCH  23  28
ENDBRANCH   1  24
BRANCH   6  33
ATOM     33  C   UNL     1       3.750  15.214  19.464  0.00  0.00    +0.000 C 
ATOM     34  N   UNL     1       4.759  15.657  18.850  0.00  0.00    +0.000 NA
ENDBRANCH   6  33
TORSDOF 7
ENDMDL
MODEL 4
REMARK VINA RESULT:      -6.4      1.952      5.253
REMARK  Name = 
REMARK  11 active torsions:
REMARK  status: ('A' for Active; 'I' for Inactive)
REMARK    1  A    between atoms: C_1  and  O_2
REMARK    2  A    between atoms: O_2  and  C_3
REMARK    3  A    between atoms: C_6  and  N_7
REMARK    4  A    between atoms: N_8  and  C_9
REMARK    5  A    between atoms: C_10  and  C_11
REMARK    6  A    between atoms: C_12  and  O_13
REMARK    7  A    between atoms: O_13  and  C_14
REMARK    8  A    between atoms: C_21  and  O_22
REMARK    9  A    between atoms: O_22  and  C_23
REMARK   10  A    between atoms: C_27  and  C_28
REMARK   11  A    between atoms: C_30  and  C_31
REMARK                            x       y       z     vdW  Elec       q    Type
REMARK                         _______ _______ _______ _____ _____    ______ ____
ROOT
ATOM      1  C   UNL     1      -0.653  13.615  21.695  0.00  0.00    +0.000 A 
ATOM      2  C   UNL     1      -1.008  12.309  21.601  0.00  0.00    +0.000 A 
ATOM      3  N   UNL     1      -2.020  11.774  22.386  0.00  0.00    +0.000 N 
ATOM      4  C   UNL     1      -2.754  12.486  23.296  0.00  0.00    +0.000 A 
ATOM      5  O   UNL     1      -3.605  11.965  24.000  0.00  0.00    +0.000 OA
ATOM      6  C   UNL     1      -2.411  13.912  23.355  0.00  0.00    +0.000 A 
ATOM      7  C   UNL     1      -1.419  14.459  22.618  0.00  0.00    +0.000 A 
ATOM      8  C   UNL     1      -1.062  15.941  22.725  0.00  0.00    +0.000 C 
ATOM      9  H   UNL     1      -2.242  10.784  22.305  0.00  0.00    +0.000 HD
ENDROOT
BRANCH   2  10
ATOM     10  C   UNL     1      -0.379  11.368  20.672  0.00  0.00    +0.000 A 
ATOM     11  C   UNL     1      -0.683  11.461  19.288  0.00  0.00    +0.000 A 
ATOM     12  C   UNL     1      -0.135  10.559  18.368  0.00  0.00    +0.000 A 
ATOM     13  C   UNL     1       0.710   9.585  18.872  0.00  0.00    +0.000 A 
ATOM     14  O   UNL     1       1.337   8.633  18.127  0.00  0.00    +0.000 OA
ATOM     15  C   UNL     1       2.053   7.865  18.986  0.00  0.00    +0.000 A 
ATOM     16  C   UNL     1       1.890   8.309  20.277  0.00  0.00    +0.000 A 
ATOM     17  C   UNL     1       1.024   9.439  20.215  0.00  0.00    +0.000 A 
ATOM     18  C   UNL     1       0.474  10.335  21.158  0.00  0.00    +0.000 A 
BRANCH  11  19
ATOM     19  O   UNL     1      -1.604  12.292  18.688  0.00  0.00    +0.000 OA
ATOM     20  C   UNL     1      -2.798  11.731  18.156  0.00  0.00    +0.000 C 
ENDBRANCH  11  19
BRANCH  18  21
ATOM     21  O   UNL     1       0.893  10.163  22.452  0.00  0.00    +0.000 OA
ATOM     22  C   UNL     1       0.112   9.357  23.328  0.00  0.00    +0.000 C 
ENDBRANCH  18  21
ENDBRANCH   2  10
BRANCH   1  24
ATOM     23  N   UNL     1       1.538  13.817  21.352  0.00  0.00    +0.000 NA
ATOM     24  N   UNL     1       0.397  14.193  21.003  0.00  0.00    +0.000 NA
BRANCH  23  28
ATOM     25  C   UNL     1       4.706  14.610  18.661  0.00  0.00    +0.000 A 
ATOM     26  C   UNL     1       3.486  14.101  18.221  0.00  0.00    +0.000 A 
ATOM     27  C   UNL     1       2.434  13.911  19.122  0.00  0.00    +0.000 A 
ATOM     28  C   UNL     1       2.587  14.197  20.487  0.00  0.00    +0.000 A 
ATOM     29  C   UNL     1       3.797  14.759  20.909  0.00  0.00    +0.000 A 
ATOM     30  C   UNL     1       4.852  14.958  20.004  0.00  0.00    +0.000 A 
BRANCH  25  32
ATOM     31  C   UNL     1       6.941  15.183  18.119  0.00  0.00    +0.000 C 
ATOM     32  O   UNL     1       5.681  14.669  17.705  0.00  0.00    +0.000 OA
ENDBRANCH  25  32
ENDBRANCH  23  28
ENDBRANCH   1  24
BRANCH   6  33
ATOM     33  C   UNL     1      -3.135  14.845  24.311  0.00  0.00    +0.000 C 
ATOM     34  N   UNL     1      -3.737  15.619  25.104  0.00  0.00    +0.000 NA
ENDBRANCH   6  33
TORSDOF 7
ENDMDL
MODEL 5
REMARK VINA RESULT:      -6.4      2.145      5.882
REMARK  Name = 
REMARK  11 active torsions:
REMARK  status: ('A' for Active; 'I' for Inactive)
REMARK    1  A    between atoms: C_1  and  O_2
REMARK    2  A    between atoms: O_2  and  C_3
REMARK    3  A    between atoms: C_6  and  N_7
REMARK    4  A    between atoms: N_8  and  C_9
REMARK    5  A    between atoms: C_10  and  C_11
REMARK    6  A    between atoms: C_12  and  O_13
REMARK    7  A    between atoms: O_13  and  C_14
REMARK    8  A    between atoms: C_21  and  O_22
REMARK    9  A    between atoms: O_22  and  C_23
REMARK   10  A    between atoms: C_27  and  C_28
REMARK   11  A    between atoms: C_30  and  C_31
REMARK                            x       y       z     vdW  Elec       q    Type
REMARK                         _______ _______ _______ _____ _____    ______ ____
ROOT
ATOM      1  C   UNL     1      -0.199  13.385  21.977  0.00  0.00    +0.000 A 
ATOM      2  C   UNL     1      -0.758  12.190  21.667  0.00  0.00    +0.000 A 
ATOM      3  N   UNL     1      -1.920  11.749  22.285  0.00  0.00    +0.000 N 
ATOM      4  C   UNL     1      -2.612  12.459  23.229  0.00  0.00    +0.000 A 
ATOM      5  O   UNL     1      -3.607  12.015  23.781  0.00  0.00    +0.000 OA
ATOM      6  C   UNL     1      -2.042  13.780  23.521  0.00  0.00    +0.000 A 
ATOM      7  C   UNL     1      -0.901  14.228  22.950  0.00  0.00    +0.000 A 
ATOM      8  C   UNL     1      -0.313  15.595  23.299  0.00  0.00    +0.000 C 
ATOM      9  H   UNL     1      -2.296  10.835  22.044  0.00  0.00    +0.000 HD
ENDROOT
BRANCH   2  10
ATOM     10  C   UNL     1      -0.205  11.278  20.663  0.00  0.00    +0.000 A 
ATOM     11  C   UNL     1      -0.596  11.429  19.307  0.00  0.00    +0.000 A 
ATOM     12  C   UNL     1      -0.123  10.558  18.318  0.00  0.00    +0.000 A 
ATOM     13  C   UNL     1       0.737   9.553  18.728  0.00  0.00    +0.000 A 
ATOM     14  O   UNL     1       1.300   8.624  17.907  0.00  0.00    +0.000 OA
ATOM     15  C   UNL     1       2.058   7.813  18.687  0.00  0.00    +0.000 A 
ATOM     16  C   UNL     1       1.985   8.207  20.003  0.00  0.00    +0.000 A 
ATOM     17  C   UNL     1       1.135   9.350  20.041  0.00  0.00    +0.000 A 
ATOM     18  C   UNL     1       0.662  10.215  21.052  0.00  0.00    +0.000 A 
BRANCH  11  19
ATOM     19  O   UNL     1      -1.541  12.296  18.801  0.00  0.00    +0.000 OA
ATOM     20  C   UNL     1      -2.861  11.821  18.568  0.00  0.00    +0.000 C 
ENDBRANCH  11  19
BRANCH  18  21
ATOM     21  O   UNL     1       1.161   9.986  22.309  0.00  0.00    +0.000 OA
ATOM     22  C   UNL     1       0.355   9.290  23.253  0.00  0.00    +0.000 C 
ENDBRANCH  18  21
ENDBRANCH   2  10
BRANCH   1  24
ATOM     23  N   UNL     1       0.919  14.414  20.348  0.00  0.00    +0.000 NA
ATOM     24  N   UNL     1       0.999  13.848  21.460  0.00  0.00    +0.000 NA
BRANCH  23  28
ATOM     25  C   UNL     1       4.291  16.769  19.357  0.00  0.00    +0.000 A 
ATOM     26  C   UNL     1       4.077  16.312  20.656  0.00  0.00    +0.000 A 
ATOM     27  C   UNL     1       2.991  15.481  20.941  0.00  0.00    +0.000 A 
ATOM     28  C   UNL     1       2.077  15.111  19.943  0.00  0.00    +0.000 A 
ATOM     29  C   UNL     1       2.332  15.530  18.632  0.00  0.00    +0.000 A 
ATOM     30  C   UNL     1       3.427  16.359  18.341  0.00  0.00    +0.000 A 
BRANCH  25  32
ATOM     31  C   UNL     1       6.592  17.076  18.878  0.00  0.00    +0.000 C 
ATOM     32  O   UNL     1       5.333  17.643  19.220  0.00  0.00    +0.000 OA
ENDBRANCH  25  32
ENDBRANCH  23  28
ENDBRANCH   1  24
BRANCH   6  33
ATOM     33  C   UNL     1      -2.693  14.697  24.543  0.00  0.00    +0.000 C 
ATOM     34  N   UNL     1      -3.232  15.459  25.390  0.00  0.00    +0.000 NA
ENDBRANCH   6  33
TORSDOF 7
ENDMDL
MODEL 6
REMARK VINA RESULT:      -6.3      3.214      6.464
REMARK  Name = 
REMARK  11 active torsions:
REMARK  status: ('A' for Active; 'I' for Inactive)
REMARK    1  A    between atoms: C_1  and  O_2
REMARK    2  A    between atoms: O_2  and  C_3
REMARK    3  A    between atoms: C_6  and  N_7
REMARK    4  A    between atoms: N_8  and  C_9
REMARK    5  A    between atoms: C_10  and  C_11
REMARK    6  A    between atoms: C_12  and  O_13
REMARK    7  A    between atoms: O_13  and  C_14
REMARK    8  A    between atoms: C_21  and  O_22
REMARK    9  A    between atoms: O_22  and  C_23
REMARK   10  A    between atoms: C_27  and  C_28
REMARK   11  A    between atoms: C_30  and  C_31
REMARK                            x       y       z     vdW  Elec       q    Type
REMARK                         _______ _______ _______ _____ _____    ______ ____
ROOT
ATOM      1  C   UNL     1       0.788  13.855  20.066  0.00  0.00    +0.000 A 
ATOM      2  C   UNL     1       0.321  14.292  21.261  0.00  0.00    +0.000 A 
ATOM      3  N   UNL     1       1.157  14.885  22.196  0.00  0.00    +0.000 N 
ATOM      4  C   UNL     1       2.496  15.100  22.010  0.00  0.00    +0.000 A 
ATOM      5  O   UNL     1       3.207  15.585  22.878  0.00  0.00    +0.000 OA
ATOM      6  C   UNL     1       2.992  14.683  20.693  0.00  0.00    +0.000 A 
ATOM      7  C   UNL     1       2.206  14.085  19.769  0.00  0.00    +0.000 A 
ATOM      8  C   UNL     1       2.757  13.631  18.419  0.00  0.00    +0.000 C 
ATOM      9  H   UNL     1       0.775  15.178  23.092  0.00  0.00    +0.000 HD
ENDROOT
BRANCH   2  10
ATOM     10  C   UNL     1      -1.085  14.192  21.662  0.00  0.00    +0.000 A 
ATOM     11  C   UNL     1      -2.028  15.088  21.093  0.00  0.00    +0.000 A 
ATOM     12  C   UNL     1      -3.374  15.056  21.473  0.00  0.00    +0.000 A 
ATOM     13  C   UNL     1      -3.735  14.113  22.421  0.00  0.00    +0.000 A 
ATOM     14  O   UNL     1      -4.996  13.932  22.902  0.00  0.00    +0.000 OA
ATOM     15  C   UNL     1      -4.931  12.933  23.819  0.00  0.00    +0.000 A 
ATOM     16  C   UNL     1      -3.641  12.473  23.937  0.00  0.00    +0.000 A 
ATOM     17  C   UNL     1      -2.852  13.228  23.021  0.00  0.00    +0.000 A 
ATOM     18  C   UNL     1      -1.488  13.252  22.655  0.00  0.00    +0.000 A 
BRANCH  11  19
ATOM     19  O   UNL     1      -1.771  16.149  20.251  0.00  0.00    +0.000 OA
ATOM     20  C   UNL     1      -2.727  17.196  20.144  0.00  0.00    +0.000 C 
ENDBRANCH  11  19
BRANCH  18  21
ATOM     21  O   UNL     1      -0.700  12.297  23.243  0.00  0.00    +0.000 OA
ATOM     22  C   UNL     1      -0.739  10.966  22.738  0.00  0.00    +0.000 C 
ENDBRANCH  18  21
ENDBRANCH   2  10
BRANCH   1  24
ATOM     23  N   UNL     1      -0.282  12.010  19.426  0.00  0.00    +0.000 NA
ATOM     24  N   UNL     1       0.028  13.183  19.125  0.00  0.00    +0.000 NA
BRANCH  23  28
ATOM     25  C   UNL     1      -2.999  10.278  16.684  0.00  0.00    +0.000 A 
ATOM     26  C   UNL     1      -1.746   9.718  16.920  0.00  0.00    +0.000 A 
ATOM     27  C   UNL     1      -0.895  10.272  17.880  0.00  0.00    +0.000 A 
ATOM     28  C   UNL     1      -1.264  11.417  18.604  0.00  0.00    +0.000 A 
ATOM     29  C   UNL     1      -2.546  11.938  18.398  0.00  0.00    +0.000 A 
ATOM     30  C   UNL     1      -3.406  11.377  17.439  0.00  0.00    +0.000 A 
BRANCH  25  32
ATOM     31  C   UNL     1      -3.376  10.131  14.349  0.00  0.00    +0.000 C 
ATOM     32  O   UNL     1      -3.702   9.700  15.664  0.00  0.00    +0.000 OA
ENDBRANCH  25  32
ENDBRANCH  23  28
ENDBRANCH   1  24
BRANCH   6  33
ATOM     33  C   UNL     1       4.456  14.857  20.324  0.00  0.00    +0.000 C 
ATOM     34  N   UNL     1       5.670  15.002  20.017  0.00  0.00    +0.000 NA
ENDBRANCH   6  33
TORSDOF 7
ENDMDL
MODEL 7
REMARK VINA RESULT:      -6.2      2.677      5.845
REMARK  Name = 
REMARK  11 active torsions:
REMARK  status: ('A' for Active; 'I' for Inactive)
REMARK    1  A    between atoms: C_1  and  O_2
REMARK    2  A    between atoms: O_2  and  C_3
REMARK    3  A    between atoms: C_6  and  N_7
REMARK    4  A    between atoms: N_8  and  C_9
REMARK    5  A    between atoms: C_10  and  C_11
REMARK    6  A    between atoms: C_12  and  O_13
REMARK    7  A    between atoms: O_13  and  C_14
REMARK    8  A    between atoms: C_21  and  O_22
REMARK    9  A    between atoms: O_22  and  C_23
REMARK   10  A    between atoms: C_27  and  C_28
REMARK   11  A    between atoms: C_30  and  C_31
REMARK                            x       y       z     vdW  Elec       q    Type
REMARK                         _______ _______ _______ _____ _____    ______ ____
ROOT
ATOM      1  C   UNL     1      -0.039  13.859  19.987  0.00  0.00    +0.000 A 
ATOM      2  C   UNL     1      -1.209  14.511  20.194  0.00  0.00    +0.000 A 
ATOM      3  N   UNL     1      -1.388  15.828  19.797  0.00  0.00    +0.000 N 
ATOM      4  C   UNL     1      -0.438  16.580  19.159  0.00  0.00    +0.000 A 
ATOM      5  O   UNL     1      -0.620  17.752  18.867  0.00  0.00    +0.000 OA
ATOM      6  C   UNL     1       0.808  15.857  18.880  0.00  0.00    +0.000 A 
ATOM      7  C   UNL     1       1.019  14.580  19.271  0.00  0.00    +0.000 A 
ATOM      8  C   UNL     1       2.340  13.864  18.996  0.00  0.00    +0.000 C 
ATOM      9  H   UNL     1      -2.272  16.291  19.991  0.00  0.00    +0.000 HD
ENDROOT
BRANCH   2  10
ATOM     10  C   UNL     1      -2.374  13.892  20.832  0.00  0.00    +0.000 A 
ATOM     11  C   UNL     1      -3.118  12.921  20.110  0.00  0.00    +0.000 A 
ATOM     12  C   UNL     1      -4.260  12.331  20.664  0.00  0.00    +0.000 A 
ATOM     13  C   UNL     1      -4.621  12.736  21.938  0.00  0.00    +0.000 A 
ATOM     14  O   UNL     1      -5.693  12.265  22.634  0.00  0.00    +0.000 OA
ATOM     15  C   UNL     1      -5.713  12.920  23.822  0.00  0.00    +0.000 A 
ATOM     16  C   UNL     1      -4.668  13.811  23.897  0.00  0.00    +0.000 A 
ATOM     17  C   UNL     1      -3.941  13.692  22.677  0.00  0.00    +0.000 A 
ATOM     18  C   UNL     1      -2.791  14.304  22.131  0.00  0.00    +0.000 A 
BRANCH  11  19
ATOM     19  O   UNL     1      -2.941  12.537  18.799  0.00  0.00    +0.000 OA
ATOM     20  C   UNL     1      -3.689  11.438  18.292  0.00  0.00    +0.000 C 
ENDBRANCH  11  19
BRANCH  18  21
ATOM     21  O   UNL     1      -2.139  15.184  22.957  0.00  0.00    +0.000 OA
ATOM     22  C   UNL     1      -1.096  14.698  23.794  0.00  0.00    +0.000 C 
ENDBRANCH  18  21
ENDBRANCH   2  10
BRANCH   1  24
ATOM     23  N   UNL     1       0.215  11.691  19.546  0.00  0.00    +0.000 NA
ATOM     24  N   UNL     1       0.233  12.576  20.429  0.00  0.00    +0.000 NA
BRANCH  23  28
ATOM     25  C   UNL     1       1.569   7.792  20.479  0.00  0.00    +0.000 A 
ATOM     26  C   UNL     1       1.699   8.321  19.197  0.00  0.00    +0.000 A 
ATOM     27  C   UNL     1       1.304   9.636  18.933  0.00  0.00    +0.000 A 
ATOM     28  C   UNL     1       0.743  10.441  19.936  0.00  0.00    +0.000 A 
ATOM     29  C   UNL     1       0.668   9.919  21.232  0.00  0.00    +0.000 A 
ATOM     30  C   UNL     1       1.071   8.600  21.501  0.00  0.00    +0.000 A 
BRANCH  25  32
ATOM     31  C   UNL     1       2.783   5.958  19.596  0.00  0.00    +0.000 C 
ATOM     32  O   UNL     1       1.908   6.473  20.592  0.00  0.00    +0.000 OA
ENDBRANCH  25  32
ENDBRANCH  23  28
ENDBRANCH   1  24
BRANCH   6  33
ATOM     33  C   UNL     1       1.964  16.546  18.173  0.00  0.00    +0.000 C 
ATOM     34  N   UNL     1       2.922  17.119  17.587  0.00  0.00    +0.000 NA
ENDBRANCH   6  33
TORSDOF 7
ENDMDL
MODEL 8
REMARK VINA RESULT:      -6.2      3.221      4.751
REMARK  Name = 
REMARK  11 active torsions:
REMARK  status: ('A' for Active; 'I' for Inactive)
REMARK    1  A    between atoms: C_1  and  O_2
REMARK    2  A    between atoms: O_2  and  C_3
REMARK    3  A    between atoms: C_6  and  N_7
REMARK    4  A    between atoms: N_8  and  C_9
REMARK    5  A    between atoms: C_10  and  C_11
REMARK    6  A    between atoms: C_12  and  O_13
REMARK    7  A    between atoms: O_13  and  C_14
REMARK    8  A    between atoms: C_21  and  O_22
REMARK    9  A    between atoms: O_22  and  C_23
REMARK   10  A    between atoms: C_27  and  C_28
REMARK   11  A    between atoms: C_30  and  C_31
REMARK                            x       y       z     vdW  Elec       q    Type
REMARK                         _______ _______ _______ _____ _____    ______ ____
ROOT
ATOM      1  C   UNL     1      -3.381  12.812  21.210  0.00  0.00    +0.000 A 
ATOM      2  C   UNL     1      -2.336  13.124  22.015  0.00  0.00    +0.000 A 
ATOM      3  N   UNL     1      -2.513  13.391  23.366  0.00  0.00    +0.000 N 
ATOM      4  C   UNL     1      -3.720  13.352  24.011  0.00  0.00    +0.000 A 
ATOM      5  O   UNL     1      -3.839  13.638  25.192  0.00  0.00    +0.000 OA
ATOM      6  C   UNL     1      -4.843  12.955  23.154  0.00  0.00    +0.000 A 
ATOM      7  C   UNL     1      -4.706  12.708  21.832  0.00  0.00    +0.000 A 
ATOM      8  C   UNL     1      -5.900  12.329  20.957  0.00  0.00    +0.000 C 
ATOM      9  H   UNL     1      -1.708  13.645  23.933  0.00  0.00    +0.000 HD
ENDROOT
BRANCH   2  10
ATOM     10  C   UNL     1      -0.950  13.194  21.546  0.00  0.00    +0.000 A 
ATOM     11  C   UNL     1      -0.221  11.988  21.372  0.00  0.00    +0.000 A 
ATOM     12  C   UNL     1       1.117  12.007  20.962  0.00  0.00    +0.000 A 
ATOM     13  C   UNL     1       1.685  13.249  20.735  0.00  0.00    +0.000 A 
ATOM     14  O   UNL     1       2.967  13.458  20.325  0.00  0.00    +0.000 OA
ATOM     15  C   UNL     1       3.141  14.801  20.238  0.00  0.00    +0.000 A 
ATOM     16  C   UNL     1       1.986  15.459  20.592  0.00  0.00    +0.000 A 
ATOM     17  C   UNL     1       1.025  14.456  20.907  0.00  0.00    +0.000 A 
ATOM     18  C   UNL     1      -0.323  14.456  21.328  0.00  0.00    +0.000 A 
BRANCH  11  19
ATOM     19  O   UNL     1      -0.629  10.711  21.692  0.00  0.00    +0.000 OA
ATOM     20  C   UNL     1      -0.080  10.076  22.840  0.00  0.00    +0.000 C 
ENDBRANCH  11  19
BRANCH  18  21
ATOM     21  O   UNL     1      -0.921  15.688  21.404  0.00  0.00    +0.000 OA
ATOM     22  C   UNL     1      -1.573  16.208  20.250  0.00  0.00    +0.000 C 
ENDBRANCH  18  21
ENDBRANCH   2  10
BRANCH   1  24
ATOM     23  N   UNL     1      -2.829  11.506  19.493  0.00  0.00    +0.000 NA
ATOM     24  N   UNL     1      -3.287  12.616  19.844  0.00  0.00    +0.000 NA
BRANCH  23  28
ATOM     25  C   UNL     1      -3.569  10.422  15.471  0.00  0.00    +0.000 A 
ATOM     26  C   UNL     1      -4.446  11.242  16.178  0.00  0.00    +0.000 A 
ATOM     27  C   UNL     1      -4.143  11.639  17.483  0.00  0.00    +0.000 A 
ATOM     28  C   UNL     1      -2.973  11.201  18.123  0.00  0.00    +0.000 A 
ATOM     29  C   UNL     1      -2.074  10.423  17.386  0.00  0.00    +0.000 A 
ATOM     30  C   UNL     1      -2.372  10.030  16.071  0.00  0.00    +0.000 A 
BRANCH  25  32
ATOM     31  C   UNL     1      -3.017   9.689  13.286  0.00  0.00    +0.000 C 
ATOM     32  O   UNL     1      -4.015  10.033  14.239  0.00  0.00    +0.000 OA
ENDBRANCH  25  32
ENDBRANCH  23  28
ENDBRANCH   1  24
BRANCH   6  33
ATOM     33  C   UNL     1      -6.252  12.858  23.716  0.00  0.00    +0.000 C 
ATOM     34  N   UNL     1      -7.421  12.778  24.182  0.00  0.00    +0.000 NA
ENDBRANCH   6  33
TORSDOF 7
ENDMDL
MODEL 9
REMARK VINA RESULT:      -6.2      3.427      4.900
REMARK  Name = 
REMARK  11 active torsions:
REMARK  status: ('A' for Active; 'I' for Inactive)
REMARK    1  A    between atoms: C_1  and  O_2
REMARK    2  A    between atoms: O_2  and  C_3
REMARK    3  A    between atoms: C_6  and  N_7
REMARK    4  A    between atoms: N_8  and  C_9
REMARK    5  A    between atoms: C_10  and  C_11
REMARK    6  A    between atoms: C_12  and  O_13
REMARK    7  A    between atoms: O_13  and  C_14
REMARK    8  A    between atoms: C_21  and  O_22
REMARK    9  A    between atoms: O_22  and  C_23
REMARK   10  A    between atoms: C_27  and  C_28
REMARK   11  A    between atoms: C_30  and  C_31
REMARK                            x       y       z     vdW  Elec       q    Type
REMARK                         _______ _______ _______ _____ _____    ______ ____
ROOT
ATOM      1  C   UNL     1      -3.755  13.221  20.992  0.00  0.00    +0.000 A 
ATOM      2  C   UNL     1      -2.825  13.916  21.693  0.00  0.00    +0.000 A 
ATOM      3  N   UNL     1      -3.066  14.350  22.989  0.00  0.00    +0.000 N 
ATOM      4  C   UNL     1      -4.223  14.115  23.682  0.00  0.00    +0.000 A 
ATOM      5  O   UNL     1      -4.413  14.554  24.806  0.00  0.00    +0.000 OA
ATOM      6  C   UNL     1      -5.207  13.311  22.946  0.00  0.00    +0.000 A 
ATOM      7  C   UNL     1      -5.010  12.891  21.677  0.00  0.00    +0.000 A 
ATOM      8  C   UNL     1      -6.066  12.083  20.925  0.00  0.00    +0.000 C 
ATOM      9  H   UNL     1      -2.354  14.889  23.474  0.00  0.00    +0.000 HD
ENDROOT
BRANCH   2  10
ATOM     10  C   UNL     1      -1.503  14.254  21.162  0.00  0.00    +0.000 A 
ATOM     11  C   UNL     1      -1.343  15.460  20.429  0.00  0.00    +0.000 A 
ATOM     12  C   UNL     1      -0.108  15.807  19.870  0.00  0.00    +0.000 A 
ATOM     13  C   UNL     1       0.940  14.923  20.069  0.00  0.00    +0.000 A 
ATOM     14  O   UNL     1       2.209  15.099  19.608  0.00  0.00    +0.000 OA
ATOM     15  C   UNL     1       2.925  14.013  19.992  0.00  0.00    +0.000 A 
ATOM     16  C   UNL     1       2.129  13.137  20.692  0.00  0.00    +0.000 A 
ATOM     17  C   UNL     1       0.833  13.725  20.760  0.00  0.00    +0.000 A 
ATOM     18  C   UNL     1      -0.408  13.356  21.323  0.00  0.00    +0.000 A 
BRANCH  11  19
ATOM     19  O   UNL     1      -2.330  16.346  20.052  0.00  0.00    +0.000 OA
ATOM     20  C   UNL     1      -1.960  17.563  19.414  0.00  0.00    +0.000 C 
ENDBRANCH  11  19
BRANCH  18  21
ATOM     21  O   UNL     1      -0.407  12.192  22.049  0.00  0.00    +0.000 OA
ATOM     22  C   UNL     1      -0.432  10.949  21.356  0.00  0.00    +0.000 C 
ENDBRANCH  18  21
ENDBRANCH   2  10
BRANCH   1  24
ATOM     23  N   UNL     1      -3.092  11.707  19.501  0.00  0.00    +0.000 NA
ATOM     24  N   UNL     1      -3.612  12.831  19.673  0.00  0.00    +0.000 NA
BRANCH  23  28
ATOM     25  C   UNL     1      -3.038  10.321  15.503  0.00  0.00    +0.000 A 
ATOM     26  C   UNL     1      -2.083   9.908  16.431  0.00  0.00    +0.000 A 
ATOM     27  C   UNL     1      -2.164  10.329  17.761  0.00  0.00    +0.000 A 
ATOM     28  C   UNL     1      -3.182  11.196  18.188  0.00  0.00    +0.000 A 
ATOM     29  C   UNL     1      -4.165  11.560  17.262  0.00  0.00    +0.000 A 
ATOM     30  C   UNL     1      -4.091  11.131  15.927  0.00  0.00    +0.000 A 
BRANCH  25  32
ATOM     31  C   UNL     1      -3.916   9.946  13.334  0.00  0.00    +0.000 C 
ATOM     32  O   UNL     1      -2.803   9.914  14.220  0.00  0.00    +0.000 OA
ENDBRANCH  25  32
ENDBRANCH  23  28
ENDBRANCH   1  24
BRANCH   6  33
ATOM     33  C   UNL     1      -6.545  12.957  23.575  0.00  0.00    +0.000 C 
ATOM     34  N   UNL     1      -7.655  12.663  24.096  0.00  0.00    +0.000 NA
ENDBRANCH   6  33
TORSDOF 7
ENDMDL
