MODEL 1
REMARK VINA RESULT:      -6.3      0.000      0.000
REMARK  Name = 
REMARK  3 active torsions:
REMARK  status: ('A' for Active; 'I' for Inactive)
REMARK    1  A    between atoms: C_2  and  O_3
REMARK    2  A    between atoms: C_2  and  C_4
REMARK    3  A    between atoms: C_9  and  N_10
REMARK                            x       y       z     vdW  Elec       q    Type
REMARK                         _______ _______ _______ _____ _____    ______ ____
ROOT
ATOM      1  C   UNL     1       3.514   2.822  18.931  0.00  0.00    +0.000 A 
ATOM      2  C   UNL     1       2.134   2.533  18.912  0.00  0.00    +0.000 A 
ATOM      3  C   UNL     1       1.225   3.422  18.341  0.00  0.00    +0.000 A 
ATOM      4  C   UNL     1       1.685   4.594  17.754  0.00  0.00    +0.000 A 
ATOM      5  C   UNL     1       3.053   4.879  17.736  0.00  0.00    +0.000 A 
ATOM      6  C   UNL     1       3.987   4.004  18.329  0.00  0.00    +0.000 A 
ENDROOT
BRANCH   6   7
ATOM      7  N   UNL     1       5.358   4.395  18.300  0.00  0.00    +0.000 N 
ATOM      8  C   UNL     1       6.215   4.285  17.223  0.00  0.00    +0.000 A 
ATOM      9  C   UNL     1       7.409   4.839  17.618  0.00  0.00    +0.000 A 
ATOM     10  N   UNL     1       7.314   5.330  18.885  0.00  0.00    +0.000 NA
ATOM     11  C   UNL     1       6.091   5.038  19.278  0.00  0.00    +0.000 A 
ENDBRANCH   6   7
BRANCH   1  13
ATOM     12  O   UNL     1       5.031   1.832  20.472  0.00  0.00    +0.000 OA
ATOM     13  C   UNL     1       4.398   1.746  19.438  0.00  0.00    +0.000 C 
BRANCH  13  14
ATOM     14  O   UNL     1       4.423   0.660  18.636  0.00  0.00    +0.000 OA
ATOM     15  H   UNL     1       5.302   0.267  18.476  0.00  0.00    +0.000 HD
ENDBRANCH  13  14
ENDBRANCH   1  13
TORSDOF 3
ENDMDL
MODEL 2
REMARK VINA RESULT:      -6.2      1.511      1.834
REMARK  Name = 
REMARK  3 active torsions:
REMARK  status: ('A' for Active; 'I' for Inactive)
REMARK    1  A    between atoms: C_2  and  O_3
REMARK    2  A    between atoms: C_2  and  C_4
REMARK    3  A    between atoms: C_9  and  N_10
REMARK                            x       y       z     vdW  Elec       q    Type
REMARK                         _______ _______ _______ _____ _____    ______ ____
ROOT
ATOM      1  C   UNL     1       3.720   3.761  19.351  0.00  0.00    +0.000 A 
ATOM      2  C   UNL     1       2.615   4.049  20.179  0.00  0.00    +0.000 A 
ATOM      3  C   UNL     1       2.099   5.341  20.257  0.00  0.00    +0.000 A 
ATOM      4  C   UNL     1       2.656   6.353  19.487  0.00  0.00    +0.000 A 
ATOM      5  C   UNL     1       3.731   6.077  18.637  0.00  0.00    +0.000 A 
ATOM      6  C   UNL     1       4.284   4.781  18.560  0.00  0.00    +0.000 A 
ENDROOT
BRANCH   6   7
ATOM      7  N   UNL     1       5.404   4.598  17.698  0.00  0.00    +0.000 N 
ATOM      8  C   UNL     1       5.357   4.360  16.339  0.00  0.00    +0.000 A 
ATOM      9  C   UNL     1       6.661   4.317  15.906  0.00  0.00    +0.000 A 
ATOM     10  N   UNL     1       7.517   4.563  16.937  0.00  0.00    +0.000 NA
ATOM     11  C   UNL     1       6.748   4.709  17.997  0.00  0.00    +0.000 A 
ENDBRANCH   6   7
BRANCH   1  13
ATOM     12  O   UNL     1       3.537   1.549  18.496  0.00  0.00    +0.000 OA
ATOM     13  C   UNL     1       4.095   2.331  19.240  0.00  0.00    +0.000 C 
BRANCH  13  14
ATOM     14  O   UNL     1       5.122   1.988  20.047  0.00  0.00    +0.000 OA
ATOM     15  H   UNL     1       4.938   1.287  20.699  0.00  0.00    +0.000 HD
ENDBRANCH  13  14
ENDBRANCH   1  13
TORSDOF 3
ENDMDL
MODEL 3
REMARK VINA RESULT:      -6.2      0.568      1.005
REMARK  Name = 
REMARK  3 active torsions:
REMARK  status: ('A' for Active; 'I' for Inactive)
REMARK    1  A    between atoms: C_2  and  O_3
REMARK    2  A    between atoms: C_2  and  C_4
REMARK    3  A    between atoms: C_9  and  N_10
REMARK                            x       y       z     vdW  Elec       q    Type
REMARK                         _______ _______ _______ _____ _____    ______ ____
ROOT
ATOM      1  C   UNL     1       3.424   2.824  18.922  0.00  0.00    +0.000 A 
ATOM      2  C   UNL     1       2.056   2.491  19.008  0.00  0.00    +0.000 A 
ATOM      3  C   UNL     1       1.082   3.323  18.460  0.00  0.00    +0.000 A 
ATOM      4  C   UNL     1       1.462   4.479  17.791  0.00  0.00    +0.000 A 
ATOM      5  C   UNL     1       2.815   4.806  17.668  0.00  0.00    +0.000 A 
ATOM      6  C   UNL     1       3.816   3.990  18.235  0.00  0.00    +0.000 A 
ENDROOT
BRANCH   6   7
ATOM      7  N   UNL     1       5.168   4.421  18.097  0.00  0.00    +0.000 N 
ATOM      8  C   UNL     1       5.931   5.035  19.070  0.00  0.00    +0.000 A 
ATOM      9  C   UNL     1       7.182   5.212  18.528  0.00  0.00    +0.000 A 
ATOM     10  N   UNL     1       7.238   4.691  17.271  0.00  0.00    +0.000 NA
ATOM     11  C   UNL     1       6.024   4.242  17.028  0.00  0.00    +0.000 A 
ENDBRANCH   6   7
BRANCH   1  13
ATOM     12  O   UNL     1       5.037   1.936  20.427  0.00  0.00    +0.000 OA
ATOM     13  C   UNL     1       4.376   1.800  19.416  0.00  0.00    +0.000 C 
BRANCH  13  14
ATOM     14  O   UNL     1       4.427   0.702  18.633  0.00  0.00    +0.000 OA
ATOM     15  H   UNL     1       4.299  -0.152  19.086  0.00  0.00    +0.000 HD
ENDBRANCH  13  14
ENDBRANCH   1  13
TORSDOF 3
ENDMDL
MODEL 4
REMARK VINA RESULT:      -6.1      1.458      1.848
REMARK  Name = 
REMARK  3 active torsions:
REMARK  status: ('A' for Active; 'I' for Inactive)
REMARK    1  A    between atoms: C_2  and  O_3
REMARK    2  A    between atoms: C_2  and  C_4
REMARK    3  A    between atoms: C_9  and  N_10
REMARK                            x       y       z     vdW  Elec       q    Type
REMARK                         _______ _______ _______ _____ _____    ______ ____
ROOT
ATOM      1  C   UNL     1       3.404   3.248  19.750  0.00  0.00    +0.000 A 
ATOM      2  C   UNL     1       2.169   3.142  20.423  0.00  0.00    +0.000 A 
ATOM      3  C   UNL     1       1.427   4.278  20.739  0.00  0.00    +0.000 A 
ATOM      4  C   UNL     1       1.891   5.531  20.359  0.00  0.00    +0.000 A 
ATOM      5  C   UNL     1       3.097   5.651  19.663  0.00  0.00    +0.000 A 
ATOM      6  C   UNL     1       3.875   4.515  19.354  0.00  0.00    +0.000 A 
ENDROOT
BRANCH   6   7
ATOM      7  N   UNL     1       5.112   4.734  18.678  0.00  0.00    +0.000 N 
ATOM      8  C   UNL     1       6.273   5.224  19.242  0.00  0.00    +0.000 A 
ATOM      9  C   UNL     1       7.223   5.207  18.249  0.00  0.00    +0.000 A 
ATOM     10  N   UNL     1       6.709   4.685  17.101  0.00  0.00    +0.000 NA
ATOM     11  C   UNL     1       5.447   4.427  17.374  0.00  0.00    +0.000 A 
ENDBRANCH   6   7
BRANCH   1  13
ATOM     12  O   UNL     1       3.614   1.273  18.443  0.00  0.00    +0.000 OA
ATOM     13  C   UNL     1       4.037   1.971  19.344  0.00  0.00    +0.000 C 
BRANCH  13  14
ATOM     14  O   UNL     1       5.131   1.666  20.073  0.00  0.00    +0.000 OA
ATOM     15  H   UNL     1       5.884   2.281  19.993  0.00  0.00    +0.000 HD
ENDBRANCH  13  14
ENDBRANCH   1  13
TORSDOF 3
ENDMDL
MODEL 5
REMARK VINA RESULT:      -6.0      1.500      1.734
REMARK  Name = 
REMARK  3 active torsions:
REMARK  status: ('A' for Active; 'I' for Inactive)
REMARK    1  A    between atoms: C_2  and  O_3
REMARK    2  A    between atoms: C_2  and  C_4
REMARK    3  A    between atoms: C_9  and  N_10
REMARK                            x       y       z     vdW  Elec       q    Type
REMARK                         _______ _______ _______ _____ _____    ______ ____
ROOT
ATOM      1  C   UNL     1       3.725   3.525  19.812  0.00  0.00    +0.000 A 
ATOM      2  C   UNL     1       2.576   3.629  20.625  0.00  0.00    +0.000 A 
ATOM      3  C   UNL     1       1.841   4.811  20.675  0.00  0.00    +0.000 A 
ATOM      4  C   UNL     1       2.221   5.892  19.891  0.00  0.00    +0.000 A 
ATOM      5  C   UNL     1       3.337   5.795  19.056  0.00  0.00    +0.000 A 
ATOM      6  C   UNL     1       4.110   4.615  19.007  0.00  0.00    +0.000 A 
ENDROOT
BRANCH   6   7
ATOM      7  N   UNL     1       5.255   4.618  18.158  0.00  0.00    +0.000 N 
ATOM      8  C   UNL     1       6.548   4.924  18.534  0.00  0.00    +0.000 A 
ATOM      9  C   UNL     1       7.331   4.735  17.421  0.00  0.00    +0.000 A 
ATOM     10  N   UNL     1       6.582   4.280  16.379  0.00  0.00    +0.000 NA
ATOM     11  C   UNL     1       5.347   4.235  16.834  0.00  0.00    +0.000 A 
ENDBRANCH   6   7
BRANCH   1  13
ATOM     12  O   UNL     1       5.129   1.757  20.558  0.00  0.00    +0.000 OA
ATOM     13  C   UNL     1       4.346   2.182  19.731  0.00  0.00    +0.000 C 
BRANCH  13  14
ATOM     14  O   UNL     1       3.949   1.478  18.650  0.00  0.00    +0.000 OA
ATOM     15  H   UNL     1       3.863   0.514  18.775  0.00  0.00    +0.000 HD
ENDBRANCH  13  14
ENDBRANCH   1  13
TORSDOF 3
ENDMDL
MODEL 6
REMARK VINA RESULT:      -6.0      1.488      1.588
REMARK  Name = 
REMARK  3 active torsions:
REMARK  status: ('A' for Active; 'I' for Inactive)
REMARK    1  A    between atoms: C_2  and  O_3
REMARK    2  A    between atoms: C_2  and  C_4
REMARK    3  A    between atoms: C_9  and  N_10
REMARK                            x       y       z     vdW  Elec       q    Type
REMARK                         _______ _______ _______ _____ _____    ______ ____
ROOT
ATOM      1  C   UNL     1       3.422   3.009  20.120  0.00  0.00    +0.000 A 
ATOM      2  C   UNL     1       2.278   2.641  20.859  0.00  0.00    +0.000 A 
ATOM      3  C   UNL     1       1.232   3.541  21.053  0.00  0.00    +0.000 A 
ATOM      4  C   UNL     1       1.300   4.807  20.486  0.00  0.00    +0.000 A 
ATOM      5  C   UNL     1       2.411   5.176  19.724  0.00  0.00    +0.000 A 
ATOM      6  C   UNL     1       3.491   4.288  19.534  0.00  0.00    +0.000 A 
ENDROOT
BRANCH   6   7
ATOM      7  N   UNL     1       4.603   4.762  18.777  0.00  0.00    +0.000 N 
ATOM      8  C   UNL     1       4.654   4.901  17.404  0.00  0.00    +0.000 A 
ATOM      9  C   UNL     1       5.881   5.449  17.115  0.00  0.00    +0.000 A 
ATOM     10  N   UNL     1       6.577   5.697  18.259  0.00  0.00    +0.000 NA
ATOM     11  C   UNL     1       5.805   5.263  19.235  0.00  0.00    +0.000 A 
ENDBRANCH   6   7
BRANCH   1  13
ATOM     12  O   UNL     1       5.292   1.634  20.638  0.00  0.00    +0.000 OA
ATOM     13  C   UNL     1       4.405   1.930  19.861  0.00  0.00    +0.000 C 
BRANCH  13  14
ATOM     14  O   UNL     1       4.210   1.308  18.679  0.00  0.00    +0.000 OA
ATOM     15  H   UNL     1       4.274   1.870  17.884  0.00  0.00    +0.000 HD
ENDBRANCH  13  14
ENDBRANCH   1  13
TORSDOF 3
ENDMDL
MODEL 7
REMARK VINA RESULT:      -5.9      2.922      5.204
REMARK  Name = 
REMARK  3 active torsions:
REMARK  status: ('A' for Active; 'I' for Inactive)
REMARK    1  A    between atoms: C_2  and  O_3
REMARK    2  A    between atoms: C_2  and  C_4
REMARK    3  A    between atoms: C_9  and  N_10
REMARK                            x       y       z     vdW  Elec       q    Type
REMARK                         _______ _______ _______ _____ _____    ______ ____
ROOT
ATOM      1  C   UNL     1       5.883   5.756  16.922  0.00  0.00    +0.000 A 
ATOM      2  C   UNL     1       7.174   6.267  17.173  0.00  0.00    +0.000 A 
ATOM      3  C   UNL     1       7.739   6.188  18.445  0.00  0.00    +0.000 A 
ATOM      4  C   UNL     1       7.038   5.569  19.471  0.00  0.00    +0.000 A 
ATOM      5  C   UNL     1       5.772   5.029  19.231  0.00  0.00    +0.000 A 
ATOM      6  C   UNL     1       5.172   5.119  17.957  0.00  0.00    +0.000 A 
ENDROOT
BRANCH   6   7
ATOM      7  N   UNL     1       3.861   4.578  17.812  0.00  0.00    +0.000 N 
ATOM      8  C   UNL     1       2.673   5.261  17.980  0.00  0.00    +0.000 A 
ATOM      9  C   UNL     1       1.668   4.374  17.678  0.00  0.00    +0.000 A 
ATOM     10  N   UNL     1       2.186   3.177  17.286  0.00  0.00    +0.000 NA
ATOM     11  C   UNL     1       3.492   3.315  17.390  0.00  0.00    +0.000 A 
ENDBRANCH   6   7
BRANCH   1  13
ATOM     12  O   UNL     1       5.435   4.783  14.799  0.00  0.00    +0.000 OA
ATOM     13  C   UNL     1       5.441   5.771  15.507  0.00  0.00    +0.000 C 
BRANCH  13  14
ATOM     14  O   UNL     1       5.043   6.991  15.088  0.00  0.00    +0.000 OA
ATOM     15  H   UNL     1       4.747   7.606  15.785  0.00  0.00    +0.000 HD
ENDBRANCH  13  14
ENDBRANCH   1  13
TORSDOF 3
ENDMDL
MODEL 8
REMARK VINA RESULT:      -5.9      2.224      2.830
REMARK  Name = 
REMARK  3 active torsions:
REMARK  status: ('A' for Active; 'I' for Inactive)
REMARK    1  A    between atoms: C_2  and  O_3
REMARK    2  A    between atoms: C_2  and  C_4
REMARK    3  A    between atoms: C_9  and  N_10
REMARK                            x       y       z     vdW  Elec       q    Type
REMARK                         _______ _______ _______ _____ _____    ______ ____
ROOT
ATOM      1  C   UNL     1       3.399   4.975  17.764  0.00  0.00    +0.000 A 
ATOM      2  C   UNL     1       2.306   5.606  18.396  0.00  0.00    +0.000 A 
ATOM      3  C   UNL     1       2.217   6.995  18.449  0.00  0.00    +0.000 A 
ATOM      4  C   UNL     1       3.197   7.772  17.845  0.00  0.00    +0.000 A 
ATOM      5  C   UNL     1       4.268   7.162  17.187  0.00  0.00    +0.000 A 
ATOM      6  C   UNL     1       4.390   5.757  17.141  0.00  0.00    +0.000 A 
ENDROOT
BRANCH   6   7
ATOM      7  N   UNL     1       5.537   5.222  16.484  0.00  0.00    +0.000 N 
ATOM      8  C   UNL     1       5.674   5.011  15.127  0.00  0.00    +0.000 A 
ATOM      9  C   UNL     1       6.954   4.548  14.933  0.00  0.00    +0.000 A 
ATOM     10  N   UNL     1       7.632   4.504  16.113  0.00  0.00    +0.000 NA
ATOM     11  C   UNL     1       6.764   4.892  17.025  0.00  0.00    +0.000 A 
ENDBRANCH   6   7
BRANCH   1  13
ATOM     12  O   UNL     1       4.088   2.742  18.206  0.00  0.00    +0.000 OA
ATOM     13  C   UNL     1       3.319   3.499  17.647  0.00  0.00    +0.000 C 
BRANCH  13  14
ATOM     14  O   UNL     1       2.304   3.084  16.860  0.00  0.00    +0.000 OA
ATOM     15  H   UNL     1       2.515   2.968  15.915  0.00  0.00    +0.000 HD
ENDBRANCH  13  14
ENDBRANCH   1  13
TORSDOF 3
ENDMDL
MODEL 9
REMARK VINA RESULT:      -5.8      1.708      2.072
REMARK  Name = 
REMARK  3 active torsions:
REMARK  status: ('A' for Active; 'I' for Inactive)
REMARK    1  A    between atoms: C_2  and  O_3
REMARK    2  A    between atoms: C_2  and  C_4
REMARK    3  A    between atoms: C_9  and  N_10
REMARK                            x       y       z     vdW  Elec       q    Type
REMARK                         _______ _______ _______ _____ _____    ______ ____
ROOT
ATOM      1  C   UNL     1       2.685   3.224  19.125  0.00  0.00    +0.000 A 
ATOM      2  C   UNL     1       1.537   3.225  19.944  0.00  0.00    +0.000 A 
ATOM      3  C   UNL     1       1.143   4.378  20.620  0.00  0.00    +0.000 A 
ATOM      4  C   UNL     1       1.869   5.551  20.462  0.00  0.00    +0.000 A 
ATOM      5  C   UNL     1       2.991   5.574  19.629  0.00  0.00    +0.000 A 
ATOM      6  C   UNL     1       3.420   4.413  18.953  0.00  0.00    +0.000 A 
ENDROOT
BRANCH   6   7
ATOM      7  N   UNL     1       4.598   4.518  18.156  0.00  0.00    +0.000 N 
ATOM      8  C   UNL     1       5.893   4.618  18.625  0.00  0.00    +0.000 A 
ATOM      9  C   UNL     1       6.707   4.629  17.518  0.00  0.00    +0.000 A 
ATOM     10  N   UNL     1       5.971   4.494  16.380  0.00  0.00    +0.000 NA
ATOM     11  C   UNL     1       4.718   4.449  16.782  0.00  0.00    +0.000 A 
ENDBRANCH   6   7
BRANCH   1  13
ATOM     12  O   UNL     1       3.819   1.199  18.606  0.00  0.00    +0.000 OA
ATOM     13  C   UNL     1       2.929   1.985  18.348  0.00  0.00    +0.000 C 
BRANCH  13  14
ATOM     14  O   UNL     1       2.060   1.819  17.329  0.00  0.00    +0.000 OA
ATOM     15  H   UNL     1       1.407   1.102  17.436  0.00  0.00    +0.000 HD
ENDBRANCH  13  14
ENDBRANCH   1  13
TORSDOF 3
ENDMDL
