MODEL 1
REMARK VINA RESULT:      -7.8      0.000      0.000
REMARK  Name = 
REMARK  7 active torsions:
REMARK  status: ('A' for Active; 'I' for Inactive)
REMARK    1  A    between atoms: C_1  and  O_2
REMARK    2  A    between atoms: O_2  and  C_3
REMARK    3  A    between atoms: C_8  and  C_9
REMARK    4  A    between atoms: C_9  and  N_10
REMARK    5  A    between atoms: C_16  and  C_17
REMARK    6  A    between atoms: N_19  and  C_20
REMARK    7  A    between atoms: C_20  and  C_21
REMARK                            x       y       z     vdW  Elec       q    Type
REMARK                         _______ _______ _______ _____ _____    ______ ____
ROOT
ATOM      1  N   UNL     1       0.017  11.217  19.338  0.00  0.00    +0.000 N 
ATOM      2  C   UNL     1       1.123  11.325  18.512  0.00  0.00    +0.000 A 
ATOM      3  S   UNL     1       2.268  12.553  18.557  0.00  0.00    +0.000 S 
ATOM      4  N   UNL     1       1.401  10.177  17.798  0.00  0.00    +0.000 N 
ATOM      5  C   UNL     1       1.547   9.019  18.586  0.00  0.00    +0.000 A 
ATOM      6  C   UNL     1       2.339   7.983  18.098  0.00  0.00    +0.000 A 
ATOM      7  C   UNL     1       2.736   6.921  18.931  0.00  0.00    +0.000 A 
ATOM      8  C   UNL     1       2.304   6.945  20.266  0.00  0.00    +0.000 A 
ATOM      9  C   UNL     1       1.418   7.963  20.724  0.00  0.00    +0.000 A 
ATOM     10  C   UNL     1       1.012   9.001  19.867  0.00  0.00    +0.000 A 
ATOM     11  C   UNL     1       0.046  10.125  20.227  0.00  0.00    +0.000 A 
ATOM     12  O   UNL     1      -0.608  10.041  21.264  0.00  0.00    +0.000 OA
ATOM     13  H   UNL     1       0.711  10.004  17.066  0.00  0.00    +0.000 HD
ENDROOT
BRANCH   7  14
ATOM     14  C   UNL     1       3.571   5.869  18.258  0.00  0.00    +0.000 C 
ATOM     15  O   UNL     1       2.993   4.866  17.837  0.00  0.00    +0.000 OA
ATOM     16  N   UNL     1       4.945   5.995  18.121  0.00  0.00    +0.000 N 
ATOM     17  H   UNL     1       5.399   6.894  18.207  0.00  0.00    +0.000 HD
BRANCH  16  18
ATOM     18  C   UNL     1       5.660   4.954  17.355  0.00  0.00    +0.000 C 
BRANCH  18  19
ATOM     19  C   UNL     1       5.624   5.107  15.831  0.00  0.00    +0.000 C 
ATOM     20  C   UNL     1       5.403   3.816  15.060  0.00  0.00    +0.000 C 
ATOM     21  C   UNL     1       6.097   4.100  13.751  0.00  0.00    +0.000 C 
ATOM     22  C   UNL     1       7.251   4.984  14.171  0.00  0.00    +0.000 C 
ATOM     23  O   UNL     1       6.852   5.684  15.354  0.00  0.00    +0.000 OA
ENDBRANCH  18  19
ENDBRANCH  16  18
ENDBRANCH   7  14
BRANCH   1  24
ATOM     24  C   UNL     1      -0.760  12.432  19.665  0.00  0.00    +0.000 C 
BRANCH  24  30
ATOM     25  C   UNL     1      -3.233  12.794  20.390  0.00  0.00    +0.000 A 
ATOM     26  C   UNL     1      -4.602  12.622  20.138  0.00  0.00    +0.000 A 
ATOM     27  C   UNL     1      -5.045  11.960  18.992  0.00  0.00    +0.000 A 
ATOM     28  C   UNL     1      -4.113  11.515  18.066  0.00  0.00    +0.000 A 
ATOM     29  C   UNL     1      -2.743  11.750  18.270  0.00  0.00    +0.000 A 
ATOM     30  C   UNL     1      -2.273  12.387  19.429  0.00  0.00    +0.000 A 
BRANCH  25  32
ATOM     31  C   UNL     1      -2.976  12.499  22.727  0.00  0.00    +0.000 C 
ATOM     32  O   UNL     1      -2.777  13.329  21.576  0.00  0.00    +0.000 OA
ENDBRANCH  25  32
ENDBRANCH  24  30
ENDBRANCH   1  24
TORSDOF 6
ENDMDL
MODEL 2
REMARK VINA RESULT:      -7.8      1.528      2.338
REMARK  Name = 
REMARK  7 active torsions:
REMARK  status: ('A' for Active; 'I' for Inactive)
REMARK    1  A    between atoms: C_1  and  O_2
REMARK    2  A    between atoms: O_2  and  C_3
REMARK    3  A    between atoms: C_8  and  C_9
REMARK    4  A    between atoms: C_9  and  N_10
REMARK    5  A    between atoms: C_16  and  C_17
REMARK    6  A    between atoms: N_19  and  C_20
REMARK    7  A    between atoms: C_20  and  C_21
REMARK                            x       y       z     vdW  Elec       q    Type
REMARK                         _______ _______ _______ _____ _____    ______ ____
ROOT
ATOM      1  N   UNL     1      -0.608  11.708  19.742  0.00  0.00    +0.000 N 
ATOM      2  C   UNL     1       0.398  11.950  18.822  0.00  0.00    +0.000 A 
ATOM      3  S   UNL     1       1.445  13.262  18.832  0.00  0.00    +0.000 S 
ATOM      4  N   UNL     1       0.690  10.867  18.017  0.00  0.00    +0.000 N 
ATOM      5  C   UNL     1       1.002   9.685  18.716  0.00  0.00    +0.000 A 
ATOM      6  C   UNL     1       1.818   8.745  18.094  0.00  0.00    +0.000 A 
ATOM      7  C   UNL     1       2.375   7.676  18.819  0.00  0.00    +0.000 A 
ATOM      8  C   UNL     1       2.078   7.594  20.188  0.00  0.00    +0.000 A 
ATOM      9  C   UNL     1       1.167   8.511  20.789  0.00  0.00    +0.000 A 
ATOM     10  C   UNL     1       0.600   9.556  20.039  0.00  0.00    +0.000 A 
ATOM     11  C   UNL     1      -0.409  10.577  20.556  0.00  0.00    +0.000 A 
ATOM     12  O   UNL     1      -0.947  10.385  21.644  0.00  0.00    +0.000 OA
ATOM     13  H   UNL     1      -0.054  10.678  17.345  0.00  0.00    +0.000 HD
ENDROOT
BRANCH   7  14
ATOM     14  C   UNL     1       3.218   6.733  18.008  0.00  0.00    +0.000 C 
ATOM     15  O   UNL     1       2.985   5.527  18.114  0.00  0.00    +0.000 OA
ATOM     16  N   UNL     1       4.235   7.179  17.179  0.00  0.00    +0.000 N 
ATOM     17  H   UNL     1       4.274   8.141  16.871  0.00  0.00    +0.000 HD
BRANCH  16  18
ATOM     18  C   UNL     1       4.936   6.181  16.348  0.00  0.00    +0.000 C 
BRANCH  18  19
ATOM     19  C   UNL     1       6.365   5.840  16.782  0.00  0.00    +0.000 C 
ATOM     20  C   UNL     1       6.471   5.001  18.045  0.00  0.00    +0.000 C 
ATOM     21  C   UNL     1       7.811   5.418  18.598  0.00  0.00    +0.000 C 
ATOM     22  C   UNL     1       7.899   6.874  18.195  0.00  0.00    +0.000 C 
ATOM     23  O   UNL     1       7.125   7.041  17.002  0.00  0.00    +0.000 OA
ENDBRANCH  18  19
ENDBRANCH  16  18
ENDBRANCH   7  14
BRANCH   1  24
ATOM     24  C   UNL     1      -1.439  12.837  20.213  0.00  0.00    +0.000 C 
BRANCH  24  30
ATOM     25  C   UNL     1      -3.760  12.159  19.250  0.00  0.00    +0.000 A 
ATOM     26  C   UNL     1      -5.151  12.073  19.402  0.00  0.00    +0.000 A 
ATOM     27  C   UNL     1      -5.776  12.516  20.568  0.00  0.00    +0.000 A 
ATOM     28  C   UNL     1      -4.997  12.998  21.610  0.00  0.00    +0.000 A 
ATOM     29  C   UNL     1      -3.597  13.018  21.499  0.00  0.00    +0.000 A 
ATOM     30  C   UNL     1      -2.950  12.604  20.324  0.00  0.00    +0.000 A 
BRANCH  25  32
ATOM     31  C   UNL     1      -3.260  10.475  17.659  0.00  0.00    +0.000 C 
ATOM     32  O   UNL     1      -3.142  11.847  18.057  0.00  0.00    +0.000 OA
ENDBRANCH  25  32
ENDBRANCH  24  30
ENDBRANCH   1  24
TORSDOF 6
ENDMDL
MODEL 3
REMARK VINA RESULT:      -7.6      2.086      2.648
REMARK  Name = 
REMARK  7 active torsions:
REMARK  status: ('A' for Active; 'I' for Inactive)
REMARK    1  A    between atoms: C_1  and  O_2
REMARK    2  A    between atoms: O_2  and  C_3
REMARK    3  A    between atoms: C_8  and  C_9
REMARK    4  A    between atoms: C_9  and  N_10
REMARK    5  A    between atoms: C_16  and  C_17
REMARK    6  A    between atoms: N_19  and  C_20
REMARK    7  A    between atoms: C_20  and  C_21
REMARK                            x       y       z     vdW  Elec       q    Type
REMARK                         _______ _______ _______ _____ _____    ______ ____
ROOT
ATOM      1  N   UNL     1      -1.426  12.038  21.135  0.00  0.00    +0.000 N 
ATOM      2  C   UNL     1      -0.600  12.221  20.038  0.00  0.00    +0.000 A 
ATOM      3  S   UNL     1       0.327  13.584  19.722  0.00  0.00    +0.000 S 
ATOM      4  N   UNL     1      -0.355  11.064  19.326  0.00  0.00    +0.000 N 
ATOM      5  C   UNL     1       0.156  10.001  20.095  0.00  0.00    +0.000 A 
ATOM      6  C   UNL     1       0.935   9.040  19.457  0.00  0.00    +0.000 A 
ATOM      7  C   UNL     1       1.684   8.107  20.197  0.00  0.00    +0.000 A 
ATOM      8  C   UNL     1       1.614   8.181  21.597  0.00  0.00    +0.000 A 
ATOM      9  C   UNL     1       0.741   9.111  22.232  0.00  0.00    +0.000 A 
ATOM     10  C   UNL     1      -0.019  10.017  21.472  0.00  0.00    +0.000 A 
ATOM     11  C   UNL     1      -1.011  11.034  22.029  0.00  0.00    +0.000 A 
ATOM     12  O   UNL     1      -1.353  10.949  23.206  0.00  0.00    +0.000 OA
ATOM     13  H   UNL     1      -1.179  10.747  18.814  0.00  0.00    +0.000 HD
ENDROOT
BRANCH   7  14
ATOM     14  C   UNL     1       2.459   7.119  19.371  0.00  0.00    +0.000 C 
ATOM     15  O   UNL     1       2.404   7.236  18.145  0.00  0.00    +0.000 OA
ATOM     16  N   UNL     1       3.199   6.098  19.945  0.00  0.00    +0.000 N 
ATOM     17  H   UNL     1       3.476   6.135  20.916  0.00  0.00    +0.000 HD
BRANCH  16  18
ATOM     18  C   UNL     1       4.005   5.244  19.050  0.00  0.00    +0.000 C 
BRANCH  18  19
ATOM     19  C   UNL     1       5.455   5.688  18.836  0.00  0.00    +0.000 C 
ATOM     20  C   UNL     1       5.720   6.415  17.528  0.00  0.00    +0.000 C 
ATOM     21  C   UNL     1       7.169   6.089  17.264  0.00  0.00    +0.000 C 
ATOM     22  C   UNL     1       7.303   4.692  17.829  0.00  0.00    +0.000 C 
ATOM     23  O   UNL     1       6.341   4.555  18.881  0.00  0.00    +0.000 OA
ENDBRANCH  18  19
ENDBRANCH  16  18
ENDBRANCH   7  14
BRANCH   1  24
ATOM     24  C   UNL     1      -2.259  13.166  21.605  0.00  0.00    +0.000 C 
BRANCH  24  30
ATOM     25  C   UNL     1      -4.704  13.145  22.495  0.00  0.00    +0.000 A 
ATOM     26  C   UNL     1      -6.069  12.918  22.268  0.00  0.00    +0.000 A 
ATOM     27  C   UNL     1      -6.530  12.493  21.021  0.00  0.00    +0.000 A 
ATOM     28  C   UNL     1      -5.624  12.346  19.981  0.00  0.00    +0.000 A 
ATOM     29  C   UNL     1      -4.265  12.646  20.176  0.00  0.00    +0.000 A 
ATOM     30  C   UNL     1      -3.776  13.046  21.429  0.00  0.00    +0.000 A 
BRANCH  25  32
ATOM     31  C   UNL     1      -4.355  12.384  24.712  0.00  0.00    +0.000 C 
ATOM     32  O   UNL     1      -4.219  13.440  23.752  0.00  0.00    +0.000 OA
ENDBRANCH  25  32
ENDBRANCH  24  30
ENDBRANCH   1  24
TORSDOF 6
ENDMDL
MODEL 4
REMARK VINA RESULT:      -7.6      1.755      2.460
REMARK  Name = 
REMARK  7 active torsions:
REMARK  status: ('A' for Active; 'I' for Inactive)
REMARK    1  A    between atoms: C_1  and  O_2
REMARK    2  A    between atoms: O_2  and  C_3
REMARK    3  A    between atoms: C_8  and  C_9
REMARK    4  A    between atoms: C_9  and  N_10
REMARK    5  A    between atoms: C_16  and  C_17
REMARK    6  A    between atoms: N_19  and  C_20
REMARK    7  A    between atoms: C_20  and  C_21
REMARK                            x       y       z     vdW  Elec       q    Type
REMARK                         _______ _______ _______ _____ _____    ______ ____
ROOT
ATOM      1  N   UNL     1      -0.299  11.628  19.646  0.00  0.00    +0.000 N 
ATOM      2  C   UNL     1       0.809  11.647  18.817  0.00  0.00    +0.000 A 
ATOM      3  S   UNL     1       1.987  12.843  18.775  0.00  0.00    +0.000 S 
ATOM      4  N   UNL     1       1.056  10.442  18.188  0.00  0.00    +0.000 N 
ATOM      5  C   UNL     1       1.171   9.341  19.059  0.00  0.00    +0.000 A 
ATOM      6  C   UNL     1       1.935   8.252  18.649  0.00  0.00    +0.000 A 
ATOM      7  C   UNL     1       2.303   7.243  19.557  0.00  0.00    +0.000 A 
ATOM      8  C   UNL     1       1.871   7.375  20.886  0.00  0.00    +0.000 A 
ATOM      9  C   UNL     1       1.013   8.447  21.267  0.00  0.00    +0.000 A 
ATOM     10  C   UNL     1       0.635   9.431  20.337  0.00  0.00    +0.000 A 
ATOM     11  C   UNL     1      -0.301  10.604  20.612  0.00  0.00    +0.000 A 
ATOM     12  O   UNL     1      -0.957  10.612  21.651  0.00  0.00    +0.000 OA
ATOM     13  H   UNL     1       0.362  10.236  17.470  0.00  0.00    +0.000 HD
ENDROOT
BRANCH   7  14
ATOM     14  C   UNL     1       3.110   6.123  18.964  0.00  0.00    +0.000 C 
ATOM     15  O   UNL     1       2.804   5.737  17.835  0.00  0.00    +0.000 OA
ATOM     16  N   UNL     1       4.152   5.521  19.652  0.00  0.00    +0.000 N 
ATOM     17  H   UNL     1       4.589   5.976  20.441  0.00  0.00    +0.000 HD
BRANCH  16  18
ATOM     18  C   UNL     1       4.947   4.499  18.943  0.00  0.00    +0.000 C 
BRANCH  18  19
ATOM     19  C   UNL     1       6.300   4.968  18.399  0.00  0.00    +0.000 C 
ATOM     20  C   UNL     1       7.184   5.687  19.405  0.00  0.00    +0.000 C 
ATOM     21  C   UNL     1       8.001   6.598  18.524  0.00  0.00    +0.000 C 
ATOM     22  C   UNL     1       7.031   6.948  17.417  0.00  0.00    +0.000 C 
ATOM     23  O   UNL     1       6.114   5.857  17.284  0.00  0.00    +0.000 OA
ENDBRANCH  18  19
ENDBRANCH  16  18
ENDBRANCH   7  14
BRANCH   1  24
ATOM     24  C   UNL     1      -1.044  12.884  19.882  0.00  0.00    +0.000 C 
BRANCH  24  30
ATOM     25  C   UNL     1      -3.460  12.238  19.163  0.00  0.00    +0.000 A 
ATOM     26  C   UNL     1      -4.841  12.274  19.403  0.00  0.00    +0.000 A 
ATOM     27  C   UNL     1      -5.359  12.926  20.523  0.00  0.00    +0.000 A 
ATOM     28  C   UNL     1      -4.486  13.499  21.435  0.00  0.00    +0.000 A 
ATOM     29  C   UNL     1      -3.097  13.403  21.244  0.00  0.00    +0.000 A 
ATOM     30  C   UNL     1      -2.555  12.777  20.111  0.00  0.00    +0.000 A 
BRANCH  25  32
ATOM     31  C   UNL     1      -3.894  11.037  17.167  0.00  0.00    +0.000 C 
ATOM     32  O   UNL     1      -2.942  11.712  17.998  0.00  0.00    +0.000 OA
ENDBRANCH  25  32
ENDBRANCH  24  30
ENDBRANCH   1  24
TORSDOF 6
ENDMDL
MODEL 5
REMARK VINA RESULT:      -7.6      1.011      1.772
REMARK  Name = 
REMARK  7 active torsions:
REMARK  status: ('A' for Active; 'I' for Inactive)
REMARK    1  A    between atoms: C_1  and  O_2
REMARK    2  A    between atoms: O_2  and  C_3
REMARK    3  A    between atoms: C_8  and  C_9
REMARK    4  A    between atoms: C_9  and  N_10
REMARK    5  A    between atoms: C_16  and  C_17
REMARK    6  A    between atoms: N_19  and  C_20
REMARK    7  A    between atoms: C_20  and  C_21
REMARK                            x       y       z     vdW  Elec       q    Type
REMARK                         _______ _______ _______ _____ _____    ______ ____
ROOT
ATOM      1  N   UNL     1      -0.027  11.226  19.290  0.00  0.00    +0.000 N 
ATOM      2  C   UNL     1       1.099  11.326  18.491  0.00  0.00    +0.000 A 
ATOM      3  S   UNL     1       2.233  12.564  18.539  0.00  0.00    +0.000 S 
ATOM      4  N   UNL     1       1.405  10.165  17.809  0.00  0.00    +0.000 N 
ATOM      5  C   UNL     1       1.539   9.025  18.627  0.00  0.00    +0.000 A 
ATOM      6  C   UNL     1       2.352   7.986  18.183  0.00  0.00    +0.000 A 
ATOM      7  C   UNL     1       2.735   6.946  19.048  0.00  0.00    +0.000 A 
ATOM      8  C   UNL     1       2.268   6.994  20.370  0.00  0.00    +0.000 A 
ATOM      9  C   UNL     1       1.362   8.015  20.782  0.00  0.00    +0.000 A 
ATOM     10  C   UNL     1       0.971   9.031  19.893  0.00  0.00    +0.000 A 
ATOM     11  C   UNL     1      -0.014  10.155  20.203  0.00  0.00    +0.000 A 
ATOM     12  O   UNL     1      -0.694  10.087  21.224  0.00  0.00    +0.000 OA
ATOM     13  H   UNL     1       0.736   9.971  17.064  0.00  0.00    +0.000 HD
ENDROOT
BRANCH   7  14
ATOM     14  C   UNL     1       3.596   5.886  18.420  0.00  0.00    +0.000 C 
ATOM     15  O   UNL     1       3.540   4.752  18.897  0.00  0.00    +0.000 OA
ATOM     16  N   UNL     1       4.442   6.159  17.357  0.00  0.00    +0.000 N 
ATOM     17  H   UNL     1       4.316   6.984  16.787  0.00  0.00    +0.000 HD
BRANCH  16  18
ATOM     18  C   UNL     1       5.170   5.028  16.747  0.00  0.00    +0.000 C 
BRANCH  18  19
ATOM     19  C   UNL     1       5.463   5.156  15.249  0.00  0.00    +0.000 C 
ATOM     20  C   UNL     1       5.414   3.852  14.470  0.00  0.00    +0.000 C 
ATOM     21  C   UNL     1       6.374   4.117  13.337  0.00  0.00    +0.000 C 
ATOM     22  C   UNL     1       7.409   5.013  13.980  0.00  0.00    +0.000 C 
ATOM     23  O   UNL     1       6.764   5.731  15.037  0.00  0.00    +0.000 OA
ENDBRANCH  18  19
ENDBRANCH  16  18
ENDBRANCH   7  14
BRANCH   1  24
ATOM     24  C   UNL     1      -0.822  12.441  19.569  0.00  0.00    +0.000 C 
BRANCH  24  30
ATOM     25  C   UNL     1      -3.110  11.831  18.491  0.00  0.00    +0.000 A 
ATOM     26  C   UNL     1      -4.511  11.830  18.551  0.00  0.00    +0.000 A 
ATOM     27  C   UNL     1      -5.184  12.380  19.643  0.00  0.00    +0.000 A 
ATOM     28  C   UNL     1      -4.448  12.886  20.705  0.00  0.00    +0.000 A 
ATOM     29  C   UNL     1      -3.045  12.822  20.690  0.00  0.00    +0.000 A 
ATOM     30  C   UNL     1      -2.347  12.299  19.589  0.00  0.00    +0.000 A 
BRANCH  25  32
ATOM     31  C   UNL     1      -3.272  11.054  16.257  0.00  0.00    +0.000 C 
ATOM     32  O   UNL     1      -2.434  11.409  17.365  0.00  0.00    +0.000 OA
ENDBRANCH  25  32
ENDBRANCH  24  30
ENDBRANCH   1  24
TORSDOF 6
ENDMDL
MODEL 6
REMARK VINA RESULT:      -7.6      1.476      1.778
REMARK  Name = 
REMARK  7 active torsions:
REMARK  status: ('A' for Active; 'I' for Inactive)
REMARK    1  A    between atoms: C_1  and  O_2
REMARK    2  A    between atoms: O_2  and  C_3
REMARK    3  A    between atoms: C_8  and  C_9
REMARK    4  A    between atoms: C_9  and  N_10
REMARK    5  A    between atoms: C_16  and  C_17
REMARK    6  A    between atoms: N_19  and  C_20
REMARK    7  A    between atoms: C_20  and  C_21
REMARK                            x       y       z     vdW  Elec       q    Type
REMARK                         _______ _______ _______ _____ _____    ______ ____
ROOT
ATOM      1  N   UNL     1      -0.249  11.427  19.584  0.00  0.00    +0.000 N 
ATOM      2  C   UNL     1       0.847  11.606  18.756  0.00  0.00    +0.000 A 
ATOM      3  S   UNL     1       1.955  12.864  18.849  0.00  0.00    +0.000 S 
ATOM      4  N   UNL     1       1.152  10.500  17.987  0.00  0.00    +0.000 N 
ATOM      5  C   UNL     1       1.339   9.312  18.721  0.00  0.00    +0.000 A 
ATOM      6  C   UNL     1       2.158   8.325  18.180  0.00  0.00    +0.000 A 
ATOM      7  C   UNL     1       2.593   7.238  18.960  0.00  0.00    +0.000 A 
ATOM      8  C   UNL     1       2.171   7.187  20.298  0.00  0.00    +0.000 A 
ATOM      9  C   UNL     1       1.259   8.157  20.808  0.00  0.00    +0.000 A 
ATOM     10  C   UNL     1       0.816   9.220  20.003  0.00  0.00    +0.000 A 
ATOM     11  C   UNL     1      -0.181  10.297  20.421  0.00  0.00    +0.000 A 
ATOM     12  O   UNL     1      -0.823  10.146  21.458  0.00  0.00    +0.000 OA
ATOM     13  H   UNL     1       0.462  10.341  17.253  0.00  0.00    +0.000 HD
ENDROOT
BRANCH   7  14
ATOM     14  C   UNL     1       3.454   6.243  18.234  0.00  0.00    +0.000 C 
ATOM     15  O   UNL     1       3.757   6.498  17.067  0.00  0.00    +0.000 OA
ATOM     16  N   UNL     1       3.886   5.069  18.830  0.00  0.00    +0.000 N 
ATOM     17  H   UNL     1       3.883   4.961  19.835  0.00  0.00    +0.000 HD
BRANCH  16  18
ATOM     18  C   UNL     1       4.810   4.208  18.066  0.00  0.00    +0.000 C 
BRANCH  18  19
ATOM     19  C   UNL     1       6.286   4.614  18.110  0.00  0.00    +0.000 C 
ATOM     20  C   UNL     1       6.693   5.434  19.323  0.00  0.00    +0.000 C 
ATOM     21  C   UNL     1       7.849   6.245  18.792  0.00  0.00    +0.000 C 
ATOM     22  C   UNL     1       7.458   6.476  17.349  0.00  0.00    +0.000 C 
ATOM     23  O   UNL     1       6.634   5.378  16.942  0.00  0.00    +0.000 OA
ENDBRANCH  18  19
ENDBRANCH  16  18
ENDBRANCH   7  14
BRANCH   1  24
ATOM     24  C   UNL     1      -1.059  12.602  19.971  0.00  0.00    +0.000 C 
BRANCH  24  30
ATOM     25  C   UNL     1      -3.536  12.952  20.685  0.00  0.00    +0.000 A 
ATOM     26  C   UNL     1      -4.903  12.750  20.442  0.00  0.00    +0.000 A 
ATOM     27  C   UNL     1      -5.336  12.038  19.323  0.00  0.00    +0.000 A 
ATOM     28  C   UNL     1      -4.398  11.572  18.413  0.00  0.00    +0.000 A 
ATOM     29  C   UNL     1      -3.032  11.836  18.606  0.00  0.00    +0.000 A 
ATOM     30  C   UNL     1      -2.571  12.525  19.739  0.00  0.00    +0.000 A 
BRANCH  25  32
ATOM     31  C   UNL     1      -3.338  14.948  21.948  0.00  0.00    +0.000 C 
ATOM     32  O   UNL     1      -3.088  13.540  21.849  0.00  0.00    +0.000 OA
ENDBRANCH  25  32
ENDBRANCH  24  30
ENDBRANCH   1  24
TORSDOF 6
ENDMDL
MODEL 7
REMARK VINA RESULT:      -7.6      1.400      2.100
REMARK  Name = 
REMARK  7 active torsions:
REMARK  status: ('A' for Active; 'I' for Inactive)
REMARK    1  A    between atoms: C_1  and  O_2
REMARK    2  A    between atoms: O_2  and  C_3
REMARK    3  A    between atoms: C_8  and  C_9
REMARK    4  A    between atoms: C_9  and  N_10
REMARK    5  A    between atoms: C_16  and  C_17
REMARK    6  A    between atoms: N_19  and  C_20
REMARK    7  A    between atoms: C_20  and  C_21
REMARK                            x       y       z     vdW  Elec       q    Type
REMARK                         _______ _______ _______ _____ _____    ______ ____
ROOT
ATOM      1  N   UNL     1       0.008  11.030  19.115  0.00  0.00    +0.000 N 
ATOM      2  C   UNL     1       1.176  11.045  18.371  0.00  0.00    +0.000 A 
ATOM      3  S   UNL     1       2.317  12.277  18.355  0.00  0.00    +0.000 S 
ATOM      4  N   UNL     1       1.506   9.820  17.827  0.00  0.00    +0.000 N 
ATOM      5  C   UNL     1       1.587   8.768  18.760  0.00  0.00    +0.000 A 
ATOM      6  C   UNL     1       2.412   7.687  18.466  0.00  0.00    +0.000 A 
ATOM      7  C   UNL     1       2.740   6.737  19.450  0.00  0.00    +0.000 A 
ATOM      8  C   UNL     1       2.205   6.920  20.734  0.00  0.00    +0.000 A 
ATOM      9  C   UNL     1       1.288   7.980  20.994  0.00  0.00    +0.000 A 
ATOM     10  C   UNL     1       0.953   8.903  19.988  0.00  0.00    +0.000 A 
ATOM     11  C   UNL     1      -0.036  10.056  20.130  0.00  0.00    +0.000 A 
ATOM     12  O   UNL     1      -0.769  10.094  21.116  0.00  0.00    +0.000 OA
ATOM     13  H   UNL     1       0.876   9.555  17.070  0.00  0.00    +0.000 HD
ENDROOT
BRANCH   7  14
ATOM     14  C   UNL     1       3.624   5.616  18.979  0.00  0.00    +0.000 C 
ATOM     15  O   UNL     1       4.706   5.467  19.548  0.00  0.00    +0.000 OA
ATOM     16  N   UNL     1       3.261   4.783  17.933  0.00  0.00    +0.000 N 
ATOM     17  H   UNL     1       2.299   4.707  17.633  0.00  0.00    +0.000 HD
BRANCH  16  18
ATOM     18  C   UNL     1       4.153   3.650  17.613  0.00  0.00    +0.000 C 
BRANCH  18  19
ATOM     19  C   UNL     1       5.119   3.873  16.446  0.00  0.00    +0.000 C 
ATOM     20  C   UNL     1       6.535   4.254  16.848  0.00  0.00    +0.000 C 
ATOM     21  C   UNL     1       7.000   5.063  15.663  0.00  0.00    +0.000 C 
ATOM     22  C   UNL     1       5.729   5.748  15.209  0.00  0.00    +0.000 C 
ATOM     23  O   UNL     1       4.630   4.909  15.577  0.00  0.00    +0.000 OA
ENDBRANCH  18  19
ENDBRANCH  16  18
ENDBRANCH   7  14
BRANCH   1  24
ATOM     24  C   UNL     1      -0.789  12.270  19.229  0.00  0.00    +0.000 C 
BRANCH  24  30
ATOM     25  C   UNL     1      -3.016  11.692  18.013  0.00  0.00    +0.000 A 
ATOM     26  C   UNL     1      -4.418  11.700  17.993  0.00  0.00    +0.000 A 
ATOM     27  C   UNL     1      -5.148  12.240  19.053  0.00  0.00    +0.000 A 
ATOM     28  C   UNL     1      -4.471  12.725  20.162  0.00  0.00    +0.000 A 
ATOM     29  C   UNL     1      -3.070  12.650  20.226  0.00  0.00    +0.000 A 
ATOM     30  C   UNL     1      -2.314  12.139  19.160  0.00  0.00    +0.000 A 
BRANCH  25  32
ATOM     31  C   UNL     1      -2.318   9.872  16.664  0.00  0.00    +0.000 C 
ATOM     32  O   UNL     1      -2.280  11.282  16.921  0.00  0.00    +0.000 OA
ENDBRANCH  25  32
ENDBRANCH  24  30
ENDBRANCH   1  24
TORSDOF 6
ENDMDL
MODEL 8
REMARK VINA RESULT:      -7.6      0.963      1.087
REMARK  Name = 
REMARK  7 active torsions:
REMARK  status: ('A' for Active; 'I' for Inactive)
REMARK    1  A    between atoms: C_1  and  O_2
REMARK    2  A    between atoms: O_2  and  C_3
REMARK    3  A    between atoms: C_8  and  C_9
REMARK    4  A    between atoms: C_9  and  N_10
REMARK    5  A    between atoms: C_16  and  C_17
REMARK    6  A    between atoms: N_19  and  C_20
REMARK    7  A    between atoms: C_20  and  C_21
REMARK                            x       y       z     vdW  Elec       q    Type
REMARK                         _______ _______ _______ _____ _____    ______ ____
ROOT
ATOM      1  N   UNL     1       0.140  10.928  19.017  0.00  0.00    +0.000 N 
ATOM      2  C   UNL     1       1.278  10.909  18.229  0.00  0.00    +0.000 A 
ATOM      3  S   UNL     1       2.450  12.110  18.165  0.00  0.00    +0.000 S 
ATOM      4  N   UNL     1       1.554   9.674  17.676  0.00  0.00    +0.000 N 
ATOM      5  C   UNL     1       1.642   8.623  18.610  0.00  0.00    +0.000 A 
ATOM      6  C   UNL     1       2.427   7.519  18.288  0.00  0.00    +0.000 A 
ATOM      7  C   UNL     1       2.766   6.564  19.263  0.00  0.00    +0.000 A 
ATOM      8  C   UNL     1       2.285   6.764  20.566  0.00  0.00    +0.000 A 
ATOM      9  C   UNL     1       1.408   7.850  20.856  0.00  0.00    +0.000 A 
ATOM     10  C   UNL     1       1.060   8.778  19.860  0.00  0.00    +0.000 A 
ATOM     11  C   UNL     1       0.108   9.958  20.036  0.00  0.00    +0.000 A 
ATOM     12  O   UNL     1      -0.585  10.018  21.049  0.00  0.00    +0.000 OA
ATOM     13  H   UNL     1       0.888   9.424  16.945  0.00  0.00    +0.000 HD
ENDROOT
BRANCH   7  14
ATOM     14  C   UNL     1       3.601   5.418  18.762  0.00  0.00    +0.000 C 
ATOM     15  O   UNL     1       4.268   4.796  19.590  0.00  0.00    +0.000 OA
ATOM     16  N   UNL     1       3.646   5.071  17.421  0.00  0.00    +0.000 N 
ATOM     17  H   UNL     1       2.928   5.375  16.778  0.00  0.00    +0.000 HD
BRANCH  16  18
ATOM     18  C   UNL     1       4.416   3.868  17.046  0.00  0.00    +0.000 C 
BRANCH  18  19
ATOM     19  C   UNL     1       5.763   4.127  16.366  0.00  0.00    +0.000 C 
ATOM     20  C   UNL     1       5.982   5.554  15.892  0.00  0.00    +0.000 C 
ATOM     21  C   UNL     1       6.924   5.368  14.729  0.00  0.00    +0.000 C 
ATOM     22  C   UNL     1       6.485   4.039  14.155  0.00  0.00    +0.000 C 
ATOM     23  O   UNL     1       5.925   3.269  15.224  0.00  0.00    +0.000 OA
ENDBRANCH  18  19
ENDBRANCH  16  18
ENDBRANCH   7  14
BRANCH   1  24
ATOM     24  C   UNL     1      -0.619  12.189  19.156  0.00  0.00    +0.000 C 
BRANCH  24  30
ATOM     25  C   UNL     1      -3.131  12.411  19.797  0.00  0.00    +0.000 A 
ATOM     26  C   UNL     1      -4.483  12.251  19.457  0.00  0.00    +0.000 A 
ATOM     27  C   UNL     1      -4.855  11.738  18.214  0.00  0.00    +0.000 A 
ATOM     28  C   UNL     1      -3.870  11.435  17.285  0.00  0.00    +0.000 A 
ATOM     29  C   UNL     1      -2.517  11.664  17.587  0.00  0.00    +0.000 A 
ATOM     30  C   UNL     1      -2.118  12.151  18.841  0.00  0.00    +0.000 A 
BRANCH  25  32
ATOM     31  C   UNL     1      -3.797  12.800  22.038  0.00  0.00    +0.000 C 
ATOM     32  O   UNL     1      -2.745  12.792  21.065  0.00  0.00    +0.000 OA
ENDBRANCH  25  32
ENDBRANCH  24  30
ENDBRANCH   1  24
TORSDOF 6
ENDMDL
MODEL 9
REMARK VINA RESULT:      -7.5      1.187      2.051
REMARK  Name = 
REMARK  7 active torsions:
REMARK  status: ('A' for Active; 'I' for Inactive)
REMARK    1  A    between atoms: C_1  and  O_2
REMARK    2  A    between atoms: O_2  and  C_3
REMARK    3  A    between atoms: C_8  and  C_9
REMARK    4  A    between atoms: C_9  and  N_10
REMARK    5  A    between atoms: C_16  and  C_17
REMARK    6  A    between atoms: N_19  and  C_20
REMARK    7  A    between atoms: C_20  and  C_21
REMARK                            x       y       z     vdW  Elec       q    Type
REMARK                         _______ _______ _______ _____ _____    ______ ____
ROOT
ATOM      1  N   UNL     1       0.067  10.987  19.142  0.00  0.00    +0.000 N 
ATOM      2  C   UNL     1       1.212  10.993  18.364  0.00  0.00    +0.000 A 
ATOM      3  S   UNL     1       2.368  12.210  18.325  0.00  0.00    +0.000 S 
ATOM      4  N   UNL     1       1.510   9.769  17.799  0.00  0.00    +0.000 N 
ATOM      5  C   UNL     1       1.604   8.708  18.720  0.00  0.00    +0.000 A 
ATOM      6  C   UNL     1       2.406   7.618  18.392  0.00  0.00    +0.000 A 
ATOM      7  C   UNL     1       2.750   6.655  19.358  0.00  0.00    +0.000 A 
ATOM      8  C   UNL     1       2.255   6.833  20.659  0.00  0.00    +0.000 A 
ATOM      9  C   UNL     1       1.360   7.903  20.954  0.00  0.00    +0.000 A 
ATOM     10  C   UNL     1       1.008   8.839  19.967  0.00  0.00    +0.000 A 
ATOM     11  C   UNL     1       0.039  10.004  20.149  0.00  0.00    +0.000 A 
ATOM     12  O   UNL     1      -0.664  10.042  21.156  0.00  0.00    +0.000 OA
ATOM     13  H   UNL     1       0.854   9.519  17.059  0.00  0.00    +0.000 HD
ENDROOT
BRANCH   7  14
ATOM     14  C   UNL     1       3.604   5.528  18.850  0.00  0.00    +0.000 C 
ATOM     15  O   UNL     1       3.038   4.605  18.262  0.00  0.00    +0.000 OA
ATOM     16  N   UNL     1       4.976   5.499  19.041  0.00  0.00    +0.000 N 
ATOM     17  H   UNL     1       5.490   6.339  19.271  0.00  0.00    +0.000 HD
BRANCH  16  18
ATOM     18  C   UNL     1       5.737   4.399  18.416  0.00  0.00    +0.000 C 
BRANCH  18  19
ATOM     19  C   UNL     1       6.275   4.678  17.010  0.00  0.00    +0.000 C 
ATOM     20  C   UNL     1       5.793   5.975  16.381  0.00  0.00    +0.000 C 
ATOM     21  C   UNL     1       5.845   5.658  14.907  0.00  0.00    +0.000 C 
ATOM     22  C   UNL     1       5.498   4.186  14.871  0.00  0.00    +0.000 C 
ATOM     23  O   UNL     1       5.919   3.611  16.113  0.00  0.00    +0.000 OA
ENDBRANCH  18  19
ENDBRANCH  16  18
ENDBRANCH   7  14
BRANCH   1  24
ATOM     24  C   UNL     1      -0.711  12.236  19.290  0.00  0.00    +0.000 C 
BRANCH  24  30
ATOM     25  C   UNL     1      -2.943  11.611  18.108  0.00  0.00    +0.000 A 
ATOM     26  C   UNL     1      -4.345  11.647  18.079  0.00  0.00    +0.000 A 
ATOM     27  C   UNL     1      -5.069  12.281  19.090  0.00  0.00    +0.000 A 
ATOM     28  C   UNL     1      -4.387  12.836  20.163  0.00  0.00    +0.000 A 
ATOM     29  C   UNL     1      -2.987  12.738  20.241  0.00  0.00    +0.000 A 
ATOM     30  C   UNL     1      -2.237  12.131  19.222  0.00  0.00    +0.000 A 
BRANCH  25  32
ATOM     31  C   UNL     1      -2.927  11.002  15.818  0.00  0.00    +0.000 C 
ATOM     32  O   UNL     1      -2.211  11.104  17.056  0.00  0.00    +0.000 OA
ENDBRANCH  25  32
ENDBRANCH  24  30
ENDBRANCH   1  24
TORSDOF 6
ENDMDL
