MODEL 1
REMARK VINA RESULT:      -6.0      0.000      0.000
REMARK  Name = 
REMARK  18 active torsions:
REMARK  status: ('A' for Active; 'I' for Inactive)
REMARK    1  A    between atoms: C_1  and  C_2
REMARK    2  A    between atoms: C_2  and  C_3
REMARK    3  A    between atoms: C_3  and  C_4
REMARK    4  A    between atoms: C_4  and  C_5
REMARK    5  A    between atoms: C_5  and  C_6
REMARK    6  A    between atoms: C_6  and  C_7
REMARK    7  A    between atoms: C_7  and  O_8
REMARK    8  A    between atoms: C_7  and  C_9
REMARK    9  A    between atoms: C_9  and  C_10
REMARK   10  A    between atoms: C_11  and  C_12
REMARK   11  A    between atoms: C_12  and  C_13
REMARK   12  A    between atoms: C_13  and  C_14
REMARK   13  A    between atoms: C_14  and  C_15
REMARK   14  A    between atoms: C_15  and  C_16
REMARK   15  A    between atoms: C_16  and  C_17
REMARK   16  A    between atoms: C_17  and  C_18
REMARK   17  A    between atoms: C_18  and  C_19
REMARK   18  A    between atoms: C_19  and  O_21
REMARK                            x       y       z     vdW  Elec       q    Type
REMARK                         _______ _______ _______ _____ _____    ______ ____
ROOT
ATOM      1  C   UNL     1       5.046   5.288  19.016  0.00  0.00    +0.000 C 
ATOM      2  C   UNL     1       4.187   6.029  18.302  0.00  0.00    +0.000 C 
ENDROOT
BRANCH   2   3
ATOM      3  C   UNL     1       2.703   5.950  18.481  0.00  0.00    +0.000 C 
BRANCH   3   4
ATOM      4  C   UNL     1       2.291   6.420  19.872  0.00  0.00    +0.000 C 
BRANCH   4   5
ATOM      5  C   UNL     1       2.072   5.225  20.796  0.00  0.00    +0.000 C 
BRANCH   5   6
ATOM      6  C   UNL     1       0.914   4.366  20.303  0.00  0.00    +0.000 C 
BRANCH   6   7
ATOM      7  C   UNL     1       1.235   2.878  20.428  0.00  0.00    +0.000 C 
BRANCH   7   8
ATOM      8  C   UNL     1       2.718   2.628  20.170  0.00  0.00    +0.000 C 
BRANCH   8   9
ATOM      9  C   UNL     1       2.932   1.652  19.017  0.00  0.00    +0.000 C 
BRANCH   9  10
ATOM     10  C   UNL     1       3.114   2.380  17.708  0.00  0.00    +0.000 C 
ATOM     11  O   UNL     1       2.224   2.903  17.056  0.00  0.00    +0.000 OA
BRANCH  10  12
ATOM     12  O   UNL     1       4.407   2.399  17.307  0.00  0.00    +0.000 OA
ATOM     13  H   UNL     1       4.709   3.274  16.998  0.00  0.00    +0.000 HD
ENDBRANCH  10  12
ENDBRANCH   9  10
ENDBRANCH   8   9
ENDBRANCH   7   8
ENDBRANCH   6   7
ENDBRANCH   5   6
ENDBRANCH   4   5
ENDBRANCH   3   4
ENDBRANCH   2   3
BRANCH   1  14
ATOM     14  C   UNL     1       6.538   5.362  18.877  0.00  0.00    +0.000 C 
BRANCH  14  15
ATOM     15  C   UNL     1       7.033   4.666  17.602  0.00  0.00    +0.000 C 
BRANCH  15  16
ATOM     16  O   UNL     1       8.310   4.062  17.829  0.00  0.00    +0.000 OA
ATOM     17  H   UNL     1       8.881   4.278  17.073  0.00  0.00    +0.000 HD
ENDBRANCH  15  16
BRANCH  15  18
ATOM     18  C   UNL     1       7.154   5.680  16.462  0.00  0.00    +0.000 C 
BRANCH  18  19
ATOM     19  C   UNL     1       7.125   5.000  15.095  0.00  0.00    +0.000 C 
BRANCH  19  20
ATOM     20  C   UNL     1       5.701   4.911  14.551  0.00  0.00    +0.000 C 
BRANCH  20  21
ATOM     21  C   UNL     1       5.460   3.547  13.912  0.00  0.00    +0.000 C 
BRANCH  21  23
ATOM     22  C   UNL     1       4.579   3.218  11.585  0.00  0.00    +0.000 C 
ATOM     23  C   UNL     1       5.799   3.561  12.424  0.00  0.00    +0.000 C 
ENDBRANCH  21  23
ENDBRANCH  20  21
ENDBRANCH  19  20
ENDBRANCH  18  19
ENDBRANCH  15  18
ENDBRANCH  14  15
ENDBRANCH   1  14
TORSDOF 17
ENDMDL
MODEL 2
REMARK VINA RESULT:      -5.7      2.197      4.063
REMARK  Name = 
REMARK  18 active torsions:
REMARK  status: ('A' for Active; 'I' for Inactive)
REMARK    1  A    between atoms: C_1  and  C_2
REMARK    2  A    between atoms: C_2  and  C_3
REMARK    3  A    between atoms: C_3  and  C_4
REMARK    4  A    between atoms: C_4  and  C_5
REMARK    5  A    between atoms: C_5  and  C_6
REMARK    6  A    between atoms: C_6  and  C_7
REMARK    7  A    between atoms: C_7  and  O_8
REMARK    8  A    between atoms: C_7  and  C_9
REMARK    9  A    between atoms: C_9  and  C_10
REMARK   10  A    between atoms: C_11  and  C_12
REMARK   11  A    between atoms: C_12  and  C_13
REMARK   12  A    between atoms: C_13  and  C_14
REMARK   13  A    between atoms: C_14  and  C_15
REMARK   14  A    between atoms: C_15  and  C_16
REMARK   15  A    between atoms: C_16  and  C_17
REMARK   16  A    between atoms: C_17  and  C_18
REMARK   17  A    between atoms: C_18  and  C_19
REMARK   18  A    between atoms: C_19  and  O_21
REMARK                            x       y       z     vdW  Elec       q    Type
REMARK                         _______ _______ _______ _____ _____    ______ ____
ROOT
ATOM      1  C   UNL     1       4.123   6.094  16.734  0.00  0.00    +0.000 C 
ATOM      2  C   UNL     1       4.036   7.297  17.319  0.00  0.00    +0.000 C 
ENDROOT
BRANCH   2   3
ATOM      3  C   UNL     1       2.772   7.813  17.932  0.00  0.00    +0.000 C 
BRANCH   3   4
ATOM      4  C   UNL     1       1.966   6.683  18.563  0.00  0.00    +0.000 C 
BRANCH   4   5
ATOM      5  C   UNL     1       2.323   6.532  20.039  0.00  0.00    +0.000 C 
BRANCH   5   6
ATOM      6  C   UNL     1       2.514   5.064  20.402  0.00  0.00    +0.000 C 
BRANCH   6   7
ATOM      7  C   UNL     1       1.179   4.321  20.430  0.00  0.00    +0.000 C 
BRANCH   7   8
ATOM      8  C   UNL     1       1.409   2.813  20.377  0.00  0.00    +0.000 C 
BRANCH   8   9
ATOM      9  C   UNL     1       1.003   2.228  19.028  0.00  0.00    +0.000 C 
BRANCH   9  10
ATOM     10  C   UNL     1       2.101   2.391  18.006  0.00  0.00    +0.000 C 
ATOM     11  O   UNL     1       2.127   3.228  17.119  0.00  0.00    +0.000 OA
BRANCH  10  12
ATOM     12  O   UNL     1       3.094   1.485  18.171  0.00  0.00    +0.000 OA
ATOM     13  H   UNL     1       3.970   1.806  17.887  0.00  0.00    +0.000 HD
ENDBRANCH  10  12
ENDBRANCH   9  10
ENDBRANCH   8   9
ENDBRANCH   7   8
ENDBRANCH   6   7
ENDBRANCH   5   6
ENDBRANCH   4   5
ENDBRANCH   3   4
ENDBRANCH   2   3
BRANCH   1  14
ATOM     14  C   UNL     1       5.380   5.540  16.133  0.00  0.00    +0.000 C 
BRANCH  14  15
ATOM     15  C   UNL     1       5.986   4.422  16.992  0.00  0.00    +0.000 C 
BRANCH  15  16
ATOM     16  O   UNL     1       5.071   4.035  18.022  0.00  0.00    +0.000 OA
ATOM     17  H   UNL     1       4.558   3.277  17.696  0.00  0.00    +0.000 HD
ENDBRANCH  15  16
BRANCH  15  18
ATOM     18  C   UNL     1       7.291   4.900  17.635  0.00  0.00    +0.000 C 
BRANCH  18  19
ATOM     19  C   UNL     1       7.653   6.316  17.192  0.00  0.00    +0.000 C 
BRANCH  19  20
ATOM     20  C   UNL     1       7.901   7.225  18.392  0.00  0.00    +0.000 C 
BRANCH  20  21
ATOM     21  C   UNL     1       7.993   8.682  17.948  0.00  0.00    +0.000 C 
BRANCH  21  23
ATOM     22  C   UNL     1       9.193  10.863  18.266  0.00  0.00    +0.000 C 
ATOM     23  C   UNL     1       8.943   9.478  18.839  0.00  0.00    +0.000 C 
ENDBRANCH  21  23
ENDBRANCH  20  21
ENDBRANCH  19  20
ENDBRANCH  18  19
ENDBRANCH  15  18
ENDBRANCH  14  15
ENDBRANCH   1  14
TORSDOF 17
ENDMDL
MODEL 3
REMARK VINA RESULT:      -5.6      4.066      6.742
REMARK  Name = 
REMARK  18 active torsions:
REMARK  status: ('A' for Active; 'I' for Inactive)
REMARK    1  A    between atoms: C_1  and  C_2
REMARK    2  A    between atoms: C_2  and  C_3
REMARK    3  A    between atoms: C_3  and  C_4
REMARK    4  A    between atoms: C_4  and  C_5
REMARK    5  A    between atoms: C_5  and  C_6
REMARK    6  A    between atoms: C_6  and  C_7
REMARK    7  A    between atoms: C_7  and  O_8
REMARK    8  A    between atoms: C_7  and  C_9
REMARK    9  A    between atoms: C_9  and  C_10
REMARK   10  A    between atoms: C_11  and  C_12
REMARK   11  A    between atoms: C_12  and  C_13
REMARK   12  A    between atoms: C_13  and  C_14
REMARK   13  A    between atoms: C_14  and  C_15
REMARK   14  A    between atoms: C_15  and  C_16
REMARK   15  A    between atoms: C_16  and  C_17
REMARK   16  A    between atoms: C_17  and  C_18
REMARK   17  A    between atoms: C_18  and  C_19
REMARK   18  A    between atoms: C_19  and  O_21
REMARK                            x       y       z     vdW  Elec       q    Type
REMARK                         _______ _______ _______ _____ _____    ______ ____
ROOT
ATOM      1  C   UNL     1       4.864   5.439  17.350  0.00  0.00    +0.000 C 
ATOM      2  C   UNL     1       3.707   6.064  17.604  0.00  0.00    +0.000 C 
ENDROOT
BRANCH   2   3
ATOM      3  C   UNL     1       3.539   7.546  17.473  0.00  0.00    +0.000 C 
BRANCH   3   4
ATOM      4  C   UNL     1       2.392   8.050  18.342  0.00  0.00    +0.000 C 
BRANCH   4   5
ATOM      5  C   UNL     1       1.780   9.312  17.740  0.00  0.00    +0.000 C 
BRANCH   5   6
ATOM      6  C   UNL     1       1.348  10.279  18.835  0.00  0.00    +0.000 C 
BRANCH   6   7
ATOM      7  C   UNL     1       0.170   9.724  19.633  0.00  0.00    +0.000 C 
BRANCH   7   8
ATOM      8  C   UNL     1       0.649   9.164  20.970  0.00  0.00    +0.000 C 
BRANCH   8   9
ATOM      9  C   UNL     1      -0.514   8.923  21.928  0.00  0.00    +0.000 C 
BRANCH   9  10
ATOM     10  C   UNL     1      -0.371   9.749  23.183  0.00  0.00    +0.000 C 
ATOM     11  O   UNL     1       0.485   9.597  24.039  0.00  0.00    +0.000 OA
BRANCH  10  12
ATOM     12  O   UNL     1      -1.319  10.712  23.274  0.00  0.00    +0.000 OA
ATOM     13  H   UNL     1      -2.110  10.537  22.732  0.00  0.00    +0.000 HD
ENDBRANCH  10  12
ENDBRANCH   9  10
ENDBRANCH   8   9
ENDBRANCH   7   8
ENDBRANCH   6   7
ENDBRANCH   5   6
ENDBRANCH   4   5
ENDBRANCH   3   4
ENDBRANCH   2   3
BRANCH   1  14
ATOM     14  C   UNL     1       5.057   3.955  17.449  0.00  0.00    +0.000 C 
BRANCH  14  15
ATOM     15  C   UNL     1       4.368   3.365  18.687  0.00  0.00    +0.000 C 
BRANCH  15  16
ATOM     16  O   UNL     1       5.335   3.058  19.696  0.00  0.00    +0.000 OA
ATOM     17  H   UNL     1       4.888   2.550  20.393  0.00  0.00    +0.000 HD
ENDBRANCH  15  16
BRANCH  15  18
ATOM     18  C   UNL     1       3.614   2.087  18.310  0.00  0.00    +0.000 C 
BRANCH  18  19
ATOM     19  C   UNL     1       2.352   2.392  17.507  0.00  0.00    +0.000 C 
BRANCH  19  20
ATOM     20  C   UNL     1       1.470   3.408  18.228  0.00  0.00    +0.000 C 
BRANCH  20  21
ATOM     21  C   UNL     1       0.877   2.797  19.494  0.00  0.00    +0.000 C 
BRANCH  21  23
ATOM     22  C   UNL     1       2.116   2.931  21.672  0.00  0.00    +0.000 C 
ATOM     23  C   UNL     1       1.178   3.655  20.720  0.00  0.00    +0.000 C 
ENDBRANCH  21  23
ENDBRANCH  20  21
ENDBRANCH  19  20
ENDBRANCH  18  19
ENDBRANCH  15  18
ENDBRANCH  14  15
ENDBRANCH   1  14
TORSDOF 17
ENDMDL
MODEL 4
REMARK VINA RESULT:      -5.6      1.496      1.821
REMARK  Name = 
REMARK  18 active torsions:
REMARK  status: ('A' for Active; 'I' for Inactive)
REMARK    1  A    between atoms: C_1  and  C_2
REMARK    2  A    between atoms: C_2  and  C_3
REMARK    3  A    between atoms: C_3  and  C_4
REMARK    4  A    between atoms: C_4  and  C_5
REMARK    5  A    between atoms: C_5  and  C_6
REMARK    6  A    between atoms: C_6  and  C_7
REMARK    7  A    between atoms: C_7  and  O_8
REMARK    8  A    between atoms: C_7  and  C_9
REMARK    9  A    between atoms: C_9  and  C_10
REMARK   10  A    between atoms: C_11  and  C_12
REMARK   11  A    between atoms: C_12  and  C_13
REMARK   12  A    between atoms: C_13  and  C_14
REMARK   13  A    between atoms: C_14  and  C_15
REMARK   14  A    between atoms: C_15  and  C_16
REMARK   15  A    between atoms: C_16  and  C_17
REMARK   16  A    between atoms: C_17  and  C_18
REMARK   17  A    between atoms: C_18  and  C_19
REMARK   18  A    between atoms: C_19  and  O_21
REMARK                            x       y       z     vdW  Elec       q    Type
REMARK                         _______ _______ _______ _____ _____    ______ ____
ROOT
ATOM      1  C   UNL     1       4.539   6.779  17.716  0.00  0.00    +0.000 C 
ATOM      2  C   UNL     1       3.319   6.225  17.747  0.00  0.00    +0.000 C 
ENDROOT
BRANCH   2   3
ATOM      3  C   UNL     1       2.173   6.828  18.498  0.00  0.00    +0.000 C 
BRANCH   3   4
ATOM      4  C   UNL     1       2.426   6.805  20.001  0.00  0.00    +0.000 C 
BRANCH   4   5
ATOM      5  C   UNL     1       1.419   5.895  20.699  0.00  0.00    +0.000 C 
BRANCH   5   6
ATOM      6  C   UNL     1       2.002   4.504  20.910  0.00  0.00    +0.000 C 
BRANCH   6   7
ATOM      7  C   UNL     1       1.036   3.418  20.439  0.00  0.00    +0.000 C 
BRANCH   7   8
ATOM      8  C   UNL     1       1.747   2.438  19.511  0.00  0.00    +0.000 C 
BRANCH   8   9
ATOM      9  C   UNL     1       3.132   2.942  19.115  0.00  0.00    +0.000 C 
BRANCH   9  10
ATOM     10  C   UNL     1       4.197   1.920  19.425  0.00  0.00    +0.000 C 
ATOM     11  O   UNL     1       4.999   1.986  20.343  0.00  0.00    +0.000 OA
BRANCH  10  12
ATOM     12  O   UNL     1       4.182   0.881  18.557  0.00  0.00    +0.000 OA
ATOM     13  H   UNL     1       4.726   1.027  17.760  0.00  0.00    +0.000 HD
ENDBRANCH  10  12
ENDBRANCH   9  10
ENDBRANCH   8   9
ENDBRANCH   7   8
ENDBRANCH   6   7
ENDBRANCH   5   6
ENDBRANCH   4   5
ENDBRANCH   3   4
ENDBRANCH   2   3
BRANCH   1  14
ATOM     14  C   UNL     1       5.700   6.213  16.954  0.00  0.00    +0.000 C 
BRANCH  14  15
ATOM     15  C   UNL     1       5.528   4.714  16.671  0.00  0.00    +0.000 C 
BRANCH  15  16
ATOM     16  O   UNL     1       6.748   4.015  16.935  0.00  0.00    +0.000 OA
ATOM     17  H   UNL     1       6.670   3.124  16.554  0.00  0.00    +0.000 HD
ENDBRANCH  15  16
BRANCH  15  18
ATOM     18  C   UNL     1       5.133   4.498  15.207  0.00  0.00    +0.000 C 
BRANCH  18  19
ATOM     19  C   UNL     1       6.194   5.037  14.250  0.00  0.00    +0.000 C 
BRANCH  19  20
ATOM     20  C   UNL     1       6.922   3.902  13.536  0.00  0.00    +0.000 C 
BRANCH  20  21
ATOM     21  C   UNL     1       6.487   3.825  12.075  0.00  0.00    +0.000 C 
BRANCH  21  23
ATOM     22  C   UNL     1       4.196   3.156  11.300  0.00  0.00    +0.000 C 
ATOM     23  C   UNL     1       5.528   2.661  11.840  0.00  0.00    +0.000 C 
ENDBRANCH  21  23
ENDBRANCH  20  21
ENDBRANCH  19  20
ENDBRANCH  18  19
ENDBRANCH  15  18
ENDBRANCH  14  15
ENDBRANCH   1  14
TORSDOF 17
ENDMDL
MODEL 5
REMARK VINA RESULT:      -5.5      2.128      6.533
REMARK  Name = 
REMARK  18 active torsions:
REMARK  status: ('A' for Active; 'I' for Inactive)
REMARK    1  A    between atoms: C_1  and  C_2
REMARK    2  A    between atoms: C_2  and  C_3
REMARK    3  A    between atoms: C_3  and  C_4
REMARK    4  A    between atoms: C_4  and  C_5
REMARK    5  A    between atoms: C_5  and  C_6
REMARK    6  A    between atoms: C_6  and  C_7
REMARK    7  A    between atoms: C_7  and  O_8
REMARK    8  A    between atoms: C_7  and  C_9
REMARK    9  A    between atoms: C_9  and  C_10
REMARK   10  A    between atoms: C_11  and  C_12
REMARK   11  A    between atoms: C_12  and  C_13
REMARK   12  A    between atoms: C_13  and  C_14
REMARK   13  A    between atoms: C_14  and  C_15
REMARK   14  A    between atoms: C_15  and  C_16
REMARK   15  A    between atoms: C_16  and  C_17
REMARK   16  A    between atoms: C_17  and  C_18
REMARK   17  A    between atoms: C_18  and  C_19
REMARK   18  A    between atoms: C_19  and  O_21
REMARK                            x       y       z     vdW  Elec       q    Type
REMARK                         _______ _______ _______ _____ _____    ______ ____
ROOT
ATOM      1  C   UNL     1       4.257   4.273  17.803  0.00  0.00    +0.000 C 
ATOM      2  C   UNL     1       5.258   4.391  18.686  0.00  0.00    +0.000 C 
ENDROOT
BRANCH   2   3
ATOM      3  C   UNL     1       6.003   5.672  18.902  0.00  0.00    +0.000 C 
BRANCH   3   4
ATOM      4  C   UNL     1       6.955   5.956  17.745  0.00  0.00    +0.000 C 
BRANCH   4   5
ATOM      5  C   UNL     1       7.336   4.660  17.036  0.00  0.00    +0.000 C 
BRANCH   5   6
ATOM      6  C   UNL     1       7.144   4.790  15.530  0.00  0.00    +0.000 C 
BRANCH   6   7
ATOM      7  C   UNL     1       6.281   3.656  14.980  0.00  0.00    +0.000 C 
BRANCH   7   8
ATOM      8  C   UNL     1       5.583   4.093  13.695  0.00  0.00    +0.000 C 
BRANCH   8   9
ATOM      9  C   UNL     1       6.319   3.592  12.456  0.00  0.00    +0.000 C 
BRANCH   9  10
ATOM     10  C   UNL     1       5.482   2.601  11.684  0.00  0.00    +0.000 C 
ATOM     11  O   UNL     1       5.870   1.525  11.258  0.00  0.00    +0.000 OA
BRANCH  10  12
ATOM     12  O   UNL     1       4.212   3.033  11.502  0.00  0.00    +0.000 OA
ATOM     13  H   UNL     1       4.097   3.989  11.656  0.00  0.00    +0.000 HD
ENDBRANCH  10  12
ENDBRANCH   9  10
ENDBRANCH   8   9
ENDBRANCH   7   8
ENDBRANCH   6   7
ENDBRANCH   5   6
ENDBRANCH   4   5
ENDBRANCH   3   4
ENDBRANCH   2   3
BRANCH   1  14
ATOM     14  C   UNL     1       3.476   3.011  17.581  0.00  0.00    +0.000 C 
BRANCH  14  15
ATOM     15  C   UNL     1       3.684   1.998  18.715  0.00  0.00    +0.000 C 
BRANCH  15  16
ATOM     16  O   UNL     1       4.020   0.714  18.180  0.00  0.00    +0.000 OA
ATOM     17  H   UNL     1       4.957   0.546  18.373  0.00  0.00    +0.000 HD
ENDBRANCH  15  16
BRANCH  15  18
ATOM     18  C   UNL     1       2.406   1.874  19.551  0.00  0.00    +0.000 C 
BRANCH  18  19
ATOM     19  C   UNL     1       1.177   2.343  18.776  0.00  0.00    +0.000 C 
BRANCH  19  20
ATOM     20  C   UNL     1       0.851   3.802  19.086  0.00  0.00    +0.000 C 
BRANCH  20  21
ATOM     21  C   UNL     1       0.953   4.063  20.585  0.00  0.00    +0.000 C 
BRANCH  21  23
ATOM     22  C   UNL     1       2.078   6.278  20.227  0.00  0.00    +0.000 C 
ATOM     23  C   UNL     1       2.166   4.928  20.919  0.00  0.00    +0.000 C 
ENDBRANCH  21  23
ENDBRANCH  20  21
ENDBRANCH  19  20
ENDBRANCH  18  19
ENDBRANCH  15  18
ENDBRANCH  14  15
ENDBRANCH   1  14
TORSDOF 17
ENDMDL
MODEL 6
REMARK VINA RESULT:      -5.5      2.029      3.118
REMARK  Name = 
REMARK  18 active torsions:
REMARK  status: ('A' for Active; 'I' for Inactive)
REMARK    1  A    between atoms: C_1  and  C_2
REMARK    2  A    between atoms: C_2  and  C_3
REMARK    3  A    between atoms: C_3  and  C_4
REMARK    4  A    between atoms: C_4  and  C_5
REMARK    5  A    between atoms: C_5  and  C_6
REMARK    6  A    between atoms: C_6  and  C_7
REMARK    7  A    between atoms: C_7  and  O_8
REMARK    8  A    between atoms: C_7  and  C_9
REMARK    9  A    between atoms: C_9  and  C_10
REMARK   10  A    between atoms: C_11  and  C_12
REMARK   11  A    between atoms: C_12  and  C_13
REMARK   12  A    between atoms: C_13  and  C_14
REMARK   13  A    between atoms: C_14  and  C_15
REMARK   14  A    between atoms: C_15  and  C_16
REMARK   15  A    between atoms: C_16  and  C_17
REMARK   16  A    between atoms: C_17  and  C_18
REMARK   17  A    between atoms: C_18  and  C_19
REMARK   18  A    between atoms: C_19  and  O_21
REMARK                            x       y       z     vdW  Elec       q    Type
REMARK                         _______ _______ _______ _____ _____    ______ ____
ROOT
ATOM      1  C   UNL     1       4.683   4.292  18.247  0.00  0.00    +0.000 C 
ATOM      2  C   UNL     1       4.977   3.492  19.282  0.00  0.00    +0.000 C 
ENDROOT
BRANCH   2   3
ATOM      3  C   UNL     1       4.168   2.280  19.625  0.00  0.00    +0.000 C 
BRANCH   3   4
ATOM      4  C   UNL     1       3.301   1.845  18.449  0.00  0.00    +0.000 C 
BRANCH   4   5
ATOM      5  C   UNL     1       1.834   2.168  18.719  0.00  0.00    +0.000 C 
BRANCH   5   6
ATOM      6  C   UNL     1       1.618   2.516  20.187  0.00  0.00    +0.000 C 
BRANCH   6   7
ATOM      7  C   UNL     1       0.827   3.813  20.340  0.00  0.00    +0.000 C 
BRANCH   7   8
ATOM      8  C   UNL     1       1.773   5.006  20.434  0.00  0.00    +0.000 C 
BRANCH   8   9
ATOM      9  C   UNL     1       1.861   5.762  19.111  0.00  0.00    +0.000 C 
BRANCH   9  10
ATOM     10  C   UNL     1       2.325   7.182  19.320  0.00  0.00    +0.000 C 
ATOM     11  O   UNL     1       2.819   7.900  18.465  0.00  0.00    +0.000 OA
BRANCH  10  12
ATOM     12  O   UNL     1       2.135   7.603  20.592  0.00  0.00    +0.000 OA
ATOM     13  H   UNL     1       2.163   6.885  21.252  0.00  0.00    +0.000 HD
ENDBRANCH  10  12
ENDBRANCH   9  10
ENDBRANCH   8   9
ENDBRANCH   7   8
ENDBRANCH   6   7
ENDBRANCH   5   6
ENDBRANCH   4   5
ENDBRANCH   3   4
ENDBRANCH   2   3
BRANCH   1  14
ATOM     14  C   UNL     1       5.488   5.499  17.863  0.00  0.00    +0.000 C 
BRANCH  14  15
ATOM     15  C   UNL     1       6.993   5.274  18.059  0.00  0.00    +0.000 C 
BRANCH  15  16
ATOM     16  O   UNL     1       7.664   6.526  18.238  0.00  0.00    +0.000 OA
ATOM     17  H   UNL     1       7.142   7.210  17.787  0.00  0.00    +0.000 HD
ENDBRANCH  15  16
BRANCH  15  18
ATOM     18  C   UNL     1       7.582   4.559  16.840  0.00  0.00    +0.000 C 
BRANCH  18  19
ATOM     19  C   UNL     1       6.895   4.991  15.546  0.00  0.00    +0.000 C 
BRANCH  19  20
ATOM     20  C   UNL     1       6.259   3.800  14.834  0.00  0.00    +0.000 C 
BRANCH  20  21
ATOM     21  C   UNL     1       5.531   4.259  13.573  0.00  0.00    +0.000 C 
BRANCH  21  23
ATOM     22  C   UNL     1       4.576   3.128  11.548  0.00  0.00    +0.000 C 
ATOM     23  C   UNL     1       5.821   3.334  12.394  0.00  0.00    +0.000 C 
ENDBRANCH  21  23
ENDBRANCH  20  21
ENDBRANCH  19  20
ENDBRANCH  18  19
ENDBRANCH  15  18
ENDBRANCH  14  15
ENDBRANCH   1  14
TORSDOF 17
ENDMDL
MODEL 7
REMARK VINA RESULT:      -5.5      1.117      1.615
REMARK  Name = 
REMARK  18 active torsions:
REMARK  status: ('A' for Active; 'I' for Inactive)
REMARK    1  A    between atoms: C_1  and  C_2
REMARK    2  A    between atoms: C_2  and  C_3
REMARK    3  A    between atoms: C_3  and  C_4
REMARK    4  A    between atoms: C_4  and  C_5
REMARK    5  A    between atoms: C_5  and  C_6
REMARK    6  A    between atoms: C_6  and  C_7
REMARK    7  A    between atoms: C_7  and  O_8
REMARK    8  A    between atoms: C_7  and  C_9
REMARK    9  A    between atoms: C_9  and  C_10
REMARK   10  A    between atoms: C_11  and  C_12
REMARK   11  A    between atoms: C_12  and  C_13
REMARK   12  A    between atoms: C_13  and  C_14
REMARK   13  A    between atoms: C_14  and  C_15
REMARK   14  A    between atoms: C_15  and  C_16
REMARK   15  A    between atoms: C_16  and  C_17
REMARK   16  A    between atoms: C_17  and  C_18
REMARK   17  A    between atoms: C_18  and  C_19
REMARK   18  A    between atoms: C_19  and  O_21
REMARK                            x       y       z     vdW  Elec       q    Type
REMARK                         _______ _______ _______ _____ _____    ______ ____
ROOT
ATOM      1  C   UNL     1       4.986   6.097  17.395  0.00  0.00    +0.000 C 
ATOM      2  C   UNL     1       3.681   5.796  17.402  0.00  0.00    +0.000 C 
ENDROOT
BRANCH   2   3
ATOM      3  C   UNL     1       2.789   6.077  18.571  0.00  0.00    +0.000 C 
BRANCH   3   4
ATOM      4  C   UNL     1       3.482   5.738  19.886  0.00  0.00    +0.000 C 
BRANCH   4   5
ATOM      5  C   UNL     1       2.584   4.859  20.752  0.00  0.00    +0.000 C 
BRANCH   5   6
ATOM      6  C   UNL     1       1.171   4.805  20.185  0.00  0.00    +0.000 C 
BRANCH   6   7
ATOM      7  C   UNL     1       0.707   3.363  19.984  0.00  0.00    +0.000 C 
BRANCH   7   8
ATOM      8  C   UNL     1       1.871   2.397  20.184  0.00  0.00    +0.000 C 
BRANCH   8   9
ATOM      9  C   UNL     1       2.097   1.525  18.953  0.00  0.00    +0.000 C 
BRANCH   9  10
ATOM     10  C   UNL     1       2.787   2.296  17.854  0.00  0.00    +0.000 C 
ATOM     11  O   UNL     1       2.231   2.852  16.920  0.00  0.00    +0.000 OA
BRANCH  10  12
ATOM     12  O   UNL     1       4.132   2.313  18.006  0.00  0.00    +0.000 OA
ATOM     13  H   UNL     1       4.531   3.194  17.876  0.00  0.00    +0.000 HD
ENDBRANCH  10  12
ENDBRANCH   9  10
ENDBRANCH   8   9
ENDBRANCH   7   8
ENDBRANCH   6   7
ENDBRANCH   5   6
ENDBRANCH   4   5
ENDBRANCH   3   4
ENDBRANCH   2   3
BRANCH   1  14
ATOM     14  C   UNL     1       5.900   5.851  16.232  0.00  0.00    +0.000 C 
BRANCH  14  15
ATOM     15  C   UNL     1       6.580   4.478  16.313  0.00  0.00    +0.000 C 
BRANCH  15  16
ATOM     16  O   UNL     1       7.777   4.560  17.093  0.00  0.00    +0.000 OA
ATOM     17  H   UNL     1       8.503   4.188  16.565  0.00  0.00    +0.000 HD
ENDBRANCH  15  16
BRANCH  15  18
ATOM     18  C   UNL     1       6.931   3.981  14.908  0.00  0.00    +0.000 C 
BRANCH  18  19
ATOM     19  C   UNL     1       5.772   4.177  13.933  0.00  0.00    +0.000 C 
BRANCH  19  20
ATOM     20  C   UNL     1       6.166   3.769  12.516  0.00  0.00    +0.000 C 
BRANCH  20  21
ATOM     21  C   UNL     1       5.155   2.778  11.946  0.00  0.00    +0.000 C 
BRANCH  21  23
ATOM     22  C   UNL     1       7.341   1.896  11.087  0.00  0.00    +0.000 C 
ATOM     23  C   UNL     1       5.849   1.637  11.207  0.00  0.00    +0.000 C 
ENDBRANCH  21  23
ENDBRANCH  20  21
ENDBRANCH  19  20
ENDBRANCH  18  19
ENDBRANCH  15  18
ENDBRANCH  14  15
ENDBRANCH   1  14
TORSDOF 17
ENDMDL
MODEL 8
REMARK VINA RESULT:      -5.5      3.772      5.628
REMARK  Name = 
REMARK  18 active torsions:
REMARK  status: ('A' for Active; 'I' for Inactive)
REMARK    1  A    between atoms: C_1  and  C_2
REMARK    2  A    between atoms: C_2  and  C_3
REMARK    3  A    between atoms: C_3  and  C_4
REMARK    4  A    between atoms: C_4  and  C_5
REMARK    5  A    between atoms: C_5  and  C_6
REMARK    6  A    between atoms: C_6  and  C_7
REMARK    7  A    between atoms: C_7  and  O_8
REMARK    8  A    between atoms: C_7  and  C_9
REMARK    9  A    between atoms: C_9  and  C_10
REMARK   10  A    between atoms: C_11  and  C_12
REMARK   11  A    between atoms: C_12  and  C_13
REMARK   12  A    between atoms: C_13  and  C_14
REMARK   13  A    between atoms: C_14  and  C_15
REMARK   14  A    between atoms: C_15  and  C_16
REMARK   15  A    between atoms: C_16  and  C_17
REMARK   16  A    between atoms: C_17  and  C_18
REMARK   17  A    between atoms: C_18  and  C_19
REMARK   18  A    between atoms: C_19  and  O_21
REMARK                            x       y       z     vdW  Elec       q    Type
REMARK                         _______ _______ _______ _____ _____    ______ ____
ROOT
ATOM      1  C   UNL     1       5.618   4.722  18.203  0.00  0.00    +0.000 C 
ATOM      2  C   UNL     1       5.047   4.255  17.084  0.00  0.00    +0.000 C 
ENDROOT
BRANCH   2   3
ATOM      3  C   UNL     1       3.631   3.772  17.036  0.00  0.00    +0.000 C 
BRANCH   3   4
ATOM      4  C   UNL     1       3.343   2.797  18.173  0.00  0.00    +0.000 C 
BRANCH   4   5
ATOM      5  C   UNL     1       1.856   2.457  18.220  0.00  0.00    +0.000 C 
BRANCH   5   6
ATOM      6  C   UNL     1       1.232   2.936  19.525  0.00  0.00    +0.000 C 
BRANCH   6   7
ATOM      7  C   UNL     1       2.238   3.718  20.367  0.00  0.00    +0.000 C 
BRANCH   7   8
ATOM      8  C   UNL     1       1.733   5.136  20.619  0.00  0.00    +0.000 C 
BRANCH   8   9
ATOM      9  C   UNL     1       2.426   6.149  19.712  0.00  0.00    +0.000 C 
BRANCH   9  10
ATOM     10  C   UNL     1       1.979   7.557  20.018  0.00  0.00    +0.000 C 
ATOM     11  O   UNL     1       1.800   8.440  19.195  0.00  0.00    +0.000 OA
BRANCH  10  12
ATOM     12  O   UNL     1       1.786   7.757  21.343  0.00  0.00    +0.000 OA
ATOM     13  H   UNL     1       2.015   8.657  21.642  0.00  0.00    +0.000 HD
ENDBRANCH  10  12
ENDBRANCH   9  10
ENDBRANCH   8   9
ENDBRANCH   7   8
ENDBRANCH   6   7
ENDBRANCH   5   6
ENDBRANCH   4   5
ENDBRANCH   3   4
ENDBRANCH   2   3
BRANCH   1  14
ATOM     14  C   UNL     1       7.025   5.236  18.278  0.00  0.00    +0.000 C 
BRANCH  14  15
ATOM     15  C   UNL     1       7.169   6.621  17.632  0.00  0.00    +0.000 C 
BRANCH  15  16
ATOM     16  O   UNL     1       7.630   6.495  16.283  0.00  0.00    +0.000 OA
ATOM     17  H   UNL     1       6.852   6.385  15.711  0.00  0.00    +0.000 HD
ENDBRANCH  15  16
BRANCH  15  18
ATOM     18  C   UNL     1       8.165   7.471  18.425  0.00  0.00    +0.000 C 
BRANCH  18  19
ATOM     19  C   UNL     1       8.186   8.918  17.938  0.00  0.00    +0.000 C 
BRANCH  19  20
ATOM     20  C   UNL     1       8.989   9.808  18.884  0.00  0.00    +0.000 C 
BRANCH  20  21
ATOM     21  C   UNL     1       9.654  10.943  18.111  0.00  0.00    +0.000 C 
BRANCH  21  23
ATOM     22  C   UNL     1       9.307  13.424  17.960  0.00  0.00    +0.000 C 
ATOM     23  C   UNL     1       8.661  12.058  17.794  0.00  0.00    +0.000 C 
ENDBRANCH  21  23
ENDBRANCH  20  21
ENDBRANCH  19  20
ENDBRANCH  18  19
ENDBRANCH  15  18
ENDBRANCH  14  15
ENDBRANCH   1  14
TORSDOF 17
ENDMDL
MODEL 9
REMARK VINA RESULT:      -5.5      4.853      8.783
REMARK  Name = 
REMARK  18 active torsions:
REMARK  status: ('A' for Active; 'I' for Inactive)
REMARK    1  A    between atoms: C_1  and  C_2
REMARK    2  A    between atoms: C_2  and  C_3
REMARK    3  A    between atoms: C_3  and  C_4
REMARK    4  A    between atoms: C_4  and  C_5
REMARK    5  A    between atoms: C_5  and  C_6
REMARK    6  A    between atoms: C_6  and  C_7
REMARK    7  A    between atoms: C_7  and  O_8
REMARK    8  A    between atoms: C_7  and  C_9
REMARK    9  A    between atoms: C_9  and  C_10
REMARK   10  A    between atoms: C_11  and  C_12
REMARK   11  A    between atoms: C_12  and  C_13
REMARK   12  A    between atoms: C_13  and  C_14
REMARK   13  A    between atoms: C_14  and  C_15
REMARK   14  A    between atoms: C_15  and  C_16
REMARK   15  A    between atoms: C_16  and  C_17
REMARK   16  A    between atoms: C_17  and  C_18
REMARK   17  A    between atoms: C_18  and  C_19
REMARK   18  A    between atoms: C_19  and  O_21
REMARK                            x       y       z     vdW  Elec       q    Type
REMARK                         _______ _______ _______ _____ _____    ______ ____
ROOT
ATOM      1  C   UNL     1       6.080   5.331  18.720  0.00  0.00    +0.000 C 
ATOM      2  C   UNL     1       7.306   5.639  18.276  0.00  0.00    +0.000 C 
ENDROOT
BRANCH   2   3
ATOM      3  C   UNL     1       7.946   6.971  18.517  0.00  0.00    +0.000 C 
BRANCH   3   4
ATOM      4  C   UNL     1       7.582   7.964  17.418  0.00  0.00    +0.000 C 
BRANCH   4   5
ATOM      5  C   UNL     1       8.117   9.353  17.756  0.00  0.00    +0.000 C 
BRANCH   5   6
ATOM      6  C   UNL     1       8.964   9.313  19.021  0.00  0.00    +0.000 C 
BRANCH   6   7
ATOM      7  C   UNL     1       9.591  10.676  19.312  0.00  0.00    +0.000 C 
BRANCH   7   8
ATOM      8  C   UNL     1      10.115  11.307  18.026  0.00  0.00    +0.000 C 
BRANCH   8   9
ATOM      9  C   UNL     1      11.019  12.502  18.313  0.00  0.00    +0.000 C 
BRANCH   9  10
ATOM     10  C   UNL     1      11.336  13.266  17.051  0.00  0.00    +0.000 C 
ATOM     11  O   UNL     1      12.332  13.116  16.361  0.00  0.00    +0.000 OA
BRANCH  10  12
ATOM     12  O   UNL     1      10.376  14.169  16.742  0.00  0.00    +0.000 OA
ATOM     13  H   UNL     1      10.714  15.076  16.618  0.00  0.00    +0.000 HD
ENDBRANCH  10  12
ENDBRANCH   9  10
ENDBRANCH   8   9
ENDBRANCH   7   8
ENDBRANCH   6   7
ENDBRANCH   5   6
ENDBRANCH   4   5
ENDBRANCH   3   4
ENDBRANCH   2   3
BRANCH   1  14
ATOM     14  C   UNL     1       5.422   3.998  18.516  0.00  0.00    +0.000 C 
BRANCH  14  15
ATOM     15  C   UNL     1       4.126   4.114  17.702  0.00  0.00    +0.000 C 
BRANCH  15  16
ATOM     16  O   UNL     1       4.404   3.987  16.304  0.00  0.00    +0.000 OA
ATOM     17  H   UNL     1       4.712   4.850  15.982  0.00  0.00    +0.000 HD
ENDBRANCH  15  16
BRANCH  15  18
ATOM     18  C   UNL     1       3.462   5.469  17.960  0.00  0.00    +0.000 C 
BRANCH  18  19
ATOM     19  C   UNL     1       2.035   5.310  18.479  0.00  0.00    +0.000 C 
BRANCH  19  20
ATOM     20  C   UNL     1       1.794   3.898  19.008  0.00  0.00    +0.000 C 
BRANCH  20  21
ATOM     21  C   UNL     1       0.955   3.942  20.281  0.00  0.00    +0.000 C 
BRANCH  21  23
ATOM     22  C   UNL     1       2.921   2.624  21.113  0.00  0.00    +0.000 C 
ATOM     23  C   UNL     1       1.444   2.923  21.307  0.00  0.00    +0.000 C 
ENDBRANCH  21  23
ENDBRANCH  20  21
ENDBRANCH  19  20
ENDBRANCH  18  19
ENDBRANCH  15  18
ENDBRANCH  14  15
ENDBRANCH   1  14
TORSDOF 17
ENDMDL
