MODEL 1
REMARK VINA RESULT:      -8.4      0.000      0.000
REMARK  Name = 
REMARK  5 active torsions:
REMARK  status: ('A' for Active; 'I' for Inactive)
REMARK    1  A    between atoms: C_1  and  O_2
REMARK    2  A    between atoms: O_2  and  C_3
REMARK    3  A    between atoms: C_6  and  C_7
REMARK    4  A    between atoms: C_8  and  C_9
REMARK    5  A    between atoms: C_11  and  N_12
REMARK                            x       y       z     vdW  Elec       q    Type
REMARK                         _______ _______ _______ _____ _____    ______ ____
ROOT
ATOM      1  C   UNL     1       5.311   5.842  16.411  0.00  0.00    +0.000 C 
ATOM      2  C   UNL     1       6.498   6.068  17.348  0.00  0.00    +0.000 C 
ATOM      3  C   UNL     1       6.621   5.122  18.307  0.00  0.00    +0.000 C 
ATOM      4  O   UNL     1       6.044   3.856  18.047  0.00  0.00    +0.000 OA
ATOM      5  C   UNL     1       4.650   3.933  17.877  0.00  0.00    +0.000 A 
ATOM      6  C   UNL     1       3.960   3.092  18.744  0.00  0.00    +0.000 A 
ATOM      7  C   UNL     1       2.975   3.652  19.517  0.00  0.00    +0.000 A 
ATOM      8  C   UNL     1       2.713   5.014  19.425  0.00  0.00    +0.000 A 
ATOM      9  C   UNL     1       2.004   5.538  20.521  0.00  0.00    +0.000 A 
ATOM     10  C   UNL     1       1.688   6.878  20.600  0.00  0.00    +0.000 A 
ATOM     11  C   UNL     1       2.049   7.696  19.534  0.00  0.00    +0.000 A 
ATOM     12  C   UNL     1       2.810   7.192  18.436  0.00  0.00    +0.000 A 
ATOM     13  C   UNL     1       3.242   5.823  18.341  0.00  0.00    +0.000 A 
ATOM     14  C   UNL     1       4.193   5.179  17.407  0.00  0.00    +0.000 A 
ENDROOT
BRANCH   1  18
ATOM     15  C   UNL     1       6.665   3.750  12.620  0.00  0.00    +0.000 A 
ATOM     16  C   UNL     1       7.529   4.587  13.331  0.00  0.00    +0.000 A 
ATOM     17  C   UNL     1       7.141   5.243  14.544  0.00  0.00    +0.000 A 
ATOM     18  C   UNL     1       5.859   5.091  15.089  0.00  0.00    +0.000 A 
ATOM     19  C   UNL     1       4.988   4.252  14.324  0.00  0.00    +0.000 A 
ATOM     20  C   UNL     1       5.379   3.597  13.114  0.00  0.00    +0.000 A 
BRANCH  15  22
ATOM     21  C   UNL     1       7.055   1.821  11.218  0.00  0.00    +0.000 C 
ATOM     22  O   UNL     1       7.186   3.223  11.468  0.00  0.00    +0.000 OA
ENDBRANCH  15  22
ENDBRANCH   1  18
BRANCH   3  23
ATOM     23  N   UNL     1       6.962   5.367  19.626  0.00  0.00    +0.000 N 
ATOM     24  H   UNL     1       6.718   6.316  19.910  0.00  0.00    +0.000 HD
ATOM     25  H   UNL     1       6.401   4.731  20.204  0.00  0.00    +0.000 HD
ENDBRANCH   3  23
BRANCH   2  26
ATOM     26  C   UNL     1       7.173   7.314  17.390  0.00  0.00    +0.000 C 
ATOM     27  N   UNL     1       7.734   8.334  17.385  0.00  0.00    +0.000 NA
ENDBRANCH   2  26
TORSDOF 4
ENDMDL
MODEL 2
REMARK VINA RESULT:      -8.3      2.576      7.260
REMARK  Name = 
REMARK  5 active torsions:
REMARK  status: ('A' for Active; 'I' for Inactive)
REMARK    1  A    between atoms: C_1  and  O_2
REMARK    2  A    between atoms: O_2  and  C_3
REMARK    3  A    between atoms: C_6  and  C_7
REMARK    4  A    between atoms: C_8  and  C_9
REMARK    5  A    between atoms: C_11  and  N_12
REMARK                            x       y       z     vdW  Elec       q    Type
REMARK                         _______ _______ _______ _____ _____    ______ ____
ROOT
ATOM      1  C   UNL     1       3.146   5.839  17.786  0.00  0.00    +0.000 C 
ATOM      2  C   UNL     1       3.251   4.517  18.545  0.00  0.00    +0.000 C 
ATOM      3  C   UNL     1       4.458   4.318  19.123  0.00  0.00    +0.000 C 
ATOM      4  O   UNL     1       5.236   5.464  19.413  0.00  0.00    +0.000 OA
ATOM      5  C   UNL     1       5.574   6.183  18.252  0.00  0.00    +0.000 A 
ATOM      6  C   UNL     1       6.947   6.365  18.118  0.00  0.00    +0.000 A 
ATOM      7  C   UNL     1       7.524   5.974  16.937  0.00  0.00    +0.000 A 
ATOM      8  C   UNL     1       6.741   5.405  15.939  0.00  0.00    +0.000 A 
ATOM      9  C   UNL     1       7.471   4.683  14.978  0.00  0.00    +0.000 A 
ATOM     10  C   UNL     1       6.842   4.034  13.936  0.00  0.00    +0.000 A 
ATOM     11  C   UNL     1       5.460   4.154  13.831  0.00  0.00    +0.000 A 
ATOM     12  C   UNL     1       4.698   4.843  14.823  0.00  0.00    +0.000 A 
ATOM     13  C   UNL     1       5.289   5.467  15.977  0.00  0.00    +0.000 A 
ATOM     14  C   UNL     1       4.660   6.031  17.192  0.00  0.00    +0.000 A 
ENDROOT
BRANCH   1  18
ATOM     15  C   UNL     1       1.092   8.946  20.377  0.00  0.00    +0.000 A 
ATOM     16  C   UNL     1       1.371   7.667  20.866  0.00  0.00    +0.000 A 
ATOM     17  C   UNL     1       2.039   6.672  20.082  0.00  0.00    +0.000 A 
ATOM     18  C   UNL     1       2.449   6.919  18.766  0.00  0.00    +0.000 A 
ATOM     19  C   UNL     1       2.124   8.226  18.282  0.00  0.00    +0.000 A 
ATOM     20  C   UNL     1       1.457   9.219  19.068  0.00  0.00    +0.000 A 
BRANCH  15  22
ATOM     21  C   UNL     1      -0.007   9.247  22.508  0.00  0.00    +0.000 C 
ATOM     22  O   UNL     1       0.424   9.767  21.247  0.00  0.00    +0.000 OA
ENDBRANCH  15  22
ENDBRANCH   1  18
BRANCH   3  23
ATOM     23  N   UNL     1       5.133   3.110  19.158  0.00  0.00    +0.000 N 
ATOM     24  H   UNL     1       5.495   2.852  18.239  0.00  0.00    +0.000 HD
ATOM     25  H   UNL     1       5.946   3.237  19.771  0.00  0.00    +0.000 HD
ENDBRANCH   3  23
BRANCH   2  26
ATOM     26  C   UNL     1       2.294   3.487  18.362  0.00  0.00    +0.000 C 
ATOM     27  N   UNL     1       1.508   2.650  18.172  0.00  0.00    +0.000 NA
ENDBRANCH   2  26
TORSDOF 4
ENDMDL
MODEL 3
REMARK VINA RESULT:      -7.2      1.190      1.686
REMARK  Name = 
REMARK  5 active torsions:
REMARK  status: ('A' for Active; 'I' for Inactive)
REMARK    1  A    between atoms: C_1  and  O_2
REMARK    2  A    between atoms: O_2  and  C_3
REMARK    3  A    between atoms: C_6  and  C_7
REMARK    4  A    between atoms: C_8  and  C_9
REMARK    5  A    between atoms: C_11  and  N_12
REMARK                            x       y       z     vdW  Elec       q    Type
REMARK                         _______ _______ _______ _____ _____    ______ ____
ROOT
ATOM      1  C   UNL     1       5.032   5.349  16.904  0.00  0.00    +0.000 C 
ATOM      2  C   UNL     1       5.922   4.670  17.945  0.00  0.00    +0.000 C 
ATOM      3  C   UNL     1       5.407   3.516  18.429  0.00  0.00    +0.000 C 
ATOM      4  O   UNL     1       4.470   2.833  17.618  0.00  0.00    +0.000 OA
ATOM      5  C   UNL     1       3.315   3.600  17.379  0.00  0.00    +0.000 A 
ATOM      6  C   UNL     1       2.150   2.940  17.755  0.00  0.00    +0.000 A 
ATOM      7  C   UNL     1       1.298   3.598  18.606  0.00  0.00    +0.000 A 
ATOM      8  C   UNL     1       1.626   4.867  19.068  0.00  0.00    +0.000 A 
ATOM      9  C   UNL     1       0.918   5.259  20.219  0.00  0.00    +0.000 A 
ATOM     10  C   UNL     1       1.144   6.478  20.822  0.00  0.00    +0.000 A 
ATOM     11  C   UNL     1       2.063   7.339  20.229  0.00  0.00    +0.000 A 
ATOM     12  C   UNL     1       2.824   6.939  19.089  0.00  0.00    +0.000 A 
ATOM     13  C   UNL     1       2.693   5.649  18.469  0.00  0.00    +0.000 A 
ATOM     14  C   UNL     1       3.524   4.991  17.435  0.00  0.00    +0.000 A 
ENDROOT
BRANCH   1  18
ATOM     15  C   UNL     1       6.717   4.122  12.874  0.00  0.00    +0.000 A 
ATOM     16  C   UNL     1       5.410   3.791  13.242  0.00  0.00    +0.000 A 
ATOM     17  C   UNL     1       4.840   4.184  14.496  0.00  0.00    +0.000 A 
ATOM     18  C   UNL     1       5.567   4.921  15.440  0.00  0.00    +0.000 A 
ATOM     19  C   UNL     1       6.910   5.220  15.048  0.00  0.00    +0.000 A 
ATOM     20  C   UNL     1       7.476   4.827  13.794  0.00  0.00    +0.000 A 
BRANCH  15  22
ATOM     21  C   UNL     1       6.940   2.259  11.351  0.00  0.00    +0.000 C 
ATOM     22  O   UNL     1       7.113   3.647  11.652  0.00  0.00    +0.000 OA
ENDBRANCH  15  22
ENDBRANCH   1  18
BRANCH   3  23
ATOM     23  N   UNL     1       5.457   3.117  19.753  0.00  0.00    +0.000 N 
ATOM     24  H   UNL     1       5.893   3.825  20.346  0.00  0.00    +0.000 HD
ATOM     25  H   UNL     1       4.488   3.016  20.074  0.00  0.00    +0.000 HD
ENDBRANCH   3  23
BRANCH   2  26
ATOM     26  C   UNL     1       6.993   5.365  18.560  0.00  0.00    +0.000 C 
ATOM     27  N   UNL     1       7.861   5.970  19.046  0.00  0.00    +0.000 NA
ENDBRANCH   2  26
TORSDOF 4
ENDMDL
MODEL 4
REMARK VINA RESULT:      -6.9      5.827      8.913
REMARK  Name = 
REMARK  5 active torsions:
REMARK  status: ('A' for Active; 'I' for Inactive)
REMARK    1  A    between atoms: C_1  and  O_2
REMARK    2  A    between atoms: O_2  and  C_3
REMARK    3  A    between atoms: C_6  and  C_7
REMARK    4  A    between atoms: C_8  and  C_9
REMARK    5  A    between atoms: C_11  and  N_12
REMARK                            x       y       z     vdW  Elec       q    Type
REMARK                         _______ _______ _______ _____ _____    ______ ____
ROOT
ATOM      1  C   UNL     1      -0.053  10.141  19.926  0.00  0.00    +0.000 C 
ATOM      2  C   UNL     1      -0.723  10.758  18.699  0.00  0.00    +0.000 C 
ATOM      3  C   UNL     1      -0.204  11.956  18.342  0.00  0.00    +0.000 C 
ATOM      4  O   UNL     1       1.123  12.234  18.747  0.00  0.00    +0.000 OA
ATOM      5  C   UNL     1       1.258  12.254  20.147  0.00  0.00    +0.000 A 
ATOM      6  C   UNL     1       1.797  13.448  20.615  0.00  0.00    +0.000 A 
ATOM      7  C   UNL     1       1.102  14.116  21.591  0.00  0.00    +0.000 A 
ATOM      8  C   UNL     1      -0.101  13.600  22.059  0.00  0.00    +0.000 A 
ATOM      9  C   UNL     1      -0.908  14.540  22.726  0.00  0.00    +0.000 A 
ATOM     10  C   UNL     1      -2.145  14.197  23.229  0.00  0.00    +0.000 A 
ATOM     11  C   UNL     1      -2.558  12.874  23.102  0.00  0.00    +0.000 A 
ATOM     12  C   UNL     1      -1.774  11.919  22.387  0.00  0.00    +0.000 A 
ATOM     13  C   UNL     1      -0.515  12.238  21.768  0.00  0.00    +0.000 A 
ATOM     14  C   UNL     1       0.319  11.456  20.829  0.00  0.00    +0.000 A 
ENDROOT
BRANCH   1  18
ATOM     15  C   UNL     1       2.991   7.057  18.579  0.00  0.00    +0.000 A 
ATOM     16  C   UNL     1       2.565   8.075  17.721  0.00  0.00    +0.000 A 
ATOM     17  C   UNL     1       1.624   9.078  18.123  0.00  0.00    +0.000 A 
ATOM     18  C   UNL     1       1.064   9.093  19.407  0.00  0.00    +0.000 A 
ATOM     19  C   UNL     1       1.496   8.023  20.253  0.00  0.00    +0.000 A 
ATOM     20  C   UNL     1       2.436   7.023  19.848  0.00  0.00    +0.000 A 
BRANCH  15  22
ATOM     21  C   UNL     1       4.703   5.380  18.888  0.00  0.00    +0.000 C 
ATOM     22  O   UNL     1       3.873   6.167  18.028  0.00  0.00    +0.000 OA
ENDBRANCH  15  22
ENDBRANCH   1  18
BRANCH   3  23
ATOM     23  N   UNL     1      -0.941  13.045  17.912  0.00  0.00    +0.000 N 
ATOM     24  H   UNL     1      -1.503  12.822  17.090  0.00  0.00    +0.000 HD
ATOM     25  H   UNL     1      -1.598  13.280  18.665  0.00  0.00    +0.000 HD
ENDBRANCH   3  23
BRANCH   2  26
ATOM     26  C   UNL     1      -1.963  10.271  18.217  0.00  0.00    +0.000 C 
ATOM     27  N   UNL     1      -2.963   9.857  17.787  0.00  0.00    +0.000 NA
ENDBRANCH   2  26
TORSDOF 4
ENDMDL
MODEL 5
REMARK VINA RESULT:      -6.2      6.190      9.327
REMARK  Name = 
REMARK  5 active torsions:
REMARK  status: ('A' for Active; 'I' for Inactive)
REMARK    1  A    between atoms: C_1  and  O_2
REMARK    2  A    between atoms: O_2  and  C_3
REMARK    3  A    between atoms: C_6  and  C_7
REMARK    4  A    between atoms: C_8  and  C_9
REMARK    5  A    between atoms: C_11  and  N_12
REMARK                            x       y       z     vdW  Elec       q    Type
REMARK                         _______ _______ _______ _____ _____    ______ ____
ROOT
ATOM      1  C   UNL     1      -0.282  10.639  20.119  0.00  0.00    +0.000 C 
ATOM      2  C   UNL     1      -0.886  11.326  18.894  0.00  0.00    +0.000 C 
ATOM      3  C   UNL     1      -0.240  12.460  18.535  0.00  0.00    +0.000 C 
ATOM      4  O   UNL     1       1.111  12.591  18.935  0.00  0.00    +0.000 OA
ATOM      5  C   UNL     1       1.252  12.596  20.334  0.00  0.00    +0.000 A 
ATOM      6  C   UNL     1       1.921  13.723  20.800  0.00  0.00    +0.000 A 
ATOM      7  C   UNL     1       1.307  14.463  21.778  0.00  0.00    +0.000 A 
ATOM      8  C   UNL     1       0.057  14.082  22.251  0.00  0.00    +0.000 A 
ATOM      9  C   UNL     1      -0.640  15.105  22.921  0.00  0.00    +0.000 A 
ATOM     10  C   UNL     1      -1.906  14.899  23.429  0.00  0.00    +0.000 A 
ATOM     11  C   UNL     1      -2.461  13.630  23.303  0.00  0.00    +0.000 A 
ATOM     12  C   UNL     1      -1.789  12.594  22.585  0.00  0.00    +0.000 A 
ATOM     13  C   UNL     1      -0.506  12.774  21.962  0.00  0.00    +0.000 A 
ATOM     14  C   UNL     1       0.235  11.905  21.020  0.00  0.00    +0.000 A 
ENDROOT
BRANCH   1  18
ATOM     15  C   UNL     1       2.587   7.507  18.525  0.00  0.00    +0.000 A 
ATOM     16  C   UNL     1       2.185   7.504  19.863  0.00  0.00    +0.000 A 
ATOM     17  C   UNL     1       1.262   8.463  20.392  0.00  0.00    +0.000 A 
ATOM     18  C   UNL     1       0.710   9.475  19.595  0.00  0.00    +0.000 A 
ATOM     19  C   UNL     1       1.163   9.471  18.238  0.00  0.00    +0.000 A 
ATOM     20  C   UNL     1       2.084   8.511  17.712  0.00  0.00    +0.000 A 
BRANCH  15  22
ATOM     21  C   UNL     1       3.044   5.190  18.013  0.00  0.00    +0.000 C 
ATOM     22  O   UNL     1       3.494   6.536  18.190  0.00  0.00    +0.000 OA
ENDBRANCH  15  22
ENDBRANCH   1  18
BRANCH   3  23
ATOM     23  N   UNL     1      -0.855  13.624  18.108  0.00  0.00    +0.000 N 
ATOM     24  H   UNL     1      -0.183  14.288  17.722  0.00  0.00    +0.000 HD
ATOM     25  H   UNL     1      -1.489  13.366  17.343  0.00  0.00    +0.000 HD
ENDBRANCH   3  23
BRANCH   2  26
ATOM     26  C   UNL     1      -2.174  10.978  18.417  0.00  0.00    +0.000 C 
ATOM     27  N   UNL     1      -3.249  10.716  18.053  0.00  0.00    +0.000 NA
ENDBRANCH   2  26
TORSDOF 4
ENDMDL
MODEL 6
REMARK VINA RESULT:      -6.1      6.633      9.909
REMARK  Name = 
REMARK  5 active torsions:
REMARK  status: ('A' for Active; 'I' for Inactive)
REMARK    1  A    between atoms: C_1  and  O_2
REMARK    2  A    between atoms: O_2  and  C_3
REMARK    3  A    between atoms: C_6  and  C_7
REMARK    4  A    between atoms: C_8  and  C_9
REMARK    5  A    between atoms: C_11  and  N_12
REMARK                            x       y       z     vdW  Elec       q    Type
REMARK                         _______ _______ _______ _____ _____    ______ ____
ROOT
ATOM      1  C   UNL     1      -0.920  10.971  19.974  0.00  0.00    +0.000 C 
ATOM      2  C   UNL     1      -1.016  11.776  18.678  0.00  0.00    +0.000 C 
ATOM      3  C   UNL     1      -0.305  12.927  18.700  0.00  0.00    +0.000 C 
ATOM      4  O   UNL     1       0.783  13.000  19.602  0.00  0.00    +0.000 OA
ATOM      5  C   UNL     1       0.371  12.876  20.941  0.00  0.00    +0.000 A 
ATOM      6  C   UNL     1       0.784  13.946  21.728  0.00  0.00    +0.000 A 
ATOM      7  C   UNL     1      -0.176  14.605  22.453  0.00  0.00    +0.000 A 
ATOM      8  C   UNL     1      -1.504  14.202  22.370  0.00  0.00    +0.000 A 
ATOM      9  C   UNL     1      -2.426  15.171  22.806  0.00  0.00    +0.000 A 
ATOM     10  C   UNL     1      -3.785  14.941  22.763  0.00  0.00    +0.000 A 
ATOM     11  C   UNL     1      -4.223  13.696  22.319  0.00  0.00    +0.000 A 
ATOM     12  C   UNL     1      -3.304  12.719  21.828  0.00  0.00    +0.000 A 
ATOM     13  C   UNL     1      -1.883  12.934  21.769  0.00  0.00    +0.000 A 
ATOM     14  C   UNL     1      -0.818  12.142  21.114  0.00  0.00    +0.000 A 
ENDROOT
BRANCH   1  18
ATOM     15  C   UNL     1       2.180   7.687  19.537  0.00  0.00    +0.000 A 
ATOM     16  C   UNL     1       1.867   8.532  18.469  0.00  0.00    +0.000 A 
ATOM     17  C   UNL     1       0.911   9.593  18.581  0.00  0.00    +0.000 A 
ATOM     18  C   UNL     1       0.221   9.844  19.774  0.00  0.00    +0.000 A 
ATOM     19  C   UNL     1       0.541   8.946  20.841  0.00  0.00    +0.000 A 
ATOM     20  C   UNL     1       1.497   7.888  20.727  0.00  0.00    +0.000 A 
BRANCH  15  22
ATOM     21  C   UNL     1       2.919   5.902  18.086  0.00  0.00    +0.000 C 
ATOM     22  O   UNL     1       3.096   6.710  19.254  0.00  0.00    +0.000 OA
ENDBRANCH  15  22
ENDBRANCH   1  18
BRANCH   3  23
ATOM     23  N   UNL     1      -0.731  14.134  18.173  0.00  0.00    +0.000 N 
ATOM     24  H   UNL     1      -0.010  14.853  18.244  0.00  0.00    +0.000 HD
ATOM     25  H   UNL     1      -0.902  13.983  17.173  0.00  0.00    +0.000 HD
ENDBRANCH   3  23
BRANCH   2  26
ATOM     26  C   UNL     1      -2.012  11.492  17.709  0.00  0.00    +0.000 C 
ATOM     27  N   UNL     1      -2.800  11.250  16.887  0.00  0.00    +0.000 NA
ENDBRANCH   2  26
TORSDOF 4
ENDMDL
MODEL 7
REMARK VINA RESULT:      -5.8      9.366     12.936
REMARK  Name = 
REMARK  5 active torsions:
REMARK  status: ('A' for Active; 'I' for Inactive)
REMARK    1  A    between atoms: C_1  and  O_2
REMARK    2  A    between atoms: O_2  and  C_3
REMARK    3  A    between atoms: C_6  and  C_7
REMARK    4  A    between atoms: C_8  and  C_9
REMARK    5  A    between atoms: C_11  and  N_12
REMARK                            x       y       z     vdW  Elec       q    Type
REMARK                         _______ _______ _______ _____ _____    ______ ____
ROOT
ATOM      1  C   UNL     1      -2.178  13.343  21.979  0.00  0.00    +0.000 C 
ATOM      2  C   UNL     1      -2.405  13.633  23.462  0.00  0.00    +0.000 C 
ATOM      3  C   UNL     1      -3.642  13.301  23.897  0.00  0.00    +0.000 C 
ATOM      4  O   UNL     1      -4.344  12.314  23.165  0.00  0.00    +0.000 OA
ATOM      5  C   UNL     1      -4.589  12.713  21.838  0.00  0.00    +0.000 A 
ATOM      6  C   UNL     1      -5.940  12.664  21.508  0.00  0.00    +0.000 A 
ATOM      7  C   UNL     1      -6.503  13.800  20.984  0.00  0.00    +0.000 A 
ATOM      8  C   UNL     1      -5.730  14.943  20.819  0.00  0.00    +0.000 A 
ATOM      9  C   UNL     1      -6.477  16.127  20.677  0.00  0.00    +0.000 A 
ATOM     10  C   UNL     1      -5.862  17.353  20.531  0.00  0.00    +0.000 A 
ATOM     11  C   UNL     1      -4.472  17.383  20.478  0.00  0.00    +0.000 A 
ATOM     12  C   UNL     1      -3.696  16.199  20.669  0.00  0.00    +0.000 A 
ATOM     13  C   UNL     1      -4.280  14.906  20.909  0.00  0.00    +0.000 A 
ATOM     14  C   UNL     1      -3.653  13.633  21.329  0.00  0.00    +0.000 A 
ENDROOT
BRANCH   1  18
ATOM     15  C   UNL     1      -0.001   9.392  21.491  0.00  0.00    +0.000 A 
ATOM     16  C   UNL     1      -0.332   9.883  22.756  0.00  0.00    +0.000 A 
ATOM     17  C   UNL     1      -1.039  11.115  22.944  0.00  0.00    +0.000 A 
ATOM     18  C   UNL     1      -1.438  11.910  21.862  0.00  0.00    +0.000 A 
ATOM     19  C   UNL     1      -1.060  11.397  20.581  0.00  0.00    +0.000 A 
ATOM     20  C   UNL     1      -0.354  10.166  20.397  0.00  0.00    +0.000 A 
BRANCH  15  22
ATOM     21  C   UNL     1       1.664   7.974  20.462  0.00  0.00    +0.000 C 
ATOM     22  O   UNL     1       0.699   8.215  21.491  0.00  0.00    +0.000 OA
ENDBRANCH  15  22
ENDBRANCH   1  18
BRANCH   3  23
ATOM     23  N   UNL     1      -4.404  14.051  24.776  0.00  0.00    +0.000 N 
ATOM     24  H   UNL     1      -4.712  14.929  24.356  0.00  0.00    +0.000 HD
ATOM     25  H   UNL     1      -5.250  13.507  24.981  0.00  0.00    +0.000 HD
ENDBRANCH   3  23
BRANCH   2  26
ATOM     26  C   UNL     1      -1.520  14.467  24.190  0.00  0.00    +0.000 C 
ATOM     27  N   UNL     1      -0.766  15.120  24.791  0.00  0.00    +0.000 NA
ENDBRANCH   2  26
TORSDOF 4
ENDMDL
MODEL 8
REMARK VINA RESULT:      -5.8      5.728      8.745
REMARK  Name = 
REMARK  5 active torsions:
REMARK  status: ('A' for Active; 'I' for Inactive)
REMARK    1  A    between atoms: C_1  and  O_2
REMARK    2  A    between atoms: O_2  and  C_3
REMARK    3  A    between atoms: C_6  and  C_7
REMARK    4  A    between atoms: C_8  and  C_9
REMARK    5  A    between atoms: C_11  and  N_12
REMARK                            x       y       z     vdW  Elec       q    Type
REMARK                         _______ _______ _______ _____ _____    ______ ____
ROOT
ATOM      1  C   UNL     1       0.147  10.897  19.368  0.00  0.00    +0.000 C 
ATOM      2  C   UNL     1       1.108  12.061  19.608  0.00  0.00    +0.000 C 
ATOM      3  C   UNL     1       1.324  12.325  20.917  0.00  0.00    +0.000 C 
ATOM      4  O   UNL     1       1.109  11.270  21.835  0.00  0.00    +0.000 OA
ATOM      5  C   UNL     1      -0.227  10.830  21.835  0.00  0.00    +0.000 A 
ATOM      6  C   UNL     1      -0.805  10.875  23.099  0.00  0.00    +0.000 A 
ATOM      7  C   UNL     1      -1.991  11.553  23.228  0.00  0.00    +0.000 A 
ATOM      8  C   UNL     1      -2.557  12.173  22.121  0.00  0.00    +0.000 A 
ATOM      9  C   UNL     1      -3.513  13.155  22.439  0.00  0.00    +0.000 A 
ATOM     10  C   UNL     1      -4.149  13.884  21.457  0.00  0.00    +0.000 A 
ATOM     11  C   UNL     1      -3.856  13.586  20.129  0.00  0.00    +0.000 A 
ATOM     12  C   UNL     1      -2.855  12.626  19.789  0.00  0.00    +0.000 A 
ATOM     13  C   UNL     1      -2.098  11.897  20.770  0.00  0.00    +0.000 A 
ATOM     14  C   UNL     1      -0.903  11.037  20.617  0.00  0.00    +0.000 A 
ENDROOT
BRANCH   1  18
ATOM     15  C   UNL     1       2.755   7.277  18.542  0.00  0.00    +0.000 A 
ATOM     16  C   UNL     1       2.123   7.446  19.777  0.00  0.00    +0.000 A 
ATOM     17  C   UNL     1       1.274   8.564  20.062  0.00  0.00    +0.000 A 
ATOM     18  C   UNL     1       1.032   9.568  19.115  0.00  0.00    +0.000 A 
ATOM     19  C   UNL     1       1.715   9.384  17.871  0.00  0.00    +0.000 A 
ATOM     20  C   UNL     1       2.562   8.265  17.590  0.00  0.00    +0.000 A 
BRANCH  15  22
ATOM     21  C   UNL     1       3.717   5.323  19.589  0.00  0.00    +0.000 C 
ATOM     22  O   UNL     1       3.552   6.167  18.446  0.00  0.00    +0.000 OA
ENDBRANCH  15  22
ENDBRANCH   1  18
BRANCH   3  23
ATOM     23  N   UNL     1       1.415  13.591  21.469  0.00  0.00    +0.000 N 
ATOM     24  H   UNL     1       1.724  13.560  22.441  0.00  0.00    +0.000 HD
ATOM     25  H   UNL     1       2.137  14.097  20.944  0.00  0.00    +0.000 HD
ENDBRANCH   3  23
BRANCH   2  26
ATOM     26  C   UNL     1       1.450  12.958  18.565  0.00  0.00    +0.000 C 
ATOM     27  N   UNL     1       1.771  13.692  17.720  0.00  0.00    +0.000 NA
ENDBRANCH   2  26
TORSDOF 4
ENDMDL
MODEL 9
REMARK VINA RESULT:      -5.8      7.425     10.449
REMARK  Name = 
REMARK  5 active torsions:
REMARK  status: ('A' for Active; 'I' for Inactive)
REMARK    1  A    between atoms: C_1  and  O_2
REMARK    2  A    between atoms: O_2  and  C_3
REMARK    3  A    between atoms: C_6  and  C_7
REMARK    4  A    between atoms: C_8  and  C_9
REMARK    5  A    between atoms: C_11  and  N_12
REMARK                            x       y       z     vdW  Elec       q    Type
REMARK                         _______ _______ _______ _____ _____    ______ ____
ROOT
ATOM      1  C   UNL     1      -1.147  12.733  19.624  0.00  0.00    +0.000 C 
ATOM      2  C   UNL     1      -0.310  13.908  20.130  0.00  0.00    +0.000 C 
ATOM      3  C   UNL     1      -0.006  13.830  21.446  0.00  0.00    +0.000 C 
ATOM      4  O   UNL     1      -0.011  12.545  22.038  0.00  0.00    +0.000 OA
ATOM      5  C   UNL     1      -1.282  11.943  21.988  0.00  0.00    +0.000 A 
ATOM      6  C   UNL     1      -1.741  11.561  23.244  0.00  0.00    +0.000 A 
ATOM      7  C   UNL     1      -2.981  12.009  23.626  0.00  0.00    +0.000 A 
ATOM      8  C   UNL     1      -3.715  12.824  22.773  0.00  0.00    +0.000 A 
ATOM      9  C   UNL     1      -4.744  13.541  23.409  0.00  0.00    +0.000 A 
ATOM     10  C   UNL     1      -5.550  14.417  22.711  0.00  0.00    +0.000 A 
ATOM     11  C   UNL     1      -5.347  14.536  21.339  0.00  0.00    +0.000 A 
ATOM     12  C   UNL     1      -4.277  13.852  20.685  0.00  0.00    +0.000 A 
ATOM     13  C   UNL     1      -3.354  12.993  21.376  0.00  0.00    +0.000 A 
ATOM     14  C   UNL     1      -2.086  12.381  20.919  0.00  0.00    +0.000 A 
ENDROOT
BRANCH   1  18
ATOM     15  C   UNL     1       1.827   9.798  17.856  0.00  0.00    +0.000 A 
ATOM     16  C   UNL     1       0.505   9.422  18.110  0.00  0.00    +0.000 A 
ATOM     17  C   UNL     1      -0.464  10.331  18.645  0.00  0.00    +0.000 A 
ATOM     18  C   UNL     1      -0.141  11.658  18.956  0.00  0.00    +0.000 A 
ATOM     19  C   UNL     1       1.225  12.006  18.712  0.00  0.00    +0.000 A 
ATOM     20  C   UNL     1       2.191  11.096  18.177  0.00  0.00    +0.000 A 
BRANCH  15  22
ATOM     21  C   UNL     1       2.681   7.546  18.054  0.00  0.00    +0.000 C 
ATOM     22  O   UNL     1       2.630   8.801  17.369  0.00  0.00    +0.000 OA
ENDBRANCH  15  22
ENDBRANCH   1  18
BRANCH   3  23
ATOM     23  N   UNL     1      -0.012  14.898  22.327  0.00  0.00    +0.000 N 
ATOM     24  H   UNL     1      -0.913  14.996  22.797  0.00  0.00    +0.000 HD
ATOM     25  H   UNL     1       0.682  14.691  23.055  0.00  0.00    +0.000 HD
ENDBRANCH   3  23
BRANCH   2  26
ATOM     26  C   UNL     1      -0.172  15.093  19.365  0.00  0.00    +0.000 C 
ATOM     27  N   UNL     1      -0.097  16.076  18.745  0.00  0.00    +0.000 NA
ENDBRANCH   2  26
TORSDOF 4
ENDMDL
