MODEL 1
REMARK VINA RESULT:      -7.2      0.000      0.000
REMARK  Name = 
REMARK  5 active torsions:
REMARK  status: ('A' for Active; 'I' for Inactive)
REMARK    1  A    between atoms: C_2  and  C_4
REMARK    2  A    between atoms: C_7  and  C_8
REMARK    3  A    between atoms: C_8  and  O_9
REMARK    4  A    between atoms: O_9  and  C_10
REMARK    5  A    between atoms: C_13  and  N_14
REMARK                            x       y       z     vdW  Elec       q    Type
REMARK                         _______ _______ _______ _____ _____    ______ ____
ROOT
ATOM      1  C   UNL     1       5.550   5.067  15.752  0.00  0.00    +0.000 A 
ATOM      2  C   UNL     1       5.420   6.418  16.086  0.00  0.00    +0.000 A 
ATOM      3  C   UNL     1       4.484   6.809  17.045  0.00  0.00    +0.000 A 
ATOM      4  C   UNL     1       3.665   5.859  17.675  0.00  0.00    +0.000 A 
ATOM      5  C   UNL     1       3.845   4.501  17.372  0.00  0.00    +0.000 A 
ATOM      6  C   UNL     1       4.774   4.108  16.406  0.00  0.00    +0.000 A 
ENDROOT
BRANCH   1   8
ATOM      7  N   UNL     1       6.260   3.611  13.973  0.00  0.00    +0.000 NA
ATOM      8  C   UNL     1       6.511   4.653  14.694  0.00  0.00    +0.000 C 
ATOM      9  N   UNL     1       7.664   5.364  14.506  0.00  0.00    +0.000 N 
ATOM     10  H   UNL     1       6.995   3.494  13.273  0.00  0.00    +0.000 HD
ATOM     11  H   UNL     1       8.413   4.865  14.043  0.00  0.00    +0.000 HD
ATOM     12  H   UNL     1       8.000   5.864  15.324  0.00  0.00    +0.000 HD
ENDBRANCH   1   8
BRANCH   4  13
ATOM     13  C   UNL     1       2.660   6.312  18.709  0.00  0.00    +0.000 C 
BRANCH  13  14
ATOM     14  O   UNL     1       2.127   7.591  18.357  0.00  0.00    +0.000 OA
BRANCH  14  15
ATOM     15  C   UNL     1       1.655   8.345  19.398  0.00  0.00    +0.000 A 
ATOM     16  C   UNL     1       1.250   9.639  19.061  0.00  0.00    +0.000 A 
ATOM     17  C   UNL     1       0.725  10.495  20.033  0.00  0.00    +0.000 A 
ATOM     18  C   UNL     1       0.591  10.037  21.349  0.00  0.00    +0.000 A 
ATOM     19  C   UNL     1       0.989   8.739  21.693  0.00  0.00    +0.000 A 
ATOM     20  C   UNL     1       1.521   7.897  20.712  0.00  0.00    +0.000 A 
BRANCH  18  21
ATOM     21  N   UNL     1       0.017  10.914  22.374  0.00  0.00    +0.000 N 
ATOM     22  O   UNL     1      -0.138  12.109  22.091  0.00  0.00    +0.000 OA
ATOM     23  O   UNL     1      -0.283  10.404  23.466  0.00  0.00    +0.000 OA
ENDBRANCH  18  21
ENDBRANCH  14  15
ENDBRANCH  13  14
ENDBRANCH   4  13
TORSDOF 5
ENDMDL
MODEL 2
REMARK VINA RESULT:      -7.1      0.397      1.495
REMARK  Name = 
REMARK  5 active torsions:
REMARK  status: ('A' for Active; 'I' for Inactive)
REMARK    1  A    between atoms: C_2  and  C_4
REMARK    2  A    between atoms: C_7  and  C_8
REMARK    3  A    between atoms: C_8  and  O_9
REMARK    4  A    between atoms: O_9  and  C_10
REMARK    5  A    between atoms: C_13  and  N_14
REMARK                            x       y       z     vdW  Elec       q    Type
REMARK                         _______ _______ _______ _____ _____    ______ ____
ROOT
ATOM      1  C   UNL     1       5.544   5.128  15.830  0.00  0.00    +0.000 A 
ATOM      2  C   UNL     1       4.874   4.216  16.650  0.00  0.00    +0.000 A 
ATOM      3  C   UNL     1       3.955   4.676  17.596  0.00  0.00    +0.000 A 
ATOM      4  C   UNL     1       3.700   6.050  17.735  0.00  0.00    +0.000 A 
ATOM      5  C   UNL     1       4.336   6.950  16.869  0.00  0.00    +0.000 A 
ATOM      6  C   UNL     1       5.263   6.494  15.928  0.00  0.00    +0.000 A 
ENDROOT
BRANCH   1   8
ATOM      7  N   UNL     1       7.680   5.278  14.734  0.00  0.00    +0.000 NA
ATOM      8  C   UNL     1       6.561   4.645  14.857  0.00  0.00    +0.000 C 
ATOM      9  N   UNL     1       6.296   3.549  14.085  0.00  0.00    +0.000 N 
ATOM     10  H   UNL     1       8.275   4.793  14.059  0.00  0.00    +0.000 HD
ATOM     11  H   UNL     1       6.839   3.474  13.234  0.00  0.00    +0.000 HD
ATOM     12  H   UNL     1       5.311   3.370  13.915  0.00  0.00    +0.000 HD
ENDBRANCH   1   8
BRANCH   4  13
ATOM     13  C   UNL     1       2.700   6.518  18.768  0.00  0.00    +0.000 C 
BRANCH  13  14
ATOM     14  O   UNL     1       2.254   7.842  18.463  0.00  0.00    +0.000 OA
BRANCH  14  15
ATOM     15  C   UNL     1       1.617   8.502  19.479  0.00  0.00    +0.000 A 
ATOM     16  C   UNL     1       1.042   9.726  19.126  0.00  0.00    +0.000 A 
ATOM     17  C   UNL     1       0.341  10.481  20.071  0.00  0.00    +0.000 A 
ATOM     18  C   UNL     1       0.204   9.990  21.375  0.00  0.00    +0.000 A 
ATOM     19  C   UNL     1       0.773   8.761  21.735  0.00  0.00    +0.000 A 
ATOM     20  C   UNL     1       1.480   8.022  20.782  0.00  0.00    +0.000 A 
BRANCH  18  21
ATOM     21  N   UNL     1      -0.551  10.757  22.370  0.00  0.00    +0.000 N 
ATOM     22  O   UNL     1      -0.354  10.506  23.566  0.00  0.00    +0.000 OA
ATOM     23  O   UNL     1      -1.344  11.617  21.952  0.00  0.00    +0.000 OA
ENDBRANCH  18  21
ENDBRANCH  14  15
ENDBRANCH  13  14
ENDBRANCH   4  13
TORSDOF 5
ENDMDL
MODEL 3
REMARK VINA RESULT:      -7.1      2.888      8.186
REMARK  Name = 
REMARK  5 active torsions:
REMARK  status: ('A' for Active; 'I' for Inactive)
REMARK    1  A    between atoms: C_2  and  C_4
REMARK    2  A    between atoms: C_7  and  C_8
REMARK    3  A    between atoms: C_8  and  O_9
REMARK    4  A    between atoms: O_9  and  C_10
REMARK    5  A    between atoms: C_13  and  N_14
REMARK                            x       y       z     vdW  Elec       q    Type
REMARK                         _______ _______ _______ _____ _____    ______ ____
ROOT
ATOM      1  C   UNL     1       1.214   9.417  19.504  0.00  0.00    +0.000 A 
ATOM      2  C   UNL     1       1.821   8.907  18.353  0.00  0.00    +0.000 A 
ATOM      3  C   UNL     1       2.403   7.639  18.378  0.00  0.00    +0.000 A 
ATOM      4  C   UNL     1       2.388   6.868  19.552  0.00  0.00    +0.000 A 
ATOM      5  C   UNL     1       1.727   7.368  20.684  0.00  0.00    +0.000 A 
ATOM      6  C   UNL     1       1.152   8.641  20.664  0.00  0.00    +0.000 A 
ENDROOT
BRANCH   1   8
ATOM      7  N   UNL     1       0.645  11.494  20.577  0.00  0.00    +0.000 NA
ATOM      8  C   UNL     1       0.638  10.789  19.495  0.00  0.00    +0.000 C 
ATOM      9  N   UNL     1       0.087  11.287  18.347  0.00  0.00    +0.000 N 
ATOM     10  H   UNL     1       0.253  12.418  20.387  0.00  0.00    +0.000 HD
ATOM     11  H   UNL     1      -0.575  12.043  18.474  0.00  0.00    +0.000 HD
ATOM     12  H   UNL     1      -0.267  10.589  17.701  0.00  0.00    +0.000 HD
ENDBRANCH   1   8
BRANCH   4  13
ATOM     13  C   UNL     1       3.026   5.498  19.550  0.00  0.00    +0.000 C 
BRANCH  13  14
ATOM     14  O   UNL     1       4.446   5.610  19.421  0.00  0.00    +0.000 OA
BRANCH  14  15
ATOM     15  C   UNL     1       4.949   5.370  18.171  0.00  0.00    +0.000 A 
ATOM     16  C   UNL     1       6.111   6.077  17.850  0.00  0.00    +0.000 A 
ATOM     17  C   UNL     1       6.735   5.896  16.612  0.00  0.00    +0.000 A 
ATOM     18  C   UNL     1       6.194   4.982  15.700  0.00  0.00    +0.000 A 
ATOM     19  C   UNL     1       5.033   4.265  16.017  0.00  0.00    +0.000 A 
ATOM     20  C   UNL     1       4.414   4.464  17.255  0.00  0.00    +0.000 A 
BRANCH  18  21
ATOM     21  N   UNL     1       6.852   4.761  14.409  0.00  0.00    +0.000 N 
ATOM     22  O   UNL     1       6.389   3.885  13.666  0.00  0.00    +0.000 OA
ATOM     23  O   UNL     1       7.835   5.469  14.135  0.00  0.00    +0.000 OA
ENDBRANCH  18  21
ENDBRANCH  14  15
ENDBRANCH  13  14
ENDBRANCH   4  13
TORSDOF 5
ENDMDL
MODEL 4
REMARK VINA RESULT:      -7.1      1.378      1.761
REMARK  Name = 
REMARK  5 active torsions:
REMARK  status: ('A' for Active; 'I' for Inactive)
REMARK    1  A    between atoms: C_2  and  C_4
REMARK    2  A    between atoms: C_7  and  C_8
REMARK    3  A    between atoms: C_8  and  O_9
REMARK    4  A    between atoms: O_9  and  C_10
REMARK    5  A    between atoms: C_13  and  N_14
REMARK                            x       y       z     vdW  Elec       q    Type
REMARK                         _______ _______ _______ _____ _____    ______ ____
ROOT
ATOM      1  C   UNL     1       5.628   4.874  15.582  0.00  0.00    +0.000 A 
ATOM      2  C   UNL     1       5.301   6.187  15.930  0.00  0.00    +0.000 A 
ATOM      3  C   UNL     1       4.320   6.426  16.894  0.00  0.00    +0.000 A 
ATOM      4  C   UNL     1       3.653   5.359  17.516  0.00  0.00    +0.000 A 
ATOM      5  C   UNL     1       4.029   4.046  17.198  0.00  0.00    +0.000 A 
ATOM      6  C   UNL     1       5.004   3.804  16.227  0.00  0.00    +0.000 A 
ENDROOT
BRANCH   1   8
ATOM      7  N   UNL     1       7.704   5.342  14.459  0.00  0.00    +0.000 NA
ATOM      8  C   UNL     1       6.637   4.617  14.518  0.00  0.00    +0.000 C 
ATOM      9  N   UNL     1       6.417   3.631  13.598  0.00  0.00    +0.000 N 
ATOM     10  H   UNL     1       8.303   5.008  13.703  0.00  0.00    +0.000 HD
ATOM     11  H   UNL     1       6.930   3.723  12.729  0.00  0.00    +0.000 HD
ATOM     12  H   UNL     1       5.441   3.407  13.430  0.00  0.00    +0.000 HD
ENDBRANCH   1   8
BRANCH   4  13
ATOM     13  C   UNL     1       2.595   5.648  18.556  0.00  0.00    +0.000 C 
BRANCH  13  14
ATOM     14  O   UNL     1       3.020   6.708  19.416  0.00  0.00    +0.000 OA
BRANCH  14  15
ATOM     15  C   UNL     1       2.159   7.766  19.526  0.00  0.00    +0.000 A 
ATOM     16  C   UNL     1       1.955   8.493  18.350  0.00  0.00    +0.000 A 
ATOM     17  C   UNL     1       1.076   9.580  18.329  0.00  0.00    +0.000 A 
ATOM     18  C   UNL     1       0.385   9.924  19.496  0.00  0.00    +0.000 A 
ATOM     19  C   UNL     1       0.580   9.197  20.678  0.00  0.00    +0.000 A 
ATOM     20  C   UNL     1       1.469   8.119  20.686  0.00  0.00    +0.000 A 
BRANCH  18  21
ATOM     21  N   UNL     1      -0.560  11.045  19.483  0.00  0.00    +0.000 N 
ATOM     22  O   UNL     1      -0.172  12.134  19.923  0.00  0.00    +0.000 OA
ATOM     23  O   UNL     1      -1.696  10.834  19.027  0.00  0.00    +0.000 OA
ENDBRANCH  18  21
ENDBRANCH  14  15
ENDBRANCH  13  14
ENDBRANCH   4  13
TORSDOF 5
ENDMDL
MODEL 5
REMARK VINA RESULT:      -7.0      1.199      1.935
REMARK  Name = 
REMARK  5 active torsions:
REMARK  status: ('A' for Active; 'I' for Inactive)
REMARK    1  A    between atoms: C_2  and  C_4
REMARK    2  A    between atoms: C_7  and  C_8
REMARK    3  A    between atoms: C_8  and  O_9
REMARK    4  A    between atoms: O_9  and  C_10
REMARK    5  A    between atoms: C_13  and  N_14
REMARK                            x       y       z     vdW  Elec       q    Type
REMARK                         _______ _______ _______ _____ _____    ______ ____
ROOT
ATOM      1  C   UNL     1       5.613   4.859  15.703  0.00  0.00    +0.000 A 
ATOM      2  C   UNL     1       5.241   6.171  16.008  0.00  0.00    +0.000 A 
ATOM      3  C   UNL     1       4.255   6.409  16.967  0.00  0.00    +0.000 A 
ATOM      4  C   UNL     1       3.628   5.340  17.628  0.00  0.00    +0.000 A 
ATOM      5  C   UNL     1       4.050   4.031  17.353  0.00  0.00    +0.000 A 
ATOM      6  C   UNL     1       5.029   3.790  16.387  0.00  0.00    +0.000 A 
ENDROOT
BRANCH   1   8
ATOM      7  N   UNL     1       7.720   5.289  14.624  0.00  0.00    +0.000 NA
ATOM      8  C   UNL     1       6.627   4.602  14.644  0.00  0.00    +0.000 C 
ATOM      9  N   UNL     1       6.385   3.656  13.688  0.00  0.00    +0.000 N 
ATOM     10  H   UNL     1       8.318   4.958  13.864  0.00  0.00    +0.000 HD
ATOM     11  H   UNL     1       6.913   3.758  12.830  0.00  0.00    +0.000 HD
ATOM     12  H   UNL     1       5.404   3.473  13.500  0.00  0.00    +0.000 HD
ENDBRANCH   1   8
BRANCH   4  13
ATOM     13  C   UNL     1       2.564   5.628  18.662  0.00  0.00    +0.000 C 
BRANCH  13  14
ATOM     14  O   UNL     1       2.944   6.745  19.470  0.00  0.00    +0.000 OA
BRANCH  14  15
ATOM     15  C   UNL     1       2.073   7.800  19.471  0.00  0.00    +0.000 A 
ATOM     16  C   UNL     1       1.435   8.046  20.690  0.00  0.00    +0.000 A 
ATOM     17  C   UNL     1       0.543   9.114  20.823  0.00  0.00    +0.000 A 
ATOM     18  C   UNL     1       0.307   9.950  19.726  0.00  0.00    +0.000 A 
ATOM     19  C   UNL     1       0.947   9.714  18.502  0.00  0.00    +0.000 A 
ATOM     20  C   UNL     1       1.829   8.637  18.381  0.00  0.00    +0.000 A 
BRANCH  18  21
ATOM     21  N   UNL     1      -0.605  11.090  19.858  0.00  0.00    +0.000 N 
ATOM     22  O   UNL     1      -0.695  11.634  20.966  0.00  0.00    +0.000 OA
ATOM     23  O   UNL     1      -1.233  11.445  18.846  0.00  0.00    +0.000 OA
ENDBRANCH  18  21
ENDBRANCH  14  15
ENDBRANCH  13  14
ENDBRANCH   4  13
TORSDOF 5
ENDMDL
MODEL 6
REMARK VINA RESULT:      -7.0      3.167      7.733
REMARK  Name = 
REMARK  5 active torsions:
REMARK  status: ('A' for Active; 'I' for Inactive)
REMARK    1  A    between atoms: C_2  and  C_4
REMARK    2  A    between atoms: C_7  and  C_8
REMARK    3  A    between atoms: C_8  and  O_9
REMARK    4  A    between atoms: O_9  and  C_10
REMARK    5  A    between atoms: C_13  and  N_14
REMARK                            x       y       z     vdW  Elec       q    Type
REMARK                         _______ _______ _______ _____ _____    ______ ____
ROOT
ATOM      1  C   UNL     1       1.403   9.687  18.866  0.00  0.00    +0.000 A 
ATOM      2  C   UNL     1       1.937   8.743  17.984  0.00  0.00    +0.000 A 
ATOM      3  C   UNL     1       2.224   7.454  18.437  0.00  0.00    +0.000 A 
ATOM      4  C   UNL     1       1.987   7.096  19.774  0.00  0.00    +0.000 A 
ATOM      5  C   UNL     1       1.398   8.035  20.634  0.00  0.00    +0.000 A 
ATOM      6  C   UNL     1       1.119   9.327  20.186  0.00  0.00    +0.000 A 
ENDROOT
BRANCH   1   8
ATOM      7  N   UNL     1       2.133  11.828  18.048  0.00  0.00    +0.000 NA
ATOM      8  C   UNL     1       1.144  11.076  18.399  0.00  0.00    +0.000 C 
ATOM      9  N   UNL     1      -0.136  11.554  18.367  0.00  0.00    +0.000 N 
ATOM     10  H   UNL     1       1.778  12.727  17.717  0.00  0.00    +0.000 HD
ATOM     11  H   UNL     1      -0.226  12.562  18.382  0.00  0.00    +0.000 HD
ATOM     12  H   UNL     1      -0.777  11.115  19.020  0.00  0.00    +0.000 HD
ENDBRANCH   1   8
BRANCH   4  13
ATOM     13  C   UNL     1       2.308   5.693  20.235  0.00  0.00    +0.000 C 
BRANCH  13  14
ATOM     14  O   UNL     1       2.389   4.807  19.116  0.00  0.00    +0.000 OA
BRANCH  14  15
ATOM     15  C   UNL     1       3.616   4.717  18.517  0.00  0.00    +0.000 A 
ATOM     16  C   UNL     1       4.705   5.019  19.340  0.00  0.00    +0.000 A 
ATOM     17  C   UNL     1       6.011   4.936  18.850  0.00  0.00    +0.000 A 
ATOM     18  C   UNL     1       6.222   4.528  17.528  0.00  0.00    +0.000 A 
ATOM     19  C   UNL     1       5.137   4.218  16.698  0.00  0.00    +0.000 A 
ATOM     20  C   UNL     1       3.835   4.315  17.199  0.00  0.00    +0.000 A 
BRANCH  18  21
ATOM     21  N   UNL     1       7.588   4.410  17.008  0.00  0.00    +0.000 N 
ATOM     22  O   UNL     1       7.768   4.626  15.803  0.00  0.00    +0.000 OA
ATOM     23  O   UNL     1       8.485   4.103  17.811  0.00  0.00    +0.000 OA
ENDBRANCH  18  21
ENDBRANCH  14  15
ENDBRANCH  13  14
ENDBRANCH   4  13
TORSDOF 5
ENDMDL
MODEL 7
REMARK VINA RESULT:      -6.9      1.642      2.170
REMARK  Name = 
REMARK  5 active torsions:
REMARK  status: ('A' for Active; 'I' for Inactive)
REMARK    1  A    between atoms: C_2  and  C_4
REMARK    2  A    between atoms: C_7  and  C_8
REMARK    3  A    between atoms: C_8  and  O_9
REMARK    4  A    between atoms: O_9  and  C_10
REMARK    5  A    between atoms: C_13  and  N_14
REMARK                            x       y       z     vdW  Elec       q    Type
REMARK                         _______ _______ _______ _____ _____    ______ ____
ROOT
ATOM      1  C   UNL     1       6.177   4.788  15.690  0.00  0.00    +0.000 A 
ATOM      2  C   UNL     1       6.853   5.484  16.696  0.00  0.00    +0.000 A 
ATOM      3  C   UNL     1       6.228   5.713  17.923  0.00  0.00    +0.000 A 
ATOM      4  C   UNL     1       4.922   5.253  18.157  0.00  0.00    +0.000 A 
ATOM      5  C   UNL     1       4.276   4.507  17.161  0.00  0.00    +0.000 A 
ATOM      6  C   UNL     1       4.895   4.285  15.929  0.00  0.00    +0.000 A 
ENDROOT
BRANCH   1   8
ATOM      7  N   UNL     1       7.723   5.418  13.958  0.00  0.00    +0.000 NA
ATOM      8  C   UNL     1       6.821   4.587  14.364  0.00  0.00    +0.000 C 
ATOM      9  N   UNL     1       6.439   3.539  13.574  0.00  0.00    +0.000 N 
ATOM     10  H   UNL     1       8.088   5.113  13.054  0.00  0.00    +0.000 HD
ATOM     11  H   UNL     1       6.637   3.642  12.587  0.00  0.00    +0.000 HD
ATOM     12  H   UNL     1       5.494   3.204  13.730  0.00  0.00    +0.000 HD
ENDBRANCH   1   8
BRANCH   4  13
ATOM     13  C   UNL     1       4.271   5.515  19.496  0.00  0.00    +0.000 C 
BRANCH  13  14
ATOM     14  O   UNL     1       2.851   5.598  19.351  0.00  0.00    +0.000 OA
BRANCH  14  15
ATOM     15  C   UNL     1       2.315   6.853  19.459  0.00  0.00    +0.000 A 
ATOM     16  C   UNL     1       2.355   7.621  18.293  0.00  0.00    +0.000 A 
ATOM     17  C   UNL     1       1.813   8.910  18.272  0.00  0.00    +0.000 A 
ATOM     18  C   UNL     1       1.212   9.419  19.429  0.00  0.00    +0.000 A 
ATOM     19  C   UNL     1       1.162   8.652  20.601  0.00  0.00    +0.000 A 
ATOM     20  C   UNL     1       1.716   7.369  20.609  0.00  0.00    +0.000 A 
BRANCH  18  21
ATOM     21  N   UNL     1       0.615  10.758  19.415  0.00  0.00    +0.000 N 
ATOM     22  O   UNL     1      -0.349  10.970  20.161  0.00  0.00    +0.000 OA
ATOM     23  O   UNL     1       1.116  11.603  18.654  0.00  0.00    +0.000 OA
ENDBRANCH  18  21
ENDBRANCH  14  15
ENDBRANCH  13  14
ENDBRANCH   4  13
TORSDOF 5
ENDMDL
MODEL 8
REMARK VINA RESULT:      -6.9      1.372      2.040
REMARK  Name = 
REMARK  5 active torsions:
REMARK  status: ('A' for Active; 'I' for Inactive)
REMARK    1  A    between atoms: C_2  and  C_4
REMARK    2  A    between atoms: C_7  and  C_8
REMARK    3  A    between atoms: C_8  and  O_9
REMARK    4  A    between atoms: O_9  and  C_10
REMARK    5  A    between atoms: C_13  and  N_14
REMARK                            x       y       z     vdW  Elec       q    Type
REMARK                         _______ _______ _______ _____ _____    ______ ____
ROOT
ATOM      1  C   UNL     1       5.414   4.931  15.910  0.00  0.00    +0.000 A 
ATOM      2  C   UNL     1       4.567   3.940  16.414  0.00  0.00    +0.000 A 
ATOM      3  C   UNL     1       3.578   4.275  17.340  0.00  0.00    +0.000 A 
ATOM      4  C   UNL     1       3.426   5.601  17.776  0.00  0.00    +0.000 A 
ATOM      5  C   UNL     1       4.245   6.596  17.220  0.00  0.00    +0.000 A 
ATOM      6  C   UNL     1       5.241   6.261  16.301  0.00  0.00    +0.000 A 
ENDROOT
BRANCH   1   8
ATOM      7  N   UNL     1       6.344   3.568  14.159  0.00  0.00    +0.000 NA
ATOM      8  C   UNL     1       6.501   4.568  14.962  0.00  0.00    +0.000 C 
ATOM      9  N   UNL     1       7.669   5.279  14.962  0.00  0.00    +0.000 N 
ATOM     10  H   UNL     1       7.162   3.484  13.553  0.00  0.00    +0.000 HD
ATOM     11  H   UNL     1       8.471   4.800  14.572  0.00  0.00    +0.000 HD
ATOM     12  H   UNL     1       7.898   5.731  15.842  0.00  0.00    +0.000 HD
ENDBRANCH   1   8
BRANCH   4  13
ATOM     13  C   UNL     1       2.346   5.935  18.779  0.00  0.00    +0.000 C 
BRANCH  13  14
ATOM     14  O   UNL     1       2.761   7.019  19.614  0.00  0.00    +0.000 OA
BRANCH  14  15
ATOM     15  C   UNL     1       1.922   8.100  19.643  0.00  0.00    +0.000 A 
ATOM     16  C   UNL     1       1.769   8.769  18.426  0.00  0.00    +0.000 A 
ATOM     17  C   UNL     1       0.917   9.872  18.323  0.00  0.00    +0.000 A 
ATOM     18  C   UNL     1       0.202  10.293  19.451  0.00  0.00    +0.000 A 
ATOM     19  C   UNL     1       0.346   9.624  20.673  0.00  0.00    +0.000 A 
ATOM     20  C   UNL     1       1.209   8.528  20.763  0.00  0.00    +0.000 A 
BRANCH  18  21
ATOM     21  N   UNL     1      -0.716  11.432  19.352  0.00  0.00    +0.000 N 
ATOM     22  O   UNL     1      -1.656  11.488  20.154  0.00  0.00    +0.000 OA
ATOM     23  O   UNL     1      -0.492  12.276  18.468  0.00  0.00    +0.000 OA
ENDBRANCH  18  21
ENDBRANCH  14  15
ENDBRANCH  13  14
ENDBRANCH   4  13
TORSDOF 5
ENDMDL
MODEL 9
REMARK VINA RESULT:      -6.9      3.323      7.979
REMARK  Name = 
REMARK  5 active torsions:
REMARK  status: ('A' for Active; 'I' for Inactive)
REMARK    1  A    between atoms: C_2  and  C_4
REMARK    2  A    between atoms: C_7  and  C_8
REMARK    3  A    between atoms: C_8  and  O_9
REMARK    4  A    between atoms: O_9  and  C_10
REMARK    5  A    between atoms: C_13  and  N_14
REMARK                            x       y       z     vdW  Elec       q    Type
REMARK                         _______ _______ _______ _____ _____    ______ ____
ROOT
ATOM      1  C   UNL     1       1.824   8.537  18.935  0.00  0.00    +0.000 A 
ATOM      2  C   UNL     1       2.304   7.813  17.840  0.00  0.00    +0.000 A 
ATOM      3  C   UNL     1       2.775   6.511  18.021  0.00  0.00    +0.000 A 
ATOM      4  C   UNL     1       2.777   5.921  19.295  0.00  0.00    +0.000 A 
ATOM      5  C   UNL     1       2.242   6.638  20.375  0.00  0.00    +0.000 A 
ATOM      6  C   UNL     1       1.778   7.943  20.199  0.00  0.00    +0.000 A 
ENDROOT
BRANCH   1   8
ATOM      7  N   UNL     1       1.741  10.606  17.711  0.00  0.00    +0.000 NA
ATOM      8  C   UNL     1       1.369   9.942  18.754  0.00  0.00    +0.000 C 
ATOM      9  N   UNL     1       0.580  10.528  19.704  0.00  0.00    +0.000 N 
ATOM     10  H   UNL     1       1.308  11.532  17.723  0.00  0.00    +0.000 HD
ATOM     11  H   UNL     1       0.588  11.540  19.714  0.00  0.00    +0.000 HD
ATOM     12  H   UNL     1       0.676  10.146  20.640  0.00  0.00    +0.000 HD
ENDBRANCH   1   8
BRANCH   4  13
ATOM     13  C   UNL     1       3.294   4.511  19.460  0.00  0.00    +0.000 C 
BRANCH  13  14
ATOM     14  O   UNL     1       4.721   4.489  19.368  0.00  0.00    +0.000 OA
BRANCH  14  15
ATOM     15  C   UNL     1       5.235   4.532  18.100  0.00  0.00    +0.000 A 
ATOM     16  C   UNL     1       6.332   5.381  17.930  0.00  0.00    +0.000 A 
ATOM     17  C   UNL     1       6.961   5.490  16.687  0.00  0.00    +0.000 A 
ATOM     18  C   UNL     1       6.493   4.723  15.613  0.00  0.00    +0.000 A 
ATOM     19  C   UNL     1       5.397   3.865  15.777  0.00  0.00    +0.000 A 
ATOM     20  C   UNL     1       4.772   3.774  17.024  0.00  0.00    +0.000 A 
BRANCH  18  21
ATOM     21  N   UNL     1       7.159   4.806  14.310  0.00  0.00    +0.000 N 
ATOM     22  O   UNL     1       8.089   5.612  14.186  0.00  0.00    +0.000 OA
ATOM     23  O   UNL     1       6.750   4.057  13.407  0.00  0.00    +0.000 OA
ENDBRANCH  18  21
ENDBRANCH  14  15
ENDBRANCH  13  14
ENDBRANCH   4  13
TORSDOF 5
ENDMDL
