MODEL 1
REMARK VINA RESULT:      -6.7      0.000      0.000
REMARK  Name = 
REMARK  6 active torsions:
REMARK  status: ('A' for Active; 'I' for Inactive)
REMARK    1  A    between atoms: C_1  and  O_2
REMARK    2  A    between atoms: O_2  and  C_3
REMARK    3  A    between atoms: C_6  and  C_7
REMARK    4  A    between atoms: N_8  and  N_9
REMARK    5  A    between atoms: C_17  and  O_18
REMARK    6  A    between atoms: O_18  and  C_19
REMARK                            x       y       z     vdW  Elec       q    Type
REMARK                         _______ _______ _______ _____ _____    ______ ____
ROOT
ATOM      1  C   UNL     1       1.759   8.171  19.374  0.00  0.00    +0.000 C 
ATOM      2  N   UNL     1       2.406   7.124  19.773  0.00  0.00    +0.000 NA
ENDROOT
BRANCH   2   3
ATOM      3  N   UNL     1       3.052   6.400  18.816  0.00  0.00    +0.000 N 
ATOM      4  C   UNL     1       2.825   5.038  18.671  0.00  0.00    +0.000 C 
ATOM      5  N   UNL     1       3.819   4.299  18.312  0.00  0.00    +0.000 NA
ATOM      6  C   UNL     1       3.820   2.843  18.192  0.00  0.00    +0.000 C 
ATOM      7  C   UNL     1       2.520   2.199  17.740  0.00  0.00    +0.000 C 
ATOM      8  C   UNL     1       1.511   2.032  18.873  0.00  0.00    +0.000 C 
ATOM      9  C   UNL     1       1.338   3.275  19.739  0.00  0.00    +0.000 C 
ATOM     10  C   UNL     1       1.400   4.548  18.918  0.00  0.00    +0.000 C 
ATOM     11  H   UNL     1       4.032   6.620  18.657  0.00  0.00    +0.000 HD
ENDBRANCH   2   3
BRANCH   1  15
ATOM     12  C   UNL     1      -0.333  10.477  22.307  0.00  0.00    +0.000 A 
ATOM     13  C   UNL     1       0.508   9.432  22.687  0.00  0.00    +0.000 A 
ATOM     14  C   UNL     1       1.188   8.692  21.723  0.00  0.00    +0.000 A 
ATOM     15  C   UNL     1       1.044   9.006  20.365  0.00  0.00    +0.000 A 
ATOM     16  C   UNL     1       0.217  10.065  19.965  0.00  0.00    +0.000 A 
ATOM     17  C   UNL     1      -0.478  10.789  20.950  0.00  0.00    +0.000 A 
BRANCH  12  19
ATOM     18  C   UNL     1      -2.153  11.812  23.067  0.00  0.00    +0.000 C 
ATOM     19  O   UNL     1      -0.946  11.117  23.350  0.00  0.00    +0.000 OA
ENDBRANCH  12  19
BRANCH  16  20
ATOM     20  O   UNL     1       0.130  10.312  18.619  0.00  0.00    +0.000 OA
ATOM     21  C   UNL     1      -1.167  10.278  18.031  0.00  0.00    +0.000 C 
ENDBRANCH  16  20
ENDBRANCH   1  15
TORSDOF 4
ENDMDL
MODEL 2
REMARK VINA RESULT:      -6.6      3.086      7.695
REMARK  Name = 
REMARK  6 active torsions:
REMARK  status: ('A' for Active; 'I' for Inactive)
REMARK    1  A    between atoms: C_1  and  O_2
REMARK    2  A    between atoms: O_2  and  C_3
REMARK    3  A    between atoms: C_6  and  C_7
REMARK    4  A    between atoms: N_8  and  N_9
REMARK    5  A    between atoms: C_17  and  O_18
REMARK    6  A    between atoms: O_18  and  C_19
REMARK                            x       y       z     vdW  Elec       q    Type
REMARK                         _______ _______ _______ _____ _____    ______ ____
ROOT
ATOM      1  C   UNL     1       2.651   7.884  18.041  0.00  0.00    +0.000 C 
ATOM      2  N   UNL     1       1.862   8.195  19.017  0.00  0.00    +0.000 NA
ENDROOT
BRANCH   2   3
ATOM      3  N   UNL     1       1.520   9.509  19.135  0.00  0.00    +0.000 N 
ATOM      4  C   UNL     1       0.752   9.958  20.201  0.00  0.00    +0.000 C 
ATOM      5  N   UNL     1      -0.079  10.920  19.978  0.00  0.00    +0.000 NA
ATOM      6  C   UNL     1      -1.039  11.474  20.929  0.00  0.00    +0.000 C 
ATOM      7  C   UNL     1      -0.613  11.500  22.387  0.00  0.00    +0.000 C 
ATOM      8  C   UNL     1      -0.805  10.157  23.088  0.00  0.00    +0.000 C 
ATOM      9  C   UNL     1      -0.288   8.963  22.295  0.00  0.00    +0.000 C 
ATOM     10  C   UNL     1       0.993   9.289  21.551  0.00  0.00    +0.000 C 
ATOM     11  H   UNL     1       1.267   9.997  18.278  0.00  0.00    +0.000 HD
ENDBRANCH   2   3
BRANCH   1  15
ATOM     12  C   UNL     1       3.749   3.772  17.604  0.00  0.00    +0.000 A 
ATOM     13  C   UNL     1       2.473   4.128  18.036  0.00  0.00    +0.000 A 
ATOM     14  C   UNL     1       2.125   5.470  18.169  0.00  0.00    +0.000 A 
ATOM     15  C   UNL     1       3.053   6.471  17.852  0.00  0.00    +0.000 A 
ATOM     16  C   UNL     1       4.336   6.132  17.399  0.00  0.00    +0.000 A 
ATOM     17  C   UNL     1       4.677   4.773  17.290  0.00  0.00    +0.000 A 
BRANCH  12  19
ATOM     18  C   UNL     1       3.302   1.603  18.480  0.00  0.00    +0.000 C 
ATOM     19  O   UNL     1       3.963   2.423  17.525  0.00  0.00    +0.000 OA
ENDBRANCH  12  19
BRANCH  16  20
ATOM     20  O   UNL     1       5.186   7.168  17.106  0.00  0.00    +0.000 OA
ATOM     21  C   UNL     1       6.578   6.950  17.314  0.00  0.00    +0.000 C 
ENDBRANCH  16  20
ENDBRANCH   1  15
TORSDOF 4
ENDMDL
MODEL 3
REMARK VINA RESULT:      -6.6      1.859      3.200
REMARK  Name = 
REMARK  6 active torsions:
REMARK  status: ('A' for Active; 'I' for Inactive)
REMARK    1  A    between atoms: C_1  and  O_2
REMARK    2  A    between atoms: O_2  and  C_3
REMARK    3  A    between atoms: C_6  and  C_7
REMARK    4  A    between atoms: N_8  and  N_9
REMARK    5  A    between atoms: C_17  and  O_18
REMARK    6  A    between atoms: O_18  and  C_19
REMARK                            x       y       z     vdW  Elec       q    Type
REMARK                         _______ _______ _______ _____ _____    ______ ____
ROOT
ATOM      1  C   UNL     1       1.098   8.255  21.152  0.00  0.00    +0.000 C 
ATOM      2  N   UNL     1       1.772   7.380  20.478  0.00  0.00    +0.000 NA
ENDROOT
BRANCH   2   3
ATOM      3  N   UNL     1       1.903   6.144  21.037  0.00  0.00    +0.000 N 
ATOM      4  C   UNL     1       1.910   4.999  20.252  0.00  0.00    +0.000 C 
ATOM      5  N   UNL     1       1.374   3.932  20.742  0.00  0.00    +0.000 NA
ATOM      6  C   UNL     1       1.193   2.657  20.054  0.00  0.00    +0.000 C 
ATOM      7  C   UNL     1       2.266   2.269  19.051  0.00  0.00    +0.000 C 
ATOM      8  C   UNL     1       2.085   2.944  17.693  0.00  0.00    +0.000 C 
ATOM      9  C   UNL     1       1.800   4.438  17.776  0.00  0.00    +0.000 C 
ATOM     10  C   UNL     1       2.587   5.103  18.888  0.00  0.00    +0.000 C 
ATOM     11  H   UNL     1       1.408   5.979  21.910  0.00  0.00    +0.000 HD
ENDBRANCH   2   3
BRANCH   1  15
ATOM     12  C   UNL     1       0.660  12.164  19.470  0.00  0.00    +0.000 A 
ATOM     13  C   UNL     1       1.021  11.080  18.672  0.00  0.00    +0.000 A 
ATOM     14  C   UNL     1       1.156   9.811  19.230  0.00  0.00    +0.000 A 
ATOM     15  C   UNL     1       0.911   9.614  20.595  0.00  0.00    +0.000 A 
ATOM     16  C   UNL     1       0.528  10.690  21.410  0.00  0.00    +0.000 A 
ATOM     17  C   UNL     1       0.418  11.967  20.835  0.00  0.00    +0.000 A 
BRANCH  12  19
ATOM     18  C   UNL     1       1.788  14.030  18.513  0.00  0.00    +0.000 C 
ATOM     19  O   UNL     1       0.571  13.354  18.800  0.00  0.00    +0.000 OA
ENDBRANCH  12  19
BRANCH  16  20
ATOM     20  O   UNL     1       0.304  10.417  22.735  0.00  0.00    +0.000 OA
ATOM     21  C   UNL     1      -1.040  10.489  23.200  0.00  0.00    +0.000 C 
ENDBRANCH  16  20
ENDBRANCH   1  15
TORSDOF 4
ENDMDL
MODEL 4
REMARK VINA RESULT:      -6.5      3.330      8.093
REMARK  Name = 
REMARK  6 active torsions:
REMARK  status: ('A' for Active; 'I' for Inactive)
REMARK    1  A    between atoms: C_1  and  O_2
REMARK    2  A    between atoms: O_2  and  C_3
REMARK    3  A    between atoms: C_6  and  C_7
REMARK    4  A    between atoms: N_8  and  N_9
REMARK    5  A    between atoms: C_17  and  O_18
REMARK    6  A    between atoms: O_18  and  C_19
REMARK                            x       y       z     vdW  Elec       q    Type
REMARK                         _______ _______ _______ _____ _____    ______ ____
ROOT
ATOM      1  C   UNL     1       2.570   6.051  19.084  0.00  0.00    +0.000 C 
ATOM      2  N   UNL     1       2.585   7.173  19.728  0.00  0.00    +0.000 NA
ENDROOT
BRANCH   2   3
ATOM      3  N   UNL     1       1.660   7.323  20.718  0.00  0.00    +0.000 N 
ATOM      4  C   UNL     1       1.044   8.547  20.944  0.00  0.00    +0.000 C 
ATOM      5  N   UNL     1       0.753   8.856  22.162  0.00  0.00    +0.000 NA
ATOM      6  C   UNL     1       0.192  10.122  22.625  0.00  0.00    +0.000 C 
ATOM      7  C   UNL     1      -0.769  10.825  21.681  0.00  0.00    +0.000 C 
ATOM      8  C   UNL     1      -0.057  11.624  20.592  0.00  0.00    +0.000 C 
ATOM      9  C   UNL     1       1.072  10.865  19.904  0.00  0.00    +0.000 C 
ATOM     10  C   UNL     1       0.736   9.399  19.716  0.00  0.00    +0.000 C 
ATOM     11  H   UNL     1       1.845   6.846  21.597  0.00  0.00    +0.000 HD
ENDBRANCH   2   3
BRANCH   1  15
ATOM     12  C   UNL     1       5.368   5.486  15.897  0.00  0.00    +0.000 A 
ATOM     13  C   UNL     1       5.044   6.765  16.343  0.00  0.00    +0.000 A 
ATOM     14  C   UNL     1       4.136   6.937  17.386  0.00  0.00    +0.000 A 
ATOM     15  C   UNL     1       3.556   5.821  18.003  0.00  0.00    +0.000 A 
ATOM     16  C   UNL     1       3.883   4.525  17.579  0.00  0.00    +0.000 A 
ATOM     17  C   UNL     1       4.785   4.371  16.512  0.00  0.00    +0.000 A 
BRANCH  12  19
ATOM     18  C   UNL     1       6.354   4.254  14.113  0.00  0.00    +0.000 C 
ATOM     19  O   UNL     1       6.265   5.458  14.864  0.00  0.00    +0.000 OA
ENDBRANCH  12  19
BRANCH  16  20
ATOM     20  O   UNL     1       3.275   3.484  18.233  0.00  0.00    +0.000 OA
ATOM     21  C   UNL     1       4.087   2.686  19.089  0.00  0.00    +0.000 C 
ENDBRANCH  16  20
ENDBRANCH   1  15
TORSDOF 4
ENDMDL
MODEL 5
REMARK VINA RESULT:      -6.5      3.246      7.614
REMARK  Name = 
REMARK  6 active torsions:
REMARK  status: ('A' for Active; 'I' for Inactive)
REMARK    1  A    between atoms: C_1  and  O_2
REMARK    2  A    between atoms: O_2  and  C_3
REMARK    3  A    between atoms: C_6  and  C_7
REMARK    4  A    between atoms: N_8  and  N_9
REMARK    5  A    between atoms: C_17  and  O_18
REMARK    6  A    between atoms: O_18  and  C_19
REMARK                            x       y       z     vdW  Elec       q    Type
REMARK                         _______ _______ _______ _____ _____    ______ ____
ROOT
ATOM      1  C   UNL     1       2.174   8.045  17.767  0.00  0.00    +0.000 C 
ATOM      2  N   UNL     1       2.376   9.311  17.941  0.00  0.00    +0.000 NA
ENDROOT
BRANCH   2   3
ATOM      3  N   UNL     1       1.336  10.143  17.655  0.00  0.00    +0.000 N 
ATOM      4  C   UNL     1       0.471  10.578  18.650  0.00  0.00    +0.000 C 
ATOM      5  N   UNL     1      -0.769  10.748  18.336  0.00  0.00    +0.000 NA
ATOM      6  C   UNL     1      -1.853  11.108  19.246  0.00  0.00    +0.000 C 
ATOM      7  C   UNL     1      -1.493  12.026  20.401  0.00  0.00    +0.000 C 
ATOM      8  C   UNL     1      -0.853  11.286  21.574  0.00  0.00    +0.000 C 
ATOM      9  C   UNL     1       0.246  10.312  21.168  0.00  0.00    +0.000 C 
ATOM     10  C   UNL     1       1.082  10.849  20.022  0.00  0.00    +0.000 C 
ATOM     11  H   UNL     1       0.830   9.966  16.791  0.00  0.00    +0.000 HD
ENDBRANCH   2   3
BRANCH   1  15
ATOM     12  C   UNL     1       5.325   5.249  18.513  0.00  0.00    +0.000 A 
ATOM     13  C   UNL     1       5.376   6.105  17.414  0.00  0.00    +0.000 A 
ATOM     14  C   UNL     1       4.347   7.015  17.185  0.00  0.00    +0.000 A 
ATOM     15  C   UNL     1       3.261   7.087  18.068  0.00  0.00    +0.000 A 
ATOM     16  C   UNL     1       3.202   6.245  19.189  0.00  0.00    +0.000 A 
ATOM     17  C   UNL     1       4.239   5.319  19.394  0.00  0.00    +0.000 A 
BRANCH  12  19
ATOM     18  C   UNL     1       7.519   4.668  17.792  0.00  0.00    +0.000 C 
ATOM     19  O   UNL     1       6.393   4.400  18.617  0.00  0.00    +0.000 OA
ENDBRANCH  12  19
BRANCH  16  20
ATOM     20  O   UNL     1       2.110   6.376  20.008  0.00  0.00    +0.000 OA
ATOM     21  C   UNL     1       1.611   5.195  20.627  0.00  0.00    +0.000 C 
ENDBRANCH  16  20
ENDBRANCH   1  15
TORSDOF 4
ENDMDL
MODEL 6
REMARK VINA RESULT:      -6.4      1.435      1.643
REMARK  Name = 
REMARK  6 active torsions:
REMARK  status: ('A' for Active; 'I' for Inactive)
REMARK    1  A    between atoms: C_1  and  O_2
REMARK    2  A    between atoms: O_2  and  C_3
REMARK    3  A    between atoms: C_6  and  C_7
REMARK    4  A    between atoms: N_8  and  N_9
REMARK    5  A    between atoms: C_17  and  O_18
REMARK    6  A    between atoms: O_18  and  C_19
REMARK                            x       y       z     vdW  Elec       q    Type
REMARK                         _______ _______ _______ _____ _____    ______ ____
ROOT
ATOM      1  C   UNL     1       1.359   8.810  19.750  0.00  0.00    +0.000 C 
ATOM      2  N   UNL     1       1.926   7.749  20.224  0.00  0.00    +0.000 NA
ENDROOT
BRANCH   2   3
ATOM      3  N   UNL     1       2.519   6.916  19.323  0.00  0.00    +0.000 N 
ATOM      4  C   UNL     1       2.724   5.574  19.612  0.00  0.00    +0.000 C 
ATOM      5  N   UNL     1       3.786   5.014  19.141  0.00  0.00    +0.000 NA
ATOM      6  C   UNL     1       4.236   3.649  19.401  0.00  0.00    +0.000 C 
ATOM      7  C   UNL     1       3.152   2.602  19.589  0.00  0.00    +0.000 C 
ATOM      8  C   UNL     1       2.564   2.598  20.999  0.00  0.00    +0.000 C 
ATOM      9  C   UNL     1       2.210   3.983  21.526  0.00  0.00    +0.000 C 
ATOM     10  C   UNL     1       1.647   4.876  20.438  0.00  0.00    +0.000 C 
ATOM     11  H   UNL     1       3.302   7.294  18.794  0.00  0.00    +0.000 HD
ENDBRANCH   2   3
BRANCH   1  15
ATOM     12  C   UNL     1      -0.623  11.470  22.453  0.00  0.00    +0.000 A 
ATOM     13  C   UNL     1      -0.521  10.109  22.737  0.00  0.00    +0.000 A 
ATOM     14  C   UNL     1       0.131   9.254  21.852  0.00  0.00    +0.000 A 
ATOM     15  C   UNL     1       0.705   9.761  20.678  0.00  0.00    +0.000 A 
ATOM     16  C   UNL     1       0.628  11.130  20.385  0.00  0.00    +0.000 A 
ATOM     17  C   UNL     1      -0.052  11.976  21.279  0.00  0.00    +0.000 A 
BRANCH  12  19
ATOM     18  C   UNL     1      -2.714  12.133  23.379  0.00  0.00    +0.000 C 
ATOM     19  O   UNL     1      -1.294  12.195  23.399  0.00  0.00    +0.000 OA
ENDBRANCH  12  19
BRANCH  16  20
ATOM     20  O   UNL     1       1.216  11.551  19.219  0.00  0.00    +0.000 OA
ATOM     21  C   UNL     1       1.895  12.802  19.243  0.00  0.00    +0.000 C 
ENDBRANCH  16  20
ENDBRANCH   1  15
TORSDOF 4
ENDMDL
MODEL 7
REMARK VINA RESULT:      -6.3      1.665      2.792
REMARK  Name = 
REMARK  6 active torsions:
REMARK  status: ('A' for Active; 'I' for Inactive)
REMARK    1  A    between atoms: C_1  and  O_2
REMARK    2  A    between atoms: O_2  and  C_3
REMARK    3  A    between atoms: C_6  and  C_7
REMARK    4  A    between atoms: N_8  and  N_9
REMARK    5  A    between atoms: C_17  and  O_18
REMARK    6  A    between atoms: O_18  and  C_19
REMARK                            x       y       z     vdW  Elec       q    Type
REMARK                         _______ _______ _______ _____ _____    ______ ____
ROOT
ATOM      1  C   UNL     1       2.537   7.454  19.238  0.00  0.00    +0.000 C 
ATOM      2  N   UNL     1       3.099   7.053  18.143  0.00  0.00    +0.000 NA
ENDROOT
BRANCH   2   3
ATOM      3  N   UNL     1       3.992   6.030  18.252  0.00  0.00    +0.000 N 
ATOM      4  C   UNL     1       3.565   4.720  18.428  0.00  0.00    +0.000 C 
ATOM      5  N   UNL     1       4.291   3.946  19.161  0.00  0.00    +0.000 NA
ATOM      6  C   UNL     1       3.979   2.573  19.547  0.00  0.00    +0.000 C 
ATOM      7  C   UNL     1       3.215   1.740  18.532  0.00  0.00    +0.000 C 
ATOM      8  C   UNL     1       1.712   2.009  18.549  0.00  0.00    +0.000 C 
ATOM      9  C   UNL     1       1.347   3.488  18.563  0.00  0.00    +0.000 C 
ATOM     10  C   UNL     1       2.286   4.311  17.703  0.00  0.00    +0.000 C 
ATOM     11  H   UNL     1       4.833   6.210  18.794  0.00  0.00    +0.000 HD
ENDBRANCH   2   3
BRANCH   1  15
ATOM     12  C   UNL     1      -0.245  10.696  19.000  0.00  0.00    +0.000 A 
ATOM     13  C   UNL     1       0.344  10.175  17.849  0.00  0.00    +0.000 A 
ATOM     14  C   UNL     1       1.244   9.115  17.939  0.00  0.00    +0.000 A 
ATOM     15  C   UNL     1       1.549   8.556  19.186  0.00  0.00    +0.000 A 
ATOM     16  C   UNL     1       0.953   9.056  20.354  0.00  0.00    +0.000 A 
ATOM     17  C   UNL     1       0.063  10.139  20.247  0.00  0.00    +0.000 A 
BRANCH  12  19
ATOM     18  C   UNL     1      -2.363  11.428  18.196  0.00  0.00    +0.000 C 
ATOM     19  O   UNL     1      -1.102  11.738  18.774  0.00  0.00    +0.000 OA
ENDBRANCH  12  19
BRANCH  16  20
ATOM     20  O   UNL     1       1.301   8.455  21.536  0.00  0.00    +0.000 OA
ATOM     21  C   UNL     1       1.129   9.212  22.730  0.00  0.00    +0.000 C 
ENDBRANCH  16  20
ENDBRANCH   1  15
TORSDOF 4
ENDMDL
MODEL 8
REMARK VINA RESULT:      -6.3      1.511      2.794
REMARK  Name = 
REMARK  6 active torsions:
REMARK  status: ('A' for Active; 'I' for Inactive)
REMARK    1  A    between atoms: C_1  and  O_2
REMARK    2  A    between atoms: O_2  and  C_3
REMARK    3  A    between atoms: C_6  and  C_7
REMARK    4  A    between atoms: N_8  and  N_9
REMARK    5  A    between atoms: C_17  and  O_18
REMARK    6  A    between atoms: O_18  and  C_19
REMARK                            x       y       z     vdW  Elec       q    Type
REMARK                         _______ _______ _______ _____ _____    ______ ____
ROOT
ATOM      1  C   UNL     1       1.817   8.445  20.399  0.00  0.00    +0.000 C 
ATOM      2  N   UNL     1       1.860   7.329  19.747  0.00  0.00    +0.000 NA
ENDROOT
BRANCH   2   3
ATOM      3  N   UNL     1       2.836   6.448  20.102  0.00  0.00    +0.000 N 
ATOM      4  C   UNL     1       2.906   5.185  19.529  0.00  0.00    +0.000 C 
ATOM      5  N   UNL     1       3.316   4.211  20.271  0.00  0.00    +0.000 NA
ATOM      6  C   UNL     1       3.375   2.801  19.896  0.00  0.00    +0.000 C 
ATOM      7  C   UNL     1       3.692   2.498  18.442  0.00  0.00    +0.000 C 
ATOM      8  C   UNL     1       2.472   2.612  17.530  0.00  0.00    +0.000 C 
ATOM      9  C   UNL     1       1.648   3.874  17.752  0.00  0.00    +0.000 C 
ATOM     10  C   UNL     1       2.522   5.075  18.056  0.00  0.00    +0.000 C 
ATOM     11  H   UNL     1       3.085   6.410  21.088  0.00  0.00    +0.000 HD
ENDBRANCH   2   3
BRANCH   1  15
ATOM     12  C   UNL     1      -1.136  11.352  19.334  0.00  0.00    +0.000 A 
ATOM     13  C   UNL     1      -0.596  10.498  18.374  0.00  0.00    +0.000 A 
ATOM     14  C   UNL     1       0.361   9.552  18.734  0.00  0.00    +0.000 A 
ATOM     15  C   UNL     1       0.773   9.442  20.068  0.00  0.00    +0.000 A 
ATOM     16  C   UNL     1       0.228  10.280  21.051  0.00  0.00    +0.000 A 
ATOM     17  C   UNL     1      -0.721  11.243  20.667  0.00  0.00    +0.000 A 
BRANCH  12  19
ATOM     18  C   UNL     1      -3.256  11.697  18.307  0.00  0.00    +0.000 C 
ATOM     19  O   UNL     1      -2.058  12.238  18.847  0.00  0.00    +0.000 OA
ENDBRANCH  12  19
BRANCH  16  20
ATOM     20  O   UNL     1       0.680  10.110  22.335  0.00  0.00    +0.000 OA
ATOM     21  C   UNL     1      -0.262   9.669  23.307  0.00  0.00    +0.000 C 
ENDBRANCH  16  20
ENDBRANCH   1  15
TORSDOF 4
ENDMDL
MODEL 9
REMARK VINA RESULT:      -6.3      2.883      7.422
REMARK  Name = 
REMARK  6 active torsions:
REMARK  status: ('A' for Active; 'I' for Inactive)
REMARK    1  A    between atoms: C_1  and  O_2
REMARK    2  A    between atoms: O_2  and  C_3
REMARK    3  A    between atoms: C_6  and  C_7
REMARK    4  A    between atoms: N_8  and  N_9
REMARK    5  A    between atoms: C_17  and  O_18
REMARK    6  A    between atoms: O_18  and  C_19
REMARK                            x       y       z     vdW  Elec       q    Type
REMARK                         _______ _______ _______ _____ _____    ______ ____
ROOT
ATOM      1  C   UNL     1       1.970   7.567  20.537  0.00  0.00    +0.000 C 
ATOM      2  N   UNL     1       0.930   7.934  21.213  0.00  0.00    +0.000 NA
ENDROOT
BRANCH   2   3
ATOM      3  N   UNL     1       0.950   9.192  21.735  0.00  0.00    +0.000 N 
ATOM      4  C   UNL     1       0.583  10.292  20.971  0.00  0.00    +0.000 C 
ATOM      5  N   UNL     1       1.203  11.403  21.181  0.00  0.00    +0.000 NA
ATOM      6  C   UNL     1       1.038  12.645  20.431  0.00  0.00    +0.000 C 
ATOM      7  C   UNL     1      -0.355  12.936  19.898  0.00  0.00    +0.000 C 
ATOM      8  C   UNL     1      -0.663  12.195  18.598  0.00  0.00    +0.000 C 
ATOM      9  C   UNL     1      -0.284  10.719  18.621  0.00  0.00    +0.000 C 
ATOM     10  C   UNL     1      -0.553  10.087  19.972  0.00  0.00    +0.000 C 
ATOM     11  H   UNL     1       1.729   9.424  22.347  0.00  0.00    +0.000 HD
ENDBRANCH   2   3
BRANCH   1  15
ATOM     12  C   UNL     1       2.107   3.611  18.913  0.00  0.00    +0.000 A 
ATOM     13  C   UNL     1       1.546   3.849  20.166  0.00  0.00    +0.000 A 
ATOM     14  C   UNL     1       1.503   5.142  20.682  0.00  0.00    +0.000 A 
ATOM     15  C   UNL     1       2.007   6.215  19.935  0.00  0.00    +0.000 A 
ATOM     16  C   UNL     1       2.559   5.997  18.664  0.00  0.00    +0.000 A 
ATOM     17  C   UNL     1       2.614   4.683  18.168  0.00  0.00    +0.000 A 
BRANCH  12  19
ATOM     18  C   UNL     1       3.340   1.715  18.169  0.00  0.00    +0.000 C 
ATOM     19  O   UNL     1       2.095   2.298  18.529  0.00  0.00    +0.000 OA
ENDBRANCH  12  19
BRANCH  16  20
ATOM     20  O   UNL     1       3.029   7.097  17.993  0.00  0.00    +0.000 OA
ATOM     21  C   UNL     1       4.271   6.964  17.309  0.00  0.00    +0.000 C 
ENDBRANCH  16  20
ENDBRANCH   1  15
TORSDOF 4
ENDMDL
