MODEL 1
REMARK VINA RESULT:      -7.1      0.000      0.000
REMARK  Name = 
REMARK  11 active torsions:
REMARK  status: ('A' for Active; 'I' for Inactive)
REMARK    1  A    between atoms: C_1  and  O_2
REMARK    2  A    between atoms: O_2  and  C_3
REMARK    3  A    between atoms: C_6  and  C_7
REMARK    4  A    between atoms: C_7  and  N_8
REMARK    5  A    between atoms: N_8  and  C_9
REMARK    6  A    between atoms: N_8  and  C_13
REMARK    7  A    between atoms: C_9  and  C_10
REMARK    8  A    between atoms: C_10  and  C_11
REMARK    9  A    between atoms: C_10  and  C_12
REMARK   10  A    between atoms: C_19  and  O_20
REMARK   11  A    between atoms: O_20  and  C_21
REMARK                            x       y       z     vdW  Elec       q    Type
REMARK                         _______ _______ _______ _____ _____    ______ ____
ROOT
ATOM      1  N   UNL     1       3.691   4.689  18.692  0.00  0.00    +0.000 NA
ENDROOT
BRANCH   1   2
ATOM      2  C   UNL     1       3.394   4.170  20.050  0.00  0.00    +0.000 C 
ATOM      3  C   UNL     1       3.152   2.641  20.112  0.00  0.00    +0.000 C 
ATOM      4  C   UNL     1       1.722   2.181  19.818  0.00  0.00    +0.000 C 
ATOM      5  N   UNL     1       0.688   2.927  20.531  0.00  0.00    +0.000 NA
ATOM      6  C   UNL     1       0.866   4.376  20.526  0.00  0.00    +0.000 C 
ATOM      7  C   UNL     1       2.282   4.852  20.863  0.00  0.00    +0.000 C 
ATOM      8  H   UNL     1       0.634   2.592  21.492  0.00  0.00    +0.000 HD
ENDBRANCH   1   2
BRANCH   1   9
ATOM      9  C   UNL     1       4.246   3.662  17.783  0.00  0.00    +0.000 C 
BRANCH   9  13
ATOM     10  C   UNL     1       7.132   5.081  14.935  0.00  0.00    +0.000 A 
ATOM     11  C   UNL     1       5.913   4.559  14.513  0.00  0.00    +0.000 A 
ATOM     12  C   UNL     1       5.002   4.078  15.440  0.00  0.00    +0.000 A 
ATOM     13  C   UNL     1       5.303   4.129  16.814  0.00  0.00    +0.000 A 
ATOM     14  C   UNL     1       6.566   4.569  17.234  0.00  0.00    +0.000 A 
ATOM     15  C   UNL     1       7.482   5.043  16.288  0.00  0.00    +0.000 A 
BRANCH  10  17
ATOM     16  C   UNL     1       7.668   5.052  12.627  0.00  0.00    +0.000 C 
ATOM     17  O   UNL     1       7.909   5.587  13.924  0.00  0.00    +0.000 OA
ENDBRANCH  10  17
BRANCH  14  18
ATOM     18  O   UNL     1       6.836   4.452  18.572  0.00  0.00    +0.000 OA
ATOM     19  C   UNL     1       7.307   5.609  19.247  0.00  0.00    +0.000 C 
ENDBRANCH  14  18
ENDBRANCH   9  13
ENDBRANCH   1   9
BRANCH   1  20
ATOM     20  C   UNL     1       2.570   5.378  18.003  0.00  0.00    +0.000 C 
BRANCH  20  21
ATOM     21  C   UNL     1       2.616   6.903  17.762  0.00  0.00    +0.000 C 
ATOM     22  C   UNL     1       2.195   7.740  18.972  0.00  0.00    +0.000 C 
ATOM     23  C   UNL     1       4.058   7.286  17.377  0.00  0.00    +0.000 C 
ENDBRANCH  20  21
ENDBRANCH   1  20
TORSDOF 7
ENDMDL
MODEL 2
REMARK VINA RESULT:      -6.9      1.353      1.808
REMARK  Name = 
REMARK  11 active torsions:
REMARK  status: ('A' for Active; 'I' for Inactive)
REMARK    1  A    between atoms: C_1  and  O_2
REMARK    2  A    between atoms: O_2  and  C_3
REMARK    3  A    between atoms: C_6  and  C_7
REMARK    4  A    between atoms: C_7  and  N_8
REMARK    5  A    between atoms: N_8  and  C_9
REMARK    6  A    between atoms: N_8  and  C_13
REMARK    7  A    between atoms: C_9  and  C_10
REMARK    8  A    between atoms: C_10  and  C_11
REMARK    9  A    between atoms: C_10  and  C_12
REMARK   10  A    between atoms: C_19  and  O_20
REMARK   11  A    between atoms: O_20  and  C_21
REMARK                            x       y       z     vdW  Elec       q    Type
REMARK                         _______ _______ _______ _____ _____    ______ ____
ROOT
ATOM      1  N   UNL     1       3.653   5.105  19.209  0.00  0.00    +0.000 NA
ENDROOT
BRANCH   1   2
ATOM      2  C   UNL     1       3.062   3.747  19.113  0.00  0.00    +0.000 C 
ATOM      3  C   UNL     1       1.534   3.732  18.853  0.00  0.00    +0.000 C 
ATOM      4  C   UNL     1       0.647   3.835  20.095  0.00  0.00    +0.000 C 
ATOM      5  N   UNL     1       1.024   2.940  21.186  0.00  0.00    +0.000 NA
ATOM      6  C   UNL     1       2.455   2.894  21.472  0.00  0.00    +0.000 C 
ATOM      7  C   UNL     1       3.354   2.744  20.241  0.00  0.00    +0.000 C 
ATOM      8  H   UNL     1       0.686   2.001  20.981  0.00  0.00    +0.000 HD
ENDBRANCH   1   2
BRANCH   1   9
ATOM      9  C   UNL     1       5.129   5.107  19.103  0.00  0.00    +0.000 C 
BRANCH   9  13
ATOM     10  C   UNL     1       6.584   4.732  15.078  0.00  0.00    +0.000 A 
ATOM     11  C   UNL     1       5.617   3.860  15.569  0.00  0.00    +0.000 A 
ATOM     12  C   UNL     1       5.177   3.972  16.879  0.00  0.00    +0.000 A 
ATOM     13  C   UNL     1       5.698   4.981  17.711  0.00  0.00    +0.000 A 
ATOM     14  C   UNL     1       6.736   5.800  17.247  0.00  0.00    +0.000 A 
ATOM     15  C   UNL     1       7.180   5.670  15.927  0.00  0.00    +0.000 A 
BRANCH  10  17
ATOM     16  C   UNL     1       6.034   3.657  13.039  0.00  0.00    +0.000 C 
ATOM     17  O   UNL     1       6.878   4.557  13.749  0.00  0.00    +0.000 OA
ENDBRANCH  10  17
BRANCH  14  18
ATOM     18  O   UNL     1       7.290   6.657  18.161  0.00  0.00    +0.000 OA
ATOM     19  C   UNL     1       7.750   7.913  17.684  0.00  0.00    +0.000 C 
ENDBRANCH  14  18
ENDBRANCH   9  13
ENDBRANCH   1   9
BRANCH   1  20
ATOM     20  C   UNL     1       3.108   6.117  18.268  0.00  0.00    +0.000 C 
BRANCH  20  21
ATOM     21  C   UNL     1       2.737   7.531  18.767  0.00  0.00    +0.000 C 
ATOM     22  C   UNL     1       1.886   8.338  17.784  0.00  0.00    +0.000 C 
ATOM     23  C   UNL     1       1.957   7.385  20.088  0.00  0.00    +0.000 C 
ENDBRANCH  20  21
ENDBRANCH   1  20
TORSDOF 7
ENDMDL
MODEL 3
REMARK VINA RESULT:      -6.8      0.871      1.638
REMARK  Name = 
REMARK  11 active torsions:
REMARK  status: ('A' for Active; 'I' for Inactive)
REMARK    1  A    between atoms: C_1  and  O_2
REMARK    2  A    between atoms: O_2  and  C_3
REMARK    3  A    between atoms: C_6  and  C_7
REMARK    4  A    between atoms: C_7  and  N_8
REMARK    5  A    between atoms: N_8  and  C_9
REMARK    6  A    between atoms: N_8  and  C_13
REMARK    7  A    between atoms: C_9  and  C_10
REMARK    8  A    between atoms: C_10  and  C_11
REMARK    9  A    between atoms: C_10  and  C_12
REMARK   10  A    between atoms: C_19  and  O_20
REMARK   11  A    between atoms: O_20  and  C_21
REMARK                            x       y       z     vdW  Elec       q    Type
REMARK                         _______ _______ _______ _____ _____    ______ ____
ROOT
ATOM      1  N   UNL     1       3.083   4.274  18.296  0.00  0.00    +0.000 NA
ENDROOT
BRANCH   1   2
ATOM      2  C   UNL     1       2.007   3.624  19.084  0.00  0.00    +0.000 C 
ATOM      3  C   UNL     1       1.381   4.526  20.178  0.00  0.00    +0.000 C 
ATOM      4  C   UNL     1       2.110   4.542  21.524  0.00  0.00    +0.000 C 
ATOM      5  N   UNL     1       2.461   3.221  22.039  0.00  0.00    +0.000 NA
ATOM      6  C   UNL     1       3.041   2.315  21.053  0.00  0.00    +0.000 C 
ATOM      7  C   UNL     1       2.295   2.253  19.717  0.00  0.00    +0.000 C 
ATOM      8  H   UNL     1       1.634   2.793  22.454  0.00  0.00    +0.000 HD
ENDBRANCH   1   2
BRANCH   1   9
ATOM      9  C   UNL     1       3.718   3.366  17.316  0.00  0.00    +0.000 C 
BRANCH   9  13
ATOM     10  C   UNL     1       7.079   4.972  15.175  0.00  0.00    +0.000 A 
ATOM     11  C   UNL     1       6.000   4.415  14.492  0.00  0.00    +0.000 A 
ATOM     12  C   UNL     1       4.935   3.874  15.195  0.00  0.00    +0.000 A 
ATOM     13  C   UNL     1       4.936   3.900  16.603  0.00  0.00    +0.000 A 
ATOM     14  C   UNL     1       6.060   4.377  17.291  0.00  0.00    +0.000 A 
ATOM     15  C   UNL     1       7.134   4.910  16.571  0.00  0.00    +0.000 A 
BRANCH  10  17
ATOM     16  C   UNL     1       7.858   5.323  12.964  0.00  0.00    +0.000 C 
ATOM     17  O   UNL     1       8.030   5.535  14.362  0.00  0.00    +0.000 OA
ENDBRANCH  10  17
BRANCH  14  18
ATOM     18  O   UNL     1       6.045   4.233  18.653  0.00  0.00    +0.000 OA
ATOM     19  C   UNL     1       6.583   5.296  19.426  0.00  0.00    +0.000 C 
ENDBRANCH  14  18
ENDBRANCH   9  13
ENDBRANCH   1   9
BRANCH   1  20
ATOM     20  C   UNL     1       2.707   5.534  17.603  0.00  0.00    +0.000 C 
BRANCH  20  21
ATOM     21  C   UNL     1       3.311   6.884  18.049  0.00  0.00    +0.000 C 
ATOM     22  C   UNL     1       4.399   7.421  17.117  0.00  0.00    +0.000 C 
ATOM     23  C   UNL     1       2.171   7.919  18.124  0.00  0.00    +0.000 C 
ENDBRANCH  20  21
ENDBRANCH   1  20
TORSDOF 7
ENDMDL
MODEL 4
REMARK VINA RESULT:      -6.7      0.905      1.474
REMARK  Name = 
REMARK  11 active torsions:
REMARK  status: ('A' for Active; 'I' for Inactive)
REMARK    1  A    between atoms: C_1  and  O_2
REMARK    2  A    between atoms: O_2  and  C_3
REMARK    3  A    between atoms: C_6  and  C_7
REMARK    4  A    between atoms: C_7  and  N_8
REMARK    5  A    between atoms: N_8  and  C_9
REMARK    6  A    between atoms: N_8  and  C_13
REMARK    7  A    between atoms: C_9  and  C_10
REMARK    8  A    between atoms: C_10  and  C_11
REMARK    9  A    between atoms: C_10  and  C_12
REMARK   10  A    between atoms: C_19  and  O_20
REMARK   11  A    between atoms: O_20  and  C_21
REMARK                            x       y       z     vdW  Elec       q    Type
REMARK                         _______ _______ _______ _____ _____    ______ ____
ROOT
ATOM      1  N   UNL     1       3.871   4.677  18.970  0.00  0.00    +0.000 NA
ENDROOT
BRANCH   1   2
ATOM      2  C   UNL     1       2.507   4.324  18.505  0.00  0.00    +0.000 C 
ATOM      3  C   UNL     1       1.366   4.864  19.404  0.00  0.00    +0.000 C 
ATOM      4  C   UNL     1       0.990   3.988  20.601  0.00  0.00    +0.000 C 
ATOM      5  N   UNL     1       0.813   2.573  20.284  0.00  0.00    +0.000 NA
ATOM      6  C   UNL     1       1.848   2.005  19.425  0.00  0.00    +0.000 C 
ATOM      7  C   UNL     1       2.201   2.850  18.198  0.00  0.00    +0.000 C 
ATOM      8  H   UNL     1      -0.101   2.437  19.855  0.00  0.00    +0.000 HD
ENDBRANCH   1   2
BRANCH   1   9
ATOM      9  C   UNL     1       4.905   3.714  18.528  0.00  0.00    +0.000 C 
BRANCH   9  13
ATOM     10  C   UNL     1       6.875   4.798  14.868  0.00  0.00    +0.000 A 
ATOM     11  C   UNL     1       5.601   4.237  14.851  0.00  0.00    +0.000 A 
ATOM     12  C   UNL     1       4.988   3.864  16.037  0.00  0.00    +0.000 A 
ATOM     13  C   UNL     1       5.648   4.068  17.264  0.00  0.00    +0.000 A 
ATOM     14  C   UNL     1       6.965   4.547  17.276  0.00  0.00    +0.000 A 
ATOM     15  C   UNL     1       7.578   4.909  16.071  0.00  0.00    +0.000 A 
BRANCH  10  17
ATOM     16  C   UNL     1       7.016   4.320  12.551  0.00  0.00    +0.000 C 
ATOM     17  O   UNL     1       7.336   5.186  13.635  0.00  0.00    +0.000 OA
ENDBRANCH  10  17
BRANCH  14  18
ATOM     18  O   UNL     1       7.590   4.578  18.494  0.00  0.00    +0.000 OA
ATOM     19  C   UNL     1       7.901   5.853  19.036  0.00  0.00    +0.000 C 
ENDBRANCH  14  18
ENDBRANCH   9  13
ENDBRANCH   1   9
BRANCH   1  20
ATOM     20  C   UNL     1       4.332   6.051  18.644  0.00  0.00    +0.000 C 
BRANCH  20  21
ATOM     21  C   UNL     1       3.623   6.876  17.547  0.00  0.00    +0.000 C 
ATOM     22  C   UNL     1       2.799   8.050  18.082  0.00  0.00    +0.000 C 
ATOM     23  C   UNL     1       4.697   7.424  16.588  0.00  0.00    +0.000 C 
ENDBRANCH  20  21
ENDBRANCH   1  20
TORSDOF 7
ENDMDL
MODEL 5
REMARK VINA RESULT:      -6.7      1.236      1.434
REMARK  Name = 
REMARK  11 active torsions:
REMARK  status: ('A' for Active; 'I' for Inactive)
REMARK    1  A    between atoms: C_1  and  O_2
REMARK    2  A    between atoms: O_2  and  C_3
REMARK    3  A    between atoms: C_6  and  C_7
REMARK    4  A    between atoms: C_7  and  N_8
REMARK    5  A    between atoms: N_8  and  C_9
REMARK    6  A    between atoms: N_8  and  C_13
REMARK    7  A    between atoms: C_9  and  C_10
REMARK    8  A    between atoms: C_10  and  C_11
REMARK    9  A    between atoms: C_10  and  C_12
REMARK   10  A    between atoms: C_19  and  O_20
REMARK   11  A    between atoms: O_20  and  C_21
REMARK                            x       y       z     vdW  Elec       q    Type
REMARK                         _______ _______ _______ _____ _____    ______ ____
ROOT
ATOM      1  N   UNL     1       3.937   4.400  19.074  0.00  0.00    +0.000 NA
ENDROOT
BRANCH   1   2
ATOM      2  C   UNL     1       3.374   3.058  19.364  0.00  0.00    +0.000 C 
ATOM      3  C   UNL     1       1.965   2.813  18.767  0.00  0.00    +0.000 C 
ATOM      4  C   UNL     1       0.789   3.293  19.619  0.00  0.00    +0.000 C 
ATOM      5  N   UNL     1       0.861   2.905  21.026  0.00  0.00    +0.000 NA
ATOM      6  C   UNL     1       2.169   3.096  21.646  0.00  0.00    +0.000 C 
ATOM      7  C   UNL     1       3.353   2.578  20.824  0.00  0.00    +0.000 C 
ATOM      8  H   UNL     1       0.576   1.931  21.121  0.00  0.00    +0.000 HD
ENDBRANCH   1   2
BRANCH   1   9
ATOM      9  C   UNL     1       5.403   4.387  18.877  0.00  0.00    +0.000 C 
BRANCH   9  13
ATOM     10  C   UNL     1       6.617   4.731  14.770  0.00  0.00    +0.000 A 
ATOM     11  C   UNL     1       5.901   3.621  15.210  0.00  0.00    +0.000 A 
ATOM     12  C   UNL     1       5.541   3.508  16.544  0.00  0.00    +0.000 A 
ATOM     13  C   UNL     1       5.886   4.525  17.454  0.00  0.00    +0.000 A 
ATOM     14  C   UNL     1       6.684   5.597  17.032  0.00  0.00    +0.000 A 
ATOM     15  C   UNL     1       7.052   5.695  15.685  0.00  0.00    +0.000 A 
BRANCH  10  17
ATOM     16  C   UNL     1       8.050   5.392  13.002  0.00  0.00    +0.000 C 
ATOM     17  O   UNL     1       6.847   4.754  13.418  0.00  0.00    +0.000 OA
ENDBRANCH  10  17
BRANCH  14  18
ATOM     18  O   UNL     1       7.100   6.466  18.005  0.00  0.00    +0.000 OA
ATOM     19  C   UNL     1       7.621   7.718  17.584  0.00  0.00    +0.000 C 
ENDBRANCH  14  18
ENDBRANCH   9  13
ENDBRANCH   1   9
BRANCH   1  20
ATOM     20  C   UNL     1       3.312   5.134  17.944  0.00  0.00    +0.000 C 
BRANCH  20  21
ATOM     21  C   UNL     1       2.613   6.491  18.181  0.00  0.00    +0.000 C 
ATOM     22  C   UNL     1       2.346   6.808  19.654  0.00  0.00    +0.000 C 
ATOM     23  C   UNL     1       3.504   7.601  17.591  0.00  0.00    +0.000 C 
ENDBRANCH  20  21
ENDBRANCH   1  20
TORSDOF 7
ENDMDL
MODEL 6
REMARK VINA RESULT:      -6.6      1.239      1.833
REMARK  Name = 
REMARK  11 active torsions:
REMARK  status: ('A' for Active; 'I' for Inactive)
REMARK    1  A    between atoms: C_1  and  O_2
REMARK    2  A    between atoms: O_2  and  C_3
REMARK    3  A    between atoms: C_6  and  C_7
REMARK    4  A    between atoms: C_7  and  N_8
REMARK    5  A    between atoms: N_8  and  C_9
REMARK    6  A    between atoms: N_8  and  C_13
REMARK    7  A    between atoms: C_9  and  C_10
REMARK    8  A    between atoms: C_10  and  C_11
REMARK    9  A    between atoms: C_10  and  C_12
REMARK   10  A    between atoms: C_19  and  O_20
REMARK   11  A    between atoms: O_20  and  C_21
REMARK                            x       y       z     vdW  Elec       q    Type
REMARK                         _______ _______ _______ _____ _____    ______ ____
ROOT
ATOM      1  N   UNL     1       2.967   5.275  19.231  0.00  0.00    +0.000 NA
ENDROOT
BRANCH   1   2
ATOM      2  C   UNL     1       1.662   4.603  19.012  0.00  0.00    +0.000 C 
ATOM      3  C   UNL     1       1.120   3.841  20.247  0.00  0.00    +0.000 C 
ATOM      4  C   UNL     1       1.626   2.407  20.419  0.00  0.00    +0.000 C 
ATOM      5  N   UNL     1       1.567   1.594  19.207  0.00  0.00    +0.000 NA
ATOM      6  C   UNL     1       2.049   2.261  18.001  0.00  0.00    +0.000 C 
ATOM      7  C   UNL     1       1.514   3.680  17.792  0.00  0.00    +0.000 C 
ATOM      8  H   UNL     1       0.611   1.275  19.063  0.00  0.00    +0.000 HD
ENDBRANCH   1   2
BRANCH   1   9
ATOM      9  C   UNL     1       4.118   4.348  19.168  0.00  0.00    +0.000 C 
BRANCH   9  13
ATOM     10  C   UNL     1       6.848   5.143  15.947  0.00  0.00    +0.000 A 
ATOM     11  C   UNL     1       5.633   4.505  15.710  0.00  0.00    +0.000 A 
ATOM     12  C   UNL     1       4.774   4.228  16.762  0.00  0.00    +0.000 A 
ATOM     13  C   UNL     1       5.123   4.606  18.073  0.00  0.00    +0.000 A 
ATOM     14  C   UNL     1       6.383   5.164  18.325  0.00  0.00    +0.000 A 
ATOM     15  C   UNL     1       7.247   5.429  17.256  0.00  0.00    +0.000 A 
BRANCH  10  17
ATOM     16  C   UNL     1       7.123   4.785  13.621  0.00  0.00    +0.000 C 
ATOM     17  O   UNL     1       7.569   5.421  14.814  0.00  0.00    +0.000 OA
ENDBRANCH  10  17
BRANCH  14  18
ATOM     18  O   UNL     1       6.706   5.367  19.640  0.00  0.00    +0.000 OA
ATOM     19  C   UNL     1       8.072   5.600  19.948  0.00  0.00    +0.000 C 
ENDBRANCH  14  18
ENDBRANCH   9  13
ENDBRANCH   1   9
BRANCH   1  20
ATOM     20  C   UNL     1       3.249   6.443  18.357  0.00  0.00    +0.000 C 
BRANCH  20  21
ATOM     21  C   UNL     1       2.730   7.848  18.733  0.00  0.00    +0.000 C 
ATOM     22  C   UNL     1       1.826   8.485  17.677  0.00  0.00    +0.000 C 
ATOM     23  C   UNL     1       1.941   7.732  20.052  0.00  0.00    +0.000 C 
ENDBRANCH  20  21
ENDBRANCH   1  20
TORSDOF 7
ENDMDL
MODEL 7
REMARK VINA RESULT:      -6.6      1.727      2.887
REMARK  Name = 
REMARK  11 active torsions:
REMARK  status: ('A' for Active; 'I' for Inactive)
REMARK    1  A    between atoms: C_1  and  O_2
REMARK    2  A    between atoms: O_2  and  C_3
REMARK    3  A    between atoms: C_6  and  C_7
REMARK    4  A    between atoms: C_7  and  N_8
REMARK    5  A    between atoms: N_8  and  C_9
REMARK    6  A    between atoms: N_8  and  C_13
REMARK    7  A    between atoms: C_9  and  C_10
REMARK    8  A    between atoms: C_10  and  C_11
REMARK    9  A    between atoms: C_10  and  C_12
REMARK   10  A    between atoms: C_19  and  O_20
REMARK   11  A    between atoms: O_20  and  C_21
REMARK                            x       y       z     vdW  Elec       q    Type
REMARK                         _______ _______ _______ _____ _____    ______ ____
ROOT
ATOM      1  N   UNL     1       3.786   3.752  18.825  0.00  0.00    +0.000 NA
ENDROOT
BRANCH   1   2
ATOM      2  C   UNL     1       3.214   2.515  19.410  0.00  0.00    +0.000 C 
ATOM      3  C   UNL     1       1.743   2.239  19.010  0.00  0.00    +0.000 C 
ATOM      4  C   UNL     1       0.679   2.924  19.869  0.00  0.00    +0.000 C 
ATOM      5  N   UNL     1       0.886   2.792  21.309  0.00  0.00    +0.000 NA
ATOM      6  C   UNL     1       2.258   3.024  21.753  0.00  0.00    +0.000 C 
ATOM      7  C   UNL     1       3.331   2.307  20.929  0.00  0.00    +0.000 C 
ATOM      8  H   UNL     1       0.581   1.868  21.609  0.00  0.00    +0.000 HD
ENDBRANCH   1   2
BRANCH   1   9
ATOM      9  C   UNL     1       5.044   3.518  18.081  0.00  0.00    +0.000 C 
BRANCH   9  13
ATOM     10  C   UNL     1       7.472   6.956  17.220  0.00  0.00    +0.000 A 
ATOM     11  C   UNL     1       7.229   6.568  18.534  0.00  0.00    +0.000 A 
ATOM     12  C   UNL     1       6.420   5.474  18.800  0.00  0.00    +0.000 A 
ATOM     13  C   UNL     1       5.854   4.743  17.737  0.00  0.00    +0.000 A 
ATOM     14  C   UNL     1       6.023   5.187  16.419  0.00  0.00    +0.000 A 
ATOM     15  C   UNL     1       6.833   6.299  16.164  0.00  0.00    +0.000 A 
BRANCH  10  17
ATOM     16  C   UNL     1       8.169   9.074  18.022  0.00  0.00    +0.000 C 
ATOM     17  O   UNL     1       8.344   8.008  17.095  0.00  0.00    +0.000 OA
ENDBRANCH  10  17
BRANCH  14  18
ATOM     18  O   UNL     1       5.323   4.511  15.456  0.00  0.00    +0.000 OA
ATOM     19  C   UNL     1       6.025   4.138  14.279  0.00  0.00    +0.000 C 
ENDBRANCH  14  18
ENDBRANCH   9  13
ENDBRANCH   1   9
BRANCH   1  20
ATOM     20  C   UNL     1       2.870   4.547  17.968  0.00  0.00    +0.000 C 
BRANCH  20  21
ATOM     21  C   UNL     1       2.340   5.918  18.446  0.00  0.00    +0.000 C 
ATOM     22  C   UNL     1       2.434   6.131  19.958  0.00  0.00    +0.000 C 
ATOM     23  C   UNL     1       3.155   7.020  17.742  0.00  0.00    +0.000 C 
ENDBRANCH  20  21
ENDBRANCH   1  20
TORSDOF 7
ENDMDL
MODEL 8
REMARK VINA RESULT:      -6.6      2.691      6.458
REMARK  Name = 
REMARK  11 active torsions:
REMARK  status: ('A' for Active; 'I' for Inactive)
REMARK    1  A    between atoms: C_1  and  O_2
REMARK    2  A    between atoms: O_2  and  C_3
REMARK    3  A    between atoms: C_6  and  C_7
REMARK    4  A    between atoms: C_7  and  N_8
REMARK    5  A    between atoms: N_8  and  C_9
REMARK    6  A    between atoms: N_8  and  C_13
REMARK    7  A    between atoms: C_9  and  C_10
REMARK    8  A    between atoms: C_10  and  C_11
REMARK    9  A    between atoms: C_10  and  C_12
REMARK   10  A    between atoms: C_19  and  O_20
REMARK   11  A    between atoms: O_20  and  C_21
REMARK                            x       y       z     vdW  Elec       q    Type
REMARK                         _______ _______ _______ _____ _____    ______ ____
ROOT
ATOM      1  N   UNL     1       4.172   4.919  17.908  0.00  0.00    +0.000 NA
ENDROOT
BRANCH   1   2
ATOM      2  C   UNL     1       5.260   5.843  17.503  0.00  0.00    +0.000 C 
ATOM      3  C   UNL     1       5.569   5.841  15.985  0.00  0.00    +0.000 C 
ATOM      4  C   UNL     1       6.548   4.767  15.507  0.00  0.00    +0.000 C 
ATOM      5  N   UNL     1       7.762   4.651  16.312  0.00  0.00    +0.000 NA
ATOM      6  C   UNL     1       7.541   4.664  17.755  0.00  0.00    +0.000 C 
ATOM      7  C   UNL     1       6.599   5.763  18.253  0.00  0.00    +0.000 C 
ATOM      8  H   UNL     1       8.405   5.399  16.058  0.00  0.00    +0.000 HD
ENDBRANCH   1   2
BRANCH   1   9
ATOM      9  C   UNL     1       2.820   5.452  17.631  0.00  0.00    +0.000 C 
BRANCH   9  13
ATOM     10  C   UNL     1       1.484   8.879  19.852  0.00  0.00    +0.000 A 
ATOM     11  C   UNL     1       1.824   8.991  18.507  0.00  0.00    +0.000 A 
ATOM     12  C   UNL     1       2.281   7.884  17.809  0.00  0.00    +0.000 A 
ATOM     13  C   UNL     1       2.389   6.639  18.457  0.00  0.00    +0.000 A 
ATOM     14  C   UNL     1       2.135   6.545  19.832  0.00  0.00    +0.000 A 
ATOM     15  C   UNL     1       1.685   7.672  20.529  0.00  0.00    +0.000 A 
BRANCH  10  17
ATOM     16  C   UNL     1      -0.262  10.482  19.872  0.00  0.00    +0.000 C 
ATOM     17  O   UNL     1       0.979  10.029  20.404  0.00  0.00    +0.000 OA
ENDBRANCH  10  17
BRANCH  14  18
ATOM     18  O   UNL     1       2.403   5.337  20.419  0.00  0.00    +0.000 OA
ATOM     19  C   UNL     1       1.300   4.486  20.695  0.00  0.00    +0.000 C 
ENDBRANCH  14  18
ENDBRANCH   9  13
ENDBRANCH   1   9
BRANCH   1  20
ATOM     20  C   UNL     1       4.259   3.539  17.364  0.00  0.00    +0.000 C 
BRANCH  20  21
ATOM     21  C   UNL     1       3.967   2.321  18.268  0.00  0.00    +0.000 C 
ATOM     22  C   UNL     1       4.332   2.530  19.738  0.00  0.00    +0.000 C 
ATOM     23  C   UNL     1       2.462   2.002  18.174  0.00  0.00    +0.000 C 
ENDBRANCH  20  21
ENDBRANCH   1  20
TORSDOF 7
ENDMDL
MODEL 9
REMARK VINA RESULT:      -6.6      1.252      1.800
REMARK  Name = 
REMARK  11 active torsions:
REMARK  status: ('A' for Active; 'I' for Inactive)
REMARK    1  A    between atoms: C_1  and  O_2
REMARK    2  A    between atoms: O_2  and  C_3
REMARK    3  A    between atoms: C_6  and  C_7
REMARK    4  A    between atoms: C_7  and  N_8
REMARK    5  A    between atoms: N_8  and  C_9
REMARK    6  A    between atoms: N_8  and  C_13
REMARK    7  A    between atoms: C_9  and  C_10
REMARK    8  A    between atoms: C_10  and  C_11
REMARK    9  A    between atoms: C_10  and  C_12
REMARK   10  A    between atoms: C_19  and  O_20
REMARK   11  A    between atoms: O_20  and  C_21
REMARK                            x       y       z     vdW  Elec       q    Type
REMARK                         _______ _______ _______ _____ _____    ______ ____
ROOT
ATOM      1  N   UNL     1       3.437   5.578  19.059  0.00  0.00    +0.000 NA
ENDROOT
BRANCH   1   2
ATOM      2  C   UNL     1       3.344   4.152  18.659  0.00  0.00    +0.000 C 
ATOM      3  C   UNL     1       1.915   3.684  18.287  0.00  0.00    +0.000 C 
ATOM      4  C   UNL     1       1.039   3.227  19.456  0.00  0.00    +0.000 C 
ATOM      5  N   UNL     1       1.694   2.303  20.378  0.00  0.00    +0.000 NA
ATOM      6  C   UNL     1       3.053   2.678  20.757  0.00  0.00    +0.000 C 
ATOM      7  C   UNL     1       3.955   3.093  19.591  0.00  0.00    +0.000 C 
ATOM      8  H   UNL     1       1.698   1.369  19.971  0.00  0.00    +0.000 HD
ENDBRANCH   1   2
BRANCH   1   9
ATOM      9  C   UNL     1       4.739   6.195  18.723  0.00  0.00    +0.000 C 
BRANCH   9  13
ATOM     10  C   UNL     1       6.675   4.836  15.136  0.00  0.00    +0.000 A 
ATOM     11  C   UNL     1       5.441   5.478  15.079  0.00  0.00    +0.000 A 
ATOM     12  C   UNL     1       4.813   5.885  16.246  0.00  0.00    +0.000 A 
ATOM     13  C   UNL     1       5.431   5.664  17.492  0.00  0.00    +0.000 A 
ATOM     14  C   UNL     1       6.628   4.938  17.556  0.00  0.00    +0.000 A 
ATOM     15  C   UNL     1       7.247   4.521  16.373  0.00  0.00    +0.000 A 
BRANCH  10  17
ATOM     16  C   UNL     1       6.394   3.799  13.024  0.00  0.00    +0.000 C 
ATOM     17  O   UNL     1       7.218   4.550  13.910  0.00  0.00    +0.000 OA
ENDBRANCH  10  17
BRANCH  14  18
ATOM     18  O   UNL     1       7.089   4.637  18.810  0.00  0.00    +0.000 OA
ATOM     19  C   UNL     1       8.003   5.546  19.405  0.00  0.00    +0.000 C 
ENDBRANCH  14  18
ENDBRANCH   9  13
ENDBRANCH   1   9
BRANCH   1  20
ATOM     20  C   UNL     1       2.351   6.462  18.563  0.00  0.00    +0.000 C 
BRANCH  20  21
ATOM     21  C   UNL     1       2.356   7.971  18.894  0.00  0.00    +0.000 C 
ATOM     22  C   UNL     1       1.765   8.854  17.793  0.00  0.00    +0.000 C 
ATOM     23  C   UNL     1       1.542   8.183  20.185  0.00  0.00    +0.000 C 
ENDBRANCH  20  21
ENDBRANCH   1  20
TORSDOF 7
ENDMDL
