MODEL 1
REMARK VINA RESULT:      -9.7      0.000      0.000
REMARK  Name = 
REMARK  6 active torsions:
REMARK  status: ('A' for Active; 'I' for Inactive)
REMARK    1  A    between atoms: C_7  and  C_8
REMARK    2  A    between atoms: N_10  and  C_11
REMARK    3  A    between atoms: C_11  and  C_12
REMARK    4  A    between atoms: C_12  and  N_13
REMARK    5  A    between atoms: C_14  and  C_16
REMARK    6  A    between atoms: C_23  and  C_24
REMARK                            x       y       z     vdW  Elec       q    Type
REMARK                         _______ _______ _______ _____ _____    ______ ____
ROOT
ATOM      1  C   UNL     1       2.763   6.877  18.834  0.00  0.00    +0.000 A 
ATOM      2  C   UNL     1       2.496   8.048  19.495  0.00  0.00    +0.000 A 
ATOM      3  N   UNL     1       1.665   7.702  20.519  0.00  0.00    +0.000 N 
ATOM      4  N   UNL     1       1.292   6.406  20.499  0.00  0.00    +0.000 NA
ATOM      5  C   UNL     1       1.993   5.867  19.487  0.00  0.00    +0.000 A 
ENDROOT
BRANCH   1  12
ATOM      6  O   UNL     1       8.369   4.194  17.287  0.00  0.00    +0.000 OA
ATOM      7  C   UNL     1       7.293   4.769  17.409  0.00  0.00    +0.000 C 
ATOM      8  N   UNL     1       6.705   5.404  16.360  0.00  0.00    +0.000 N 
ATOM      9  C   UNL     1       5.511   6.063  16.375  0.00  0.00    +0.000 C 
ATOM     10  O   UNL     1       5.063   6.582  15.356  0.00  0.00    +0.000 OA
ATOM     11  C   UNL     1       4.811   6.086  17.682  0.00  0.00    +0.000 C 
ATOM     12  C   UNL     1       3.649   6.766  17.729  0.00  0.00    +0.000 C 
ATOM     13  C   UNL     1       5.406   5.365  18.835  0.00  0.00    +0.000 C 
ATOM     14  O   UNL     1       4.890   5.259  19.941  0.00  0.00    +0.000 OA
ATOM     15  N   UNL     1       6.627   4.799  18.592  0.00  0.00    +0.000 N 
ATOM     16  H   UNL     1       7.195   5.369  15.477  0.00  0.00    +0.000 HD
ATOM     17  H   UNL     1       7.053   4.309  19.367  0.00  0.00    +0.000 HD
ENDBRANCH   1  12
BRANCH   5  18
ATOM     18  C   UNL     1       1.931   4.430  19.189  0.00  0.00    +0.000 A 
ATOM     19  C   UNL     1       2.066   3.957  17.877  0.00  0.00    +0.000 A 
ATOM     20  C   UNL     1       2.089   2.587  17.607  0.00  0.00    +0.000 A 
ATOM     21  C   UNL     1       1.950   1.672  18.647  0.00  0.00    +0.000 A 
ATOM     22  C   UNL     1       1.779   2.126  19.954  0.00  0.00    +0.000 A 
ATOM     23  C   UNL     1       1.769   3.498  20.224  0.00  0.00    +0.000 A 
ENDBRANCH   5  18
BRANCH   3  24
ATOM     24  C   UNL     1       1.167   8.607  21.537  0.00  0.00    +0.000 C 
BRANCH  24  25
ATOM     25  C   UNL     1       0.775   9.979  20.997  0.00  0.00    +0.000 C 
BRANCH  25  26
ATOM     26  N   UNL     1      -0.370   9.929  20.097  0.00  0.00    +0.000 N 
ATOM     27  C   UNL     1      -0.378  10.659  18.926  0.00  0.00    +0.000 C 
ATOM     28  O   UNL     1       0.595  11.289  18.526  0.00  0.00    +0.000 OA
ATOM     29  H   UNL     1      -1.247   9.609  20.485  0.00  0.00    +0.000 HD
BRANCH  27  30
ATOM     30  C   UNL     1      -1.652  10.687  18.159  0.00  0.00    +0.000 A 
ATOM     31  C   UNL     1      -2.663  11.550  18.604  0.00  0.00    +0.000 A 
ATOM     32  C   UNL     1      -3.888  11.600  17.939  0.00  0.00    +0.000 A 
ATOM     33  C   UNL     1      -4.105  10.795  16.821  0.00  0.00    +0.000 A 
ATOM     34  C   UNL     1      -3.094   9.953  16.358  0.00  0.00    +0.000 A 
ATOM     35  C   UNL     1      -1.866   9.900  17.021  0.00  0.00    +0.000 A 
ENDBRANCH  27  30
ENDBRANCH  25  26
ENDBRANCH  24  25
ENDBRANCH   3  24
TORSDOF 6
ENDMDL
MODEL 2
REMARK VINA RESULT:      -9.6      3.236      8.142
REMARK  Name = 
REMARK  6 active torsions:
REMARK  status: ('A' for Active; 'I' for Inactive)
REMARK    1  A    between atoms: C_7  and  C_8
REMARK    2  A    between atoms: N_10  and  C_11
REMARK    3  A    between atoms: C_11  and  C_12
REMARK    4  A    between atoms: C_12  and  N_13
REMARK    5  A    between atoms: C_14  and  C_16
REMARK    6  A    between atoms: C_23  and  C_24
REMARK                            x       y       z     vdW  Elec       q    Type
REMARK                         _______ _______ _______ _____ _____    ______ ____
ROOT
ATOM      1  C   UNL     1       3.347   5.484  17.643  0.00  0.00    +0.000 A 
ATOM      2  C   UNL     1       4.535   5.114  17.068  0.00  0.00    +0.000 A 
ATOM      3  N   UNL     1       5.273   6.258  16.999  0.00  0.00    +0.000 N 
ATOM      4  N   UNL     1       4.601   7.361  17.392  0.00  0.00    +0.000 NA
ATOM      5  C   UNL     1       3.420   6.897  17.833  0.00  0.00    +0.000 A 
ENDROOT
BRANCH   1  12
ATOM      6  O   UNL     1       1.137   2.097  22.610  0.00  0.00    +0.000 OA
ATOM      7  C   UNL     1       1.418   2.674  21.565  0.00  0.00    +0.000 C 
ATOM      8  N   UNL     1       0.636   2.559  20.459  0.00  0.00    +0.000 N 
ATOM      9  C   UNL     1       0.842   3.160  19.252  0.00  0.00    +0.000 C 
ATOM     10  O   UNL     1       0.053   3.003  18.325  0.00  0.00    +0.000 OA
ATOM     11  C   UNL     1       2.055   4.008  19.160  0.00  0.00    +0.000 C 
ATOM     12  C   UNL     1       2.299   4.580  17.965  0.00  0.00    +0.000 C 
ATOM     13  C   UNL     1       2.905   4.190  20.364  0.00  0.00    +0.000 C 
ATOM     14  O   UNL     1       3.890   4.915  20.427  0.00  0.00    +0.000 OA
ATOM     15  N   UNL     1       2.518   3.463  21.456  0.00  0.00    +0.000 N 
ATOM     16  H   UNL     1      -0.189   1.983  20.546  0.00  0.00    +0.000 HD
ATOM     17  H   UNL     1       3.088   3.567  22.284  0.00  0.00    +0.000 HD
ENDBRANCH   1  12
BRANCH   5  18
ATOM     18  C   UNL     1       2.420   7.790  18.433  0.00  0.00    +0.000 A 
ATOM     19  C   UNL     1       2.091   7.699  19.792  0.00  0.00    +0.000 A 
ATOM     20  C   UNL     1       1.201   8.603  20.377  0.00  0.00    +0.000 A 
ATOM     21  C   UNL     1       0.609   9.595  19.601  0.00  0.00    +0.000 A 
ATOM     22  C   UNL     1       0.897   9.677  18.240  0.00  0.00    +0.000 A 
ATOM     23  C   UNL     1       1.798   8.781  17.658  0.00  0.00    +0.000 A 
ENDBRANCH   5  18
BRANCH   3  24
ATOM     24  C   UNL     1       6.639   6.348  16.522  0.00  0.00    +0.000 C 
BRANCH  24  25
ATOM     25  C   UNL     1       7.333   4.995  16.394  0.00  0.00    +0.000 C 
BRANCH  25  26
ATOM     26  N   UNL     1       6.811   4.191  15.297  0.00  0.00    +0.000 N 
ATOM     27  C   UNL     1       7.076   4.530  13.986  0.00  0.00    +0.000 C 
ATOM     28  O   UNL     1       7.839   5.437  13.673  0.00  0.00    +0.000 OA
ATOM     29  H   UNL     1       6.025   3.589  15.501  0.00  0.00    +0.000 HD
BRANCH  27  30
ATOM     30  C   UNL     1       6.359   3.761  12.933  0.00  0.00    +0.000 A 
ATOM     31  C   UNL     1       4.988   3.999  12.771  0.00  0.00    +0.000 A 
ATOM     32  C   UNL     1       4.260   3.289  11.816  0.00  0.00    +0.000 A 
ATOM     33  C   UNL     1       4.901   2.345  11.014  0.00  0.00    +0.000 A 
ATOM     34  C   UNL     1       6.270   2.123  11.154  0.00  0.00    +0.000 A 
ATOM     35  C   UNL     1       7.003   2.832  12.108  0.00  0.00    +0.000 A 
ENDBRANCH  27  30
ENDBRANCH  25  26
ENDBRANCH  24  25
ENDBRANCH   3  24
TORSDOF 6
ENDMDL
MODEL 3
REMARK VINA RESULT:      -9.5      2.439      4.267
REMARK  Name = 
REMARK  6 active torsions:
REMARK  status: ('A' for Active; 'I' for Inactive)
REMARK    1  A    between atoms: C_7  and  C_8
REMARK    2  A    between atoms: N_10  and  C_11
REMARK    3  A    between atoms: C_11  and  C_12
REMARK    4  A    between atoms: C_12  and  N_13
REMARK    5  A    between atoms: C_14  and  C_16
REMARK    6  A    between atoms: C_23  and  C_24
REMARK                            x       y       z     vdW  Elec       q    Type
REMARK                         _______ _______ _______ _____ _____    ______ ____
ROOT
ATOM      1  C   UNL     1       2.518   6.311  17.921  0.00  0.00    +0.000 A 
ATOM      2  C   UNL     1       1.771   7.446  18.106  0.00  0.00    +0.000 A 
ATOM      3  N   UNL     1       2.603   8.479  17.792  0.00  0.00    +0.000 N 
ATOM      4  N   UNL     1       3.867   8.095  17.522  0.00  0.00    +0.000 NA
ATOM      5  C   UNL     1       3.827   6.752  17.556  0.00  0.00    +0.000 A 
ENDROOT
BRANCH   1  12
ATOM      6  O   UNL     1       1.416   1.981  22.510  0.00  0.00    +0.000 OA
ATOM      7  C   UNL     1       1.558   2.684  21.515  0.00  0.00    +0.000 C 
ATOM      8  N   UNL     1       1.154   2.265  20.287  0.00  0.00    +0.000 N 
ATOM      9  C   UNL     1       1.250   2.961  19.118  0.00  0.00    +0.000 C 
ATOM     10  O   UNL     1       0.827   2.491  18.065  0.00  0.00    +0.000 OA
ATOM     11  C   UNL     1       1.876   4.301  19.224  0.00  0.00    +0.000 C 
ATOM     12  C   UNL     1       2.018   4.990  18.074  0.00  0.00    +0.000 C 
ATOM     13  C   UNL     1       2.289   4.805  20.558  0.00  0.00    +0.000 C 
ATOM     14  O   UNL     1       2.754   5.916  20.777  0.00  0.00    +0.000 OA
ATOM     15  N   UNL     1       2.121   3.918  21.585  0.00  0.00    +0.000 N 
ATOM     16  H   UNL     1       0.723   1.352  20.239  0.00  0.00    +0.000 HD
ATOM     17  H   UNL     1       2.403   4.239  22.501  0.00  0.00    +0.000 HD
ENDBRANCH   1  12
BRANCH   5  18
ATOM     18  C   UNL     1       5.004   5.939  17.225  0.00  0.00    +0.000 A 
ATOM     19  C   UNL     1       5.306   5.609  15.897  0.00  0.00    +0.000 A 
ATOM     20  C   UNL     1       6.470   4.907  15.578  0.00  0.00    +0.000 A 
ATOM     21  C   UNL     1       7.335   4.502  16.591  0.00  0.00    +0.000 A 
ATOM     22  C   UNL     1       7.032   4.790  17.920  0.00  0.00    +0.000 A 
ATOM     23  C   UNL     1       5.874   5.505  18.237  0.00  0.00    +0.000 A 
ENDBRANCH   5  18
BRANCH   3  24
ATOM     24  C   UNL     1       2.229   9.880  17.773  0.00  0.00    +0.000 C 
BRANCH  24  25
ATOM     25  C   UNL     1       1.106  10.228  18.747  0.00  0.00    +0.000 C 
BRANCH  25  26
ATOM     26  N   UNL     1      -0.146  10.551  18.077  0.00  0.00    +0.000 N 
ATOM     27  C   UNL     1      -1.192  11.122  18.774  0.00  0.00    +0.000 C 
ATOM     28  O   UNL     1      -1.095  11.485  19.941  0.00  0.00    +0.000 OA
ATOM     29  H   UNL     1      -0.335  10.081  17.202  0.00  0.00    +0.000 HD
BRANCH  27  30
ATOM     30  C   UNL     1      -2.487  11.254  18.056  0.00  0.00    +0.000 A 
ATOM     31  C   UNL     1      -3.582  11.761  18.769  0.00  0.00    +0.000 A 
ATOM     32  C   UNL     1      -4.827  11.883  18.153  0.00  0.00    +0.000 A 
ATOM     33  C   UNL     1      -4.982  11.507  16.820  0.00  0.00    +0.000 A 
ATOM     34  C   UNL     1      -3.891  11.025  16.097  0.00  0.00    +0.000 A 
ATOM     35  C   UNL     1      -2.642  10.902  16.709  0.00  0.00    +0.000 A 
ENDBRANCH  27  30
ENDBRANCH  25  26
ENDBRANCH  24  25
ENDBRANCH   3  24
TORSDOF 6
ENDMDL
MODEL 4
REMARK VINA RESULT:      -9.5      1.012      1.588
REMARK  Name = 
REMARK  6 active torsions:
REMARK  status: ('A' for Active; 'I' for Inactive)
REMARK    1  A    between atoms: C_7  and  C_8
REMARK    2  A    between atoms: N_10  and  C_11
REMARK    3  A    between atoms: C_11  and  C_12
REMARK    4  A    between atoms: C_12  and  N_13
REMARK    5  A    between atoms: C_14  and  C_16
REMARK    6  A    between atoms: C_23  and  C_24
REMARK                            x       y       z     vdW  Elec       q    Type
REMARK                         _______ _______ _______ _____ _____    ______ ____
ROOT
ATOM      1  C   UNL     1       3.163   6.860  17.942  0.00  0.00    +0.000 A 
ATOM      2  C   UNL     1       2.857   8.165  18.230  0.00  0.00    +0.000 A 
ATOM      3  N   UNL     1       1.891   8.105  19.189  0.00  0.00    +0.000 N 
ATOM      4  N   UNL     1       1.475   6.851  19.462  0.00  0.00    +0.000 NA
ATOM      5  C   UNL     1       2.279   6.062  18.729  0.00  0.00    +0.000 A 
ENDROOT
BRANCH   1  12
ATOM      6  O   UNL     1       8.870   3.952  17.928  0.00  0.00    +0.000 OA
ATOM      7  C   UNL     1       7.797   4.518  17.747  0.00  0.00    +0.000 C 
ATOM      8  N   UNL     1       7.356   4.820  16.497  0.00  0.00    +0.000 N 
ATOM      9  C   UNL     1       6.182   5.435  16.176  0.00  0.00    +0.000 C 
ATOM     10  O   UNL     1       5.874   5.637  15.004  0.00  0.00    +0.000 OA
ATOM     11  C   UNL     1       5.325   5.813  17.325  0.00  0.00    +0.000 C 
ATOM     12  C   UNL     1       4.178   6.458  17.032  0.00  0.00    +0.000 C 
ATOM     13  C   UNL     1       5.757   5.458  18.700  0.00  0.00    +0.000 C 
ATOM     14  O   UNL     1       5.106   5.659  19.717  0.00  0.00    +0.000 OA
ATOM     15  N   UNL     1       6.989   4.869  18.781  0.00  0.00    +0.000 N 
ATOM     16  H   UNL     1       7.952   4.546  15.728  0.00  0.00    +0.000 HD
ATOM     17  H   UNL     1       7.306   4.625  19.709  0.00  0.00    +0.000 HD
ENDBRANCH   1  12
BRANCH   5  18
ATOM     18  C   UNL     1       2.202   4.597  18.814  0.00  0.00    +0.000 A 
ATOM     19  C   UNL     1       1.974   3.954  20.038  0.00  0.00    +0.000 A 
ATOM     20  C   UNL     1       1.820   2.568  20.103  0.00  0.00    +0.000 A 
ATOM     21  C   UNL     1       1.919   1.804  18.943  0.00  0.00    +0.000 A 
ATOM     22  C   UNL     1       2.181   2.424  17.723  0.00  0.00    +0.000 A 
ATOM     23  C   UNL     1       2.322   3.813  17.658  0.00  0.00    +0.000 A 
ENDBRANCH   5  18
BRANCH   3  24
ATOM     24  C   UNL     1       1.301   9.249  19.857  0.00  0.00    +0.000 C 
BRANCH  24  25
ATOM     25  C   UNL     1       1.305  10.521  19.014  0.00  0.00    +0.000 C 
BRANCH  25  26
ATOM     26  N   UNL     1       0.073  10.704  18.259  0.00  0.00    +0.000 N 
ATOM     27  C   UNL     1      -1.048  11.243  18.859  0.00  0.00    +0.000 C 
ATOM     28  O   UNL     1      -1.043  11.690  20.000  0.00  0.00    +0.000 OA
ATOM     29  H   UNL     1      -0.033  10.164  17.411  0.00  0.00    +0.000 HD
BRANCH  27  30
ATOM     30  C   UNL     1      -2.307  11.229  18.067  0.00  0.00    +0.000 A 
ATOM     31  C   UNL     1      -2.254  10.717  16.764  0.00  0.00    +0.000 A 
ATOM     32  C   UNL     1      -3.398  10.702  15.967  0.00  0.00    +0.000 A 
ATOM     33  C   UNL     1      -4.603  11.192  16.472  0.00  0.00    +0.000 A 
ATOM     34  C   UNL     1      -4.668  11.680  17.777  0.00  0.00    +0.000 A 
ATOM     35  C   UNL     1      -3.524  11.695  18.578  0.00  0.00    +0.000 A 
ENDBRANCH  27  30
ENDBRANCH  25  26
ENDBRANCH  24  25
ENDBRANCH   3  24
TORSDOF 6
ENDMDL
MODEL 5
REMARK VINA RESULT:      -9.4      3.288      8.145
REMARK  Name = 
REMARK  6 active torsions:
REMARK  status: ('A' for Active; 'I' for Inactive)
REMARK    1  A    between atoms: C_7  and  C_8
REMARK    2  A    between atoms: N_10  and  C_11
REMARK    3  A    between atoms: C_11  and  C_12
REMARK    4  A    between atoms: C_12  and  N_13
REMARK    5  A    between atoms: C_14  and  C_16
REMARK    6  A    between atoms: C_23  and  C_24
REMARK                            x       y       z     vdW  Elec       q    Type
REMARK                         _______ _______ _______ _____ _____    ______ ____
ROOT
ATOM      1  C   UNL     1       3.374   5.439  17.593  0.00  0.00    +0.000 A 
ATOM      2  C   UNL     1       4.536   5.034  16.988  0.00  0.00    +0.000 A 
ATOM      3  N   UNL     1       5.309   6.154  16.908  0.00  0.00    +0.000 N 
ATOM      4  N   UNL     1       4.683   7.276  17.321  0.00  0.00    +0.000 NA
ATOM      5  C   UNL     1       3.498   6.849  17.787  0.00  0.00    +0.000 A 
ENDROOT
BRANCH   1  12
ATOM      6  O   UNL     1       1.161   2.114  22.599  0.00  0.00    +0.000 OA
ATOM      7  C   UNL     1       1.438   2.684  21.549  0.00  0.00    +0.000 C 
ATOM      8  N   UNL     1       0.630   2.596  20.460  0.00  0.00    +0.000 N 
ATOM      9  C   UNL     1       0.830   3.193  19.250  0.00  0.00    +0.000 C 
ATOM     10  O   UNL     1       0.017   3.063  18.339  0.00  0.00    +0.000 OA
ATOM     11  C   UNL     1       2.067   4.003  19.134  0.00  0.00    +0.000 C 
ATOM     12  C   UNL     1       2.305   4.569  17.935  0.00  0.00    +0.000 C 
ATOM     13  C   UNL     1       2.947   4.154  20.320  0.00  0.00    +0.000 C 
ATOM     14  O   UNL     1       3.956   4.847  20.364  0.00  0.00    +0.000 OA
ATOM     15  N   UNL     1       2.560   3.438  21.419  0.00  0.00    +0.000 N 
ATOM     16  H   UNL     1      -0.211   2.046  20.563  0.00  0.00    +0.000 HD
ATOM     17  H   UNL     1       3.150   3.522  22.235  0.00  0.00    +0.000 HD
ENDBRANCH   1  12
BRANCH   5  18
ATOM     18  C   UNL     1       2.542   7.771  18.414  0.00  0.00    +0.000 A 
ATOM     19  C   UNL     1       1.922   8.786  17.673  0.00  0.00    +0.000 A 
ATOM     20  C   UNL     1       0.953   9.608  18.252  0.00  0.00    +0.000 A 
ATOM     21  C   UNL     1       0.611   9.441  19.591  0.00  0.00    +0.000 A 
ATOM     22  C   UNL     1       1.244   8.460  20.353  0.00  0.00    +0.000 A 
ATOM     23  C   UNL     1       2.204   7.629  19.769  0.00  0.00    +0.000 A 
ENDBRANCH   5  18
BRANCH   3  24
ATOM     24  C   UNL     1       6.666   6.201  16.399  0.00  0.00    +0.000 C 
BRANCH  24  25
ATOM     25  C   UNL     1       7.313   4.827  16.252  0.00  0.00    +0.000 C 
BRANCH  25  26
ATOM     26  N   UNL     1       6.738   4.042  15.168  0.00  0.00    +0.000 N 
ATOM     27  C   UNL     1       6.906   4.428  13.853  0.00  0.00    +0.000 C 
ATOM     28  O   UNL     1       7.624   5.364  13.519  0.00  0.00    +0.000 OA
ATOM     29  H   UNL     1       5.983   3.414  15.405  0.00  0.00    +0.000 HD
BRANCH  27  30
ATOM     30  C   UNL     1       6.139   3.672  12.827  0.00  0.00    +0.000 A 
ATOM     31  C   UNL     1       6.786   2.612  12.177  0.00  0.00    +0.000 A 
ATOM     32  C   UNL     1       6.123   1.884  11.189  0.00  0.00    +0.000 A 
ATOM     33  C   UNL     1       4.809   2.207  10.852  0.00  0.00    +0.000 A 
ATOM     34  C   UNL     1       4.152   3.245  11.513  0.00  0.00    +0.000 A 
ATOM     35  C   UNL     1       4.811   3.975  12.503  0.00  0.00    +0.000 A 
ENDBRANCH  27  30
ENDBRANCH  25  26
ENDBRANCH  24  25
ENDBRANCH   3  24
TORSDOF 6
ENDMDL
MODEL 6
REMARK VINA RESULT:      -9.3      5.074      8.653
REMARK  Name = 
REMARK  6 active torsions:
REMARK  status: ('A' for Active; 'I' for Inactive)
REMARK    1  A    between atoms: C_7  and  C_8
REMARK    2  A    between atoms: N_10  and  C_11
REMARK    3  A    between atoms: C_11  and  C_12
REMARK    4  A    between atoms: C_12  and  N_13
REMARK    5  A    between atoms: C_14  and  C_16
REMARK    6  A    between atoms: C_23  and  C_24
REMARK                            x       y       z     vdW  Elec       q    Type
REMARK                         _______ _______ _______ _____ _____    ______ ____
ROOT
ATOM      1  C   UNL     1       6.376   4.714  17.434  0.00  0.00    +0.000 A 
ATOM      2  C   UNL     1       6.874   5.511  18.433  0.00  0.00    +0.000 A 
ATOM      3  N   UNL     1       7.545   6.511  17.794  0.00  0.00    +0.000 N 
ATOM      4  N   UNL     1       7.607   6.353  16.455  0.00  0.00    +0.000 NA
ATOM      5  C   UNL     1       6.854   5.268  16.208  0.00  0.00    +0.000 A 
ENDROOT
BRANCH   1  12
ATOM      6  O   UNL     1       0.200   3.231  18.259  0.00  0.00    +0.000 OA
ATOM      7  C   UNL     1       1.414   3.333  18.116  0.00  0.00    +0.000 C 
ATOM      8  N   UNL     1       2.220   2.239  18.085  0.00  0.00    +0.000 N 
ATOM      9  C   UNL     1       3.573   2.230  17.921  0.00  0.00    +0.000 C 
ATOM     10  O   UNL     1       4.199   1.174  17.885  0.00  0.00    +0.000 OA
ATOM     11  C   UNL     1       4.207   3.563  17.777  0.00  0.00    +0.000 C 
ATOM     12  C   UNL     1       5.549   3.580  17.654  0.00  0.00    +0.000 C 
ATOM     13  C   UNL     1       3.350   4.775  17.763  0.00  0.00    +0.000 C 
ATOM     14  O   UNL     1       3.751   5.918  17.586  0.00  0.00    +0.000 OA
ATOM     15  N   UNL     1       2.019   4.541  17.974  0.00  0.00    +0.000 N 
ATOM     16  H   UNL     1       1.766   1.340  18.177  0.00  0.00    +0.000 HD
ATOM     17  H   UNL     1       1.419   5.354  17.976  0.00  0.00    +0.000 HD
ENDBRANCH   1  12
BRANCH   5  18
ATOM     18  C   UNL     1       6.595   4.809  14.837  0.00  0.00    +0.000 A 
ATOM     19  C   UNL     1       7.537   5.007  13.817  0.00  0.00    +0.000 A 
ATOM     20  C   UNL     1       7.323   4.497  12.535  0.00  0.00    +0.000 A 
ATOM     21  C   UNL     1       6.150   3.804  12.250  0.00  0.00    +0.000 A 
ATOM     22  C   UNL     1       5.187   3.630  13.242  0.00  0.00    +0.000 A 
ATOM     23  C   UNL     1       5.408   4.129  14.529  0.00  0.00    +0.000 A 
ENDBRANCH   5  18
BRANCH   3  24
ATOM     24  C   UNL     1       8.186   7.638  18.443  0.00  0.00    +0.000 C 
BRANCH  24  25
ATOM     25  C   UNL     1       7.808   8.988  17.839  0.00  0.00    +0.000 C 
BRANCH  25  26
ATOM     26  N   UNL     1       8.925   9.922  17.794  0.00  0.00    +0.000 N 
ATOM     27  C   UNL     1       9.406  10.502  18.951  0.00  0.00    +0.000 C 
ATOM     28  O   UNL     1       9.007  10.190  20.068  0.00  0.00    +0.000 OA
ATOM     29  H   UNL     1       9.127  10.357  16.904  0.00  0.00    +0.000 HD
BRANCH  27  30
ATOM     30  C   UNL     1      10.425  11.573  18.794  0.00  0.00    +0.000 A 
ATOM     31  C   UNL     1      10.823  12.271  19.942  0.00  0.00    +0.000 A 
ATOM     32  C   UNL     1      11.758  13.302  19.851  0.00  0.00    +0.000 A 
ATOM     33  C   UNL     1      12.306  13.634  18.612  0.00  0.00    +0.000 A 
ATOM     34  C   UNL     1      11.933  12.927  17.469  0.00  0.00    +0.000 A 
ATOM     35  C   UNL     1      10.998  11.893  17.557  0.00  0.00    +0.000 A 
ENDBRANCH  27  30
ENDBRANCH  25  26
ENDBRANCH  24  25
ENDBRANCH   3  24
TORSDOF 6
ENDMDL
MODEL 7
REMARK VINA RESULT:      -9.2      2.542      3.237
REMARK  Name = 
REMARK  6 active torsions:
REMARK  status: ('A' for Active; 'I' for Inactive)
REMARK    1  A    between atoms: C_7  and  C_8
REMARK    2  A    between atoms: N_10  and  C_11
REMARK    3  A    between atoms: C_11  and  C_12
REMARK    4  A    between atoms: C_12  and  N_13
REMARK    5  A    between atoms: C_14  and  C_16
REMARK    6  A    between atoms: C_23  and  C_24
REMARK                            x       y       z     vdW  Elec       q    Type
REMARK                         _______ _______ _______ _____ _____    ______ ____
ROOT
ATOM      1  C   UNL     1       3.146   6.797  17.827  0.00  0.00    +0.000 A 
ATOM      2  C   UNL     1       2.915   8.140  17.978  0.00  0.00    +0.000 A 
ATOM      3  N   UNL     1       1.988   8.236  18.972  0.00  0.00    +0.000 N 
ATOM      4  N   UNL     1       1.525   7.043  19.399  0.00  0.00    +0.000 NA
ATOM      5  C   UNL     1       2.258   6.137  18.731  0.00  0.00    +0.000 A 
ENDROOT
BRANCH   1  12
ATOM      6  O   UNL     1       8.864   3.913  17.919  0.00  0.00    +0.000 OA
ATOM      7  C   UNL     1       7.777   4.444  17.718  0.00  0.00    +0.000 C 
ATOM      8  N   UNL     1       7.251   4.532  16.467  0.00  0.00    +0.000 N 
ATOM      9  C   UNL     1       6.053   5.087  16.127  0.00  0.00    +0.000 C 
ATOM     10  O   UNL     1       5.666   5.090  14.961  0.00  0.00    +0.000 OA
ATOM     11  C   UNL     1       5.271   5.656  17.251  0.00  0.00    +0.000 C 
ATOM     12  C   UNL     1       4.101   6.245  16.932  0.00  0.00    +0.000 C 
ATOM     13  C   UNL     1       5.797   5.536  18.634  0.00  0.00    +0.000 C 
ATOM     14  O   UNL     1       5.213   5.907  19.644  0.00  0.00    +0.000 OA
ATOM     15  N   UNL     1       7.036   4.965  18.730  0.00  0.00    +0.000 N 
ATOM     16  H   UNL     1       7.797   4.131  15.717  0.00  0.00    +0.000 HD
ATOM     17  H   UNL     1       7.417   4.881  19.662  0.00  0.00    +0.000 HD
ENDBRANCH   1  12
BRANCH   5  18
ATOM     18  C   UNL     1       2.116   4.697  18.982  0.00  0.00    +0.000 A 
ATOM     19  C   UNL     1       2.035   4.194  20.287  0.00  0.00    +0.000 A 
ATOM     20  C   UNL     1       1.817   2.835  20.521  0.00  0.00    +0.000 A 
ATOM     21  C   UNL     1       1.703   1.956  19.448  0.00  0.00    +0.000 A 
ATOM     22  C   UNL     1       1.817   2.434  18.143  0.00  0.00    +0.000 A 
ATOM     23  C   UNL     1       2.022   3.796  17.910  0.00  0.00    +0.000 A 
ENDBRANCH   5  18
BRANCH   3  24
ATOM     24  C   UNL     1       1.482   9.476  19.529  0.00  0.00    +0.000 C 
BRANCH  24  25
ATOM     25  C   UNL     1       0.723   9.293  20.841  0.00  0.00    +0.000 C 
BRANCH  25  26
ATOM     26  N   UNL     1       0.003  10.491  21.251  0.00  0.00    +0.000 N 
ATOM     27  C   UNL     1      -0.335  10.691  22.575  0.00  0.00    +0.000 C 
ATOM     28  O   UNL     1       0.036   9.949  23.477  0.00  0.00    +0.000 OA
ATOM     29  H   UNL     1      -0.496  10.998  20.533  0.00  0.00    +0.000 HD
BRANCH  27  30
ATOM     30  C   UNL     1      -1.220  11.848  22.875  0.00  0.00    +0.000 A 
ATOM     31  C   UNL     1      -0.716  13.134  22.642  0.00  0.00    +0.000 A 
ATOM     32  C   UNL     1      -1.493  14.257  22.929  0.00  0.00    +0.000 A 
ATOM     33  C   UNL     1      -2.780  14.098  23.442  0.00  0.00    +0.000 A 
ATOM     34  C   UNL     1      -3.297  12.820  23.653  0.00  0.00    +0.000 A 
ATOM     35  C   UNL     1      -2.523  11.694  23.366  0.00  0.00    +0.000 A 
ENDBRANCH  27  30
ENDBRANCH  25  26
ENDBRANCH  24  25
ENDBRANCH   3  24
TORSDOF 6
ENDMDL
MODEL 8
REMARK VINA RESULT:      -9.2      2.517      3.148
REMARK  Name = 
REMARK  6 active torsions:
REMARK  status: ('A' for Active; 'I' for Inactive)
REMARK    1  A    between atoms: C_7  and  C_8
REMARK    2  A    between atoms: N_10  and  C_11
REMARK    3  A    between atoms: C_11  and  C_12
REMARK    4  A    between atoms: C_12  and  N_13
REMARK    5  A    between atoms: C_14  and  C_16
REMARK    6  A    between atoms: C_23  and  C_24
REMARK                            x       y       z     vdW  Elec       q    Type
REMARK                         _______ _______ _______ _____ _____    ______ ____
ROOT
ATOM      1  C   UNL     1       2.999   6.889  18.026  0.00  0.00    +0.000 A 
ATOM      2  C   UNL     1       2.779   8.226  18.241  0.00  0.00    +0.000 A 
ATOM      3  N   UNL     1       1.885   8.282  19.269  0.00  0.00    +0.000 N 
ATOM      4  N   UNL     1       1.432   7.073  19.661  0.00  0.00    +0.000 NA
ATOM      5  C   UNL     1       2.140   6.195  18.931  0.00  0.00    +0.000 A 
ENDROOT
BRANCH   1  12
ATOM      6  O   UNL     1       8.686   3.951  17.809  0.00  0.00    +0.000 OA
ATOM      7  C   UNL     1       7.599   4.501  17.666  0.00  0.00    +0.000 C 
ATOM      8  N   UNL     1       7.039   4.656  16.437  0.00  0.00    +0.000 N 
ATOM      9  C   UNL     1       5.837   5.238  16.160  0.00  0.00    +0.000 C 
ATOM     10  O   UNL     1       5.416   5.302  15.008  0.00  0.00    +0.000 OA
ATOM     11  C   UNL     1       5.094   5.758  17.333  0.00  0.00    +0.000 C 
ATOM     12  C   UNL     1       3.923   6.373  17.078  0.00  0.00    +0.000 C 
ATOM     13  C   UNL     1       5.659   5.565  18.692  0.00  0.00    +0.000 C 
ATOM     14  O   UNL     1       5.109   5.892  19.736  0.00  0.00    +0.000 OA
ATOM     15  N   UNL     1       6.894   4.979  18.724  0.00  0.00    +0.000 N 
ATOM     16  H   UNL     1       7.558   4.287  15.653  0.00  0.00    +0.000 HD
ATOM     17  H   UNL     1       7.301   4.845  19.640  0.00  0.00    +0.000 HD
ENDBRANCH   1  12
BRANCH   5  18
ATOM     18  C   UNL     1       2.001   4.746  19.127  0.00  0.00    +0.000 A 
ATOM     19  C   UNL     1       1.783   3.886  18.041  0.00  0.00    +0.000 A 
ATOM     20  C   UNL     1       1.733   2.502  18.220  0.00  0.00    +0.000 A 
ATOM     21  C   UNL     1       1.874   1.962  19.495  0.00  0.00    +0.000 A 
ATOM     22  C   UNL     1       2.055   2.804  20.591  0.00  0.00    +0.000 A 
ATOM     23  C   UNL     1       2.118   4.188  20.409  0.00  0.00    +0.000 A 
ENDBRANCH   5  18
BRANCH   3  24
ATOM     24  C   UNL     1       1.403   9.498  19.894  0.00  0.00    +0.000 C 
BRANCH  24  25
ATOM     25  C   UNL     1       0.266   9.268  20.886  0.00  0.00    +0.000 C 
BRANCH  25  26
ATOM     26  N   UNL     1      -0.384  10.504  21.300  0.00  0.00    +0.000 N 
ATOM     27  C   UNL     1      -0.547  10.800  22.639  0.00  0.00    +0.000 C 
ATOM     28  O   UNL     1      -0.068  10.116  23.536  0.00  0.00    +0.000 OA
ATOM     29  H   UNL     1      -0.968  10.968  20.618  0.00  0.00    +0.000 HD
BRANCH  27  30
ATOM     30  C   UNL     1      -1.376  11.990  22.969  0.00  0.00    +0.000 A 
ATOM     31  C   UNL     1      -2.681  11.770  23.429  0.00  0.00    +0.000 A 
ATOM     32  C   UNL     1      -3.512  12.849  23.730  0.00  0.00    +0.000 A 
ATOM     33  C   UNL     1      -3.039  14.153  23.580  0.00  0.00    +0.000 A 
ATOM     34  C   UNL     1      -1.733  14.378  23.146  0.00  0.00    +0.000 A 
ATOM     35  C   UNL     1      -0.897  13.300  22.845  0.00  0.00    +0.000 A 
ENDBRANCH  27  30
ENDBRANCH  25  26
ENDBRANCH  24  25
ENDBRANCH   3  24
TORSDOF 6
ENDMDL
MODEL 9
REMARK VINA RESULT:      -9.2      3.968      7.711
REMARK  Name = 
REMARK  6 active torsions:
REMARK  status: ('A' for Active; 'I' for Inactive)
REMARK    1  A    between atoms: C_7  and  C_8
REMARK    2  A    between atoms: N_10  and  C_11
REMARK    3  A    between atoms: C_11  and  C_12
REMARK    4  A    between atoms: C_12  and  N_13
REMARK    5  A    between atoms: C_14  and  C_16
REMARK    6  A    between atoms: C_23  and  C_24
REMARK                            x       y       z     vdW  Elec       q    Type
REMARK                         _______ _______ _______ _____ _____    ______ ____
ROOT
ATOM      1  C   UNL     1       3.239   5.681  17.621  0.00  0.00    +0.000 A 
ATOM      2  C   UNL     1       4.421   5.366  17.001  0.00  0.00    +0.000 A 
ATOM      3  N   UNL     1       5.125   6.532  16.954  0.00  0.00    +0.000 N 
ATOM      4  N   UNL     1       4.434   7.601  17.403  0.00  0.00    +0.000 NA
ATOM      5  C   UNL     1       3.278   7.088  17.858  0.00  0.00    +0.000 A 
ENDROOT
BRANCH   1  12
ATOM      6  O   UNL     1       1.258   2.067  22.523  0.00  0.00    +0.000 OA
ATOM      7  C   UNL     1       1.494   2.687  21.492  0.00  0.00    +0.000 C 
ATOM      8  N   UNL     1       0.687   2.586  20.402  0.00  0.00    +0.000 N 
ATOM      9  C   UNL     1       0.844   3.233  19.212  0.00  0.00    +0.000 C 
ATOM     10  O   UNL     1       0.035   3.084  18.300  0.00  0.00    +0.000 OA
ATOM     11  C   UNL     1       2.029   4.119  19.119  0.00  0.00    +0.000 C 
ATOM     12  C   UNL     1       2.226   4.737  17.937  0.00  0.00    +0.000 C 
ATOM     13  C   UNL     1       2.906   4.284  20.305  0.00  0.00    +0.000 C 
ATOM     14  O   UNL     1       3.871   5.035  20.368  0.00  0.00    +0.000 OA
ATOM     15  N   UNL     1       2.568   3.511  21.382  0.00  0.00    +0.000 N 
ATOM     16  H   UNL     1      -0.119   1.984  20.490  0.00  0.00    +0.000 HD
ATOM     17  H   UNL     1       3.157   3.603  22.198  0.00  0.00    +0.000 HD
ENDBRANCH   1  12
BRANCH   5  18
ATOM     18  C   UNL     1       2.271   7.931  18.516  0.00  0.00    +0.000 A 
ATOM     19  C   UNL     1       1.998   7.798  19.884  0.00  0.00    +0.000 A 
ATOM     20  C   UNL     1       1.100   8.656  20.523  0.00  0.00    +0.000 A 
ATOM     21  C   UNL     1       0.443   9.642  19.793  0.00  0.00    +0.000 A 
ATOM     22  C   UNL     1       0.676   9.765  18.425  0.00  0.00    +0.000 A 
ATOM     23  C   UNL     1       1.584   8.914  17.789  0.00  0.00    +0.000 A 
ENDBRANCH   5  18
BRANCH   3  24
ATOM     24  C   UNL     1       6.474   6.677  16.443  0.00  0.00    +0.000 C 
BRANCH  24  25
ATOM     25  C   UNL     1       7.477   7.155  17.490  0.00  0.00    +0.000 C 
BRANCH  25  26
ATOM     26  N   UNL     1       7.875   8.544  17.302  0.00  0.00    +0.000 N 
ATOM     27  C   UNL     1       8.579   9.214  18.282  0.00  0.00    +0.000 C 
ATOM     28  O   UNL     1       8.998   8.666  19.295  0.00  0.00    +0.000 OA
ATOM     29  H   UNL     1       7.375   9.076  16.603  0.00  0.00    +0.000 HD
BRANCH  27  30
ATOM     30  C   UNL     1       8.787  10.673  18.083  0.00  0.00    +0.000 A 
ATOM     31  C   UNL     1       9.987  11.231  18.542  0.00  0.00    +0.000 A 
ATOM     32  C   UNL     1      10.226  12.598  18.404  0.00  0.00    +0.000 A 
ATOM     33  C   UNL     1       9.270  13.413  17.798  0.00  0.00    +0.000 A 
ATOM     34  C   UNL     1       8.084  12.859  17.315  0.00  0.00    +0.000 A 
ATOM     35  C   UNL     1       7.841  11.491  17.451  0.00  0.00    +0.000 A 
ENDBRANCH  27  30
ENDBRANCH  25  26
ENDBRANCH  24  25
ENDBRANCH   3  24
TORSDOF 6
ENDMDL
