MODEL 1
REMARK VINA RESULT:      -7.8      0.000      0.000
REMARK  Name = 
REMARK  6 active torsions:
REMARK  status: ('A' for Active; 'I' for Inactive)
REMARK    1  A    between atoms: C_1  and  C_2
REMARK    2  A    between atoms: C_2  and  N_3
REMARK    3  A    between atoms: C_8  and  C_9
REMARK    4  A    between atoms: N_12  and  C_13
REMARK    5  A    between atoms: C_13  and  C_14
REMARK    6  A    between atoms: N_23  and  C_24
REMARK                            x       y       z     vdW  Elec       q    Type
REMARK                         _______ _______ _______ _____ _____    ______ ____
ROOT
ATOM      1  N   UNL     1       4.963   4.989  17.691  0.00  0.00    +0.000 N 
ATOM      2  C   UNL     1       4.475   6.196  17.201  0.00  0.00    +0.000 A 
ATOM      3  O   UNL     1       4.836   6.733  16.154  0.00  0.00    +0.000 OA
ATOM      4  C   UNL     1       3.505   6.776  18.043  0.00  0.00    +0.000 A 
ATOM      5  N   UNL     1       2.878   7.974  17.951  0.00  0.00    +0.000 N 
ATOM      6  C   UNL     1       2.054   8.082  19.039  0.00  0.00    +0.000 A 
ATOM      7  N   UNL     1       2.124   6.999  19.799  0.00  0.00    +0.000 NA
ATOM      8  C   UNL     1       2.995   6.175  19.149  0.00  0.00    +0.000 A 
ATOM      9  N   UNL     1       3.355   4.888  19.475  0.00  0.00    +0.000 N 
ATOM     10  C   UNL     1       2.682   4.147  20.523  0.00  0.00    +0.000 C 
ATOM     11  C   UNL     1       4.361   4.250  18.735  0.00  0.00    +0.000 A 
ATOM     12  O   UNL     1       4.700   3.089  18.980  0.00  0.00    +0.000 OA
ATOM     13  H   UNL     1       3.022   8.669  17.229  0.00  0.00    +0.000 HD
ENDROOT
BRANCH   6  14
ATOM     14  C   UNL     1       1.210   9.265  19.296  0.00  0.00    +0.000 A 
ATOM     15  C   UNL     1       0.614   9.700  20.492  0.00  0.00    +0.000 A 
ATOM     16  N   UNL     1      -0.111  10.807  20.321  0.00  0.00    +0.000 NA
ATOM     17  N   UNL     1       0.039  11.082  19.000  0.00  0.00    +0.000 N 
ATOM     18  C   UNL     1       0.854  10.194  18.358  0.00  0.00    +0.000 A 
BRANCH  17  19
ATOM     19  C   UNL     1      -0.747  12.148  18.390  0.00  0.00    +0.000 C 
BRANCH  19  20
ATOM     20  C   UNL     1      -2.143  11.715  18.012  0.00  0.00    +0.000 A 
ATOM     21  C   UNL     1      -3.219  11.945  18.884  0.00  0.00    +0.000 A 
ATOM     22  C   UNL     1      -4.524  11.622  18.503  0.00  0.00    +0.000 A 
ATOM     23  C   UNL     1      -4.770  11.079  17.243  0.00  0.00    +0.000 A 
ATOM     24  C   UNL     1      -3.711  10.836  16.373  0.00  0.00    +0.000 A 
ATOM     25  C   UNL     1      -2.404  11.142  16.758  0.00  0.00    +0.000 A 
ENDBRANCH  19  20
ENDBRANCH  17  19
ENDBRANCH   6  14
BRANCH   1  27
ATOM     26  C   UNL     1       7.428   4.736  17.592  0.00  0.00    +0.000 C 
ATOM     27  C   UNL     1       6.081   4.388  16.974  0.00  0.00    +0.000 C 
ENDBRANCH   1  27
TORSDOF 4
ENDMDL
MODEL 2
REMARK VINA RESULT:      -7.6      1.094      2.320
REMARK  Name = 
REMARK  6 active torsions:
REMARK  status: ('A' for Active; 'I' for Inactive)
REMARK    1  A    between atoms: C_1  and  C_2
REMARK    2  A    between atoms: C_2  and  N_3
REMARK    3  A    between atoms: C_8  and  C_9
REMARK    4  A    between atoms: N_12  and  C_13
REMARK    5  A    between atoms: C_13  and  C_14
REMARK    6  A    between atoms: N_23  and  C_24
REMARK                            x       y       z     vdW  Elec       q    Type
REMARK                         _______ _______ _______ _____ _____    ______ ____
ROOT
ATOM      1  N   UNL     1       3.976   4.048  18.927  0.00  0.00    +0.000 N 
ATOM      2  C   UNL     1       3.202   4.743  19.852  0.00  0.00    +0.000 A 
ATOM      3  O   UNL     1       2.829   4.301  20.938  0.00  0.00    +0.000 OA
ATOM      4  C   UNL     1       2.859   6.038  19.414  0.00  0.00    +0.000 A 
ATOM      5  N   UNL     1       2.052   6.965  19.986  0.00  0.00    +0.000 N 
ATOM      6  C   UNL     1       2.016   8.043  19.145  0.00  0.00    +0.000 A 
ATOM      7  N   UNL     1       2.778   7.842  18.079  0.00  0.00    +0.000 NA
ATOM      8  C   UNL     1       3.331   6.611  18.276  0.00  0.00    +0.000 A 
ATOM      9  N   UNL     1       4.264   5.962  17.503  0.00  0.00    +0.000 N 
ATOM     10  C   UNL     1       4.939   6.621  16.402  0.00  0.00    +0.000 C 
ATOM     11  C   UNL     1       4.621   4.643  17.820  0.00  0.00    +0.000 A 
ATOM     12  O   UNL     1       5.469   4.032  17.165  0.00  0.00    +0.000 OA
ATOM     13  H   UNL     1       1.546   6.859  20.857  0.00  0.00    +0.000 HD
ENDROOT
BRANCH   6  14
ATOM     14  C   UNL     1       1.225   9.257  19.423  0.00  0.00    +0.000 A 
ATOM     15  C   UNL     1       0.694   9.725  20.637  0.00  0.00    +0.000 A 
ATOM     16  N   UNL     1       0.001  10.855  20.483  0.00  0.00    +0.000 NA
ATOM     17  N   UNL     1       0.103  11.109  19.153  0.00  0.00    +0.000 N 
ATOM     18  C   UNL     1       0.860  10.186  18.489  0.00  0.00    +0.000 A 
BRANCH  17  19
ATOM     19  C   UNL     1      -0.672  12.194  18.564  0.00  0.00    +0.000 C 
BRANCH  19  20
ATOM     20  C   UNL     1      -2.073  11.783  18.180  0.00  0.00    +0.000 A 
ATOM     21  C   UNL     1      -3.151  12.043  19.041  0.00  0.00    +0.000 A 
ATOM     22  C   UNL     1      -4.459  11.740  18.654  0.00  0.00    +0.000 A 
ATOM     23  C   UNL     1      -4.706  11.187  17.399  0.00  0.00    +0.000 A 
ATOM     24  C   UNL     1      -3.645  10.914  16.540  0.00  0.00    +0.000 A 
ATOM     25  C   UNL     1      -2.336  11.201  16.930  0.00  0.00    +0.000 A 
ENDBRANCH  19  20
ENDBRANCH  17  19
ENDBRANCH   6  14
BRANCH   1  27
ATOM     26  C   UNL     1       3.272   1.704  18.532  0.00  0.00    +0.000 C 
ATOM     27  C   UNL     1       4.251   2.646  19.217  0.00  0.00    +0.000 C 
ENDBRANCH   1  27
TORSDOF 4
ENDMDL
MODEL 3
REMARK VINA RESULT:      -7.6      3.448      8.594
REMARK  Name = 
REMARK  6 active torsions:
REMARK  status: ('A' for Active; 'I' for Inactive)
REMARK    1  A    between atoms: C_1  and  C_2
REMARK    2  A    between atoms: C_2  and  N_3
REMARK    3  A    between atoms: C_8  and  C_9
REMARK    4  A    between atoms: N_12  and  C_13
REMARK    5  A    between atoms: C_13  and  C_14
REMARK    6  A    between atoms: N_23  and  C_24
REMARK                            x       y       z     vdW  Elec       q    Type
REMARK                         _______ _______ _______ _____ _____    ______ ____
ROOT
ATOM      1  N   UNL     1      -1.341  12.008  21.825  0.00  0.00    +0.000 N 
ATOM      2  C   UNL     1      -0.443  10.979  22.092  0.00  0.00    +0.000 A 
ATOM      3  O   UNL     1      -0.096  10.615  23.215  0.00  0.00    +0.000 OA
ATOM      4  C   UNL     1       0.063  10.379  20.922  0.00  0.00    +0.000 A 
ATOM      5  N   UNL     1       1.013   9.423  20.775  0.00  0.00    +0.000 N 
ATOM      6  C   UNL     1       1.169   9.213  19.432  0.00  0.00    +0.000 A 
ATOM      7  N   UNL     1       0.348   9.980  18.730  0.00  0.00    +0.000 NA
ATOM      8  C   UNL     1      -0.366  10.670  19.666  0.00  0.00    +0.000 A 
ATOM      9  N   UNL     1      -1.410  11.543  19.469  0.00  0.00    +0.000 N 
ATOM     10  C   UNL     1      -2.025  11.720  18.168  0.00  0.00    +0.000 C 
ATOM     11  C   UNL     1      -1.937  12.240  20.565  0.00  0.00    +0.000 A 
ATOM     12  O   UNL     1      -2.887  13.017  20.436  0.00  0.00    +0.000 OA
ATOM     13  H   UNL     1       1.532   8.978  21.522  0.00  0.00    +0.000 HD
ENDROOT
BRANCH   6  14
ATOM     14  C   UNL     1       2.135   8.246  18.874  0.00  0.00    +0.000 A 
ATOM     15  C   UNL     1       2.841   8.280  17.659  0.00  0.00    +0.000 A 
ATOM     16  N   UNL     1       3.603   7.198  17.489  0.00  0.00    +0.000 NA
ATOM     17  N   UNL     1       3.384   6.475  18.617  0.00  0.00    +0.000 N 
ATOM     18  C   UNL     1       2.531   7.090  19.488  0.00  0.00    +0.000 A 
BRANCH  17  19
ATOM     19  C   UNL     1       3.929   5.127  18.728  0.00  0.00    +0.000 C 
BRANCH  19  20
ATOM     20  C   UNL     1       2.910   4.110  19.182  0.00  0.00    +0.000 A 
ATOM     21  C   UNL     1       2.848   3.718  20.528  0.00  0.00    +0.000 A 
ATOM     22  C   UNL     1       1.853   2.841  20.967  0.00  0.00    +0.000 A 
ATOM     23  C   UNL     1       0.902   2.356  20.071  0.00  0.00    +0.000 A 
ATOM     24  C   UNL     1       0.959   2.729  18.730  0.00  0.00    +0.000 A 
ATOM     25  C   UNL     1       1.962   3.592  18.285  0.00  0.00    +0.000 A 
ENDBRANCH  19  20
ENDBRANCH  17  19
ENDBRANCH   6  14
BRANCH   1  27
ATOM     26  C   UNL     1      -3.022  12.191  23.638  0.00  0.00    +0.000 C 
ATOM     27  C   UNL     1      -1.800  12.795  22.963  0.00  0.00    +0.000 C 
ENDBRANCH   1  27
TORSDOF 4
ENDMDL
MODEL 4
REMARK VINA RESULT:      -7.5      4.484      9.118
REMARK  Name = 
REMARK  6 active torsions:
REMARK  status: ('A' for Active; 'I' for Inactive)
REMARK    1  A    between atoms: C_1  and  C_2
REMARK    2  A    between atoms: C_2  and  N_3
REMARK    3  A    between atoms: C_8  and  C_9
REMARK    4  A    between atoms: N_12  and  C_13
REMARK    5  A    between atoms: C_13  and  C_14
REMARK    6  A    between atoms: N_23  and  C_24
REMARK                            x       y       z     vdW  Elec       q    Type
REMARK                         _______ _______ _______ _____ _____    ______ ____
ROOT
ATOM      1  N   UNL     1       1.729   3.775  19.931  0.00  0.00    +0.000 N 
ATOM      2  C   UNL     1       2.420   3.138  18.905  0.00  0.00    +0.000 A 
ATOM      3  O   UNL     1       2.320   1.945  18.618  0.00  0.00    +0.000 OA
ATOM      4  C   UNL     1       3.284   4.005  18.207  0.00  0.00    +0.000 A 
ATOM      5  N   UNL     1       4.176   3.737  17.222  0.00  0.00    +0.000 N 
ATOM      6  C   UNL     1       4.796   4.916  16.908  0.00  0.00    +0.000 A 
ATOM      7  N   UNL     1       4.322   5.913  17.639  0.00  0.00    +0.000 NA
ATOM      8  C   UNL     1       3.353   5.346  18.413  0.00  0.00    +0.000 A 
ATOM      9  N   UNL     1       2.494   5.962  19.292  0.00  0.00    +0.000 N 
ATOM     10  C   UNL     1       2.399   7.406  19.385  0.00  0.00    +0.000 C 
ATOM     11  C   UNL     1       1.640   5.177  20.081  0.00  0.00    +0.000 A 
ATOM     12  O   UNL     1       0.840   5.691  20.867  0.00  0.00    +0.000 OA
ATOM     13  H   UNL     1       4.368   2.827  16.822  0.00  0.00    +0.000 HD
ENDROOT
BRANCH   6  14
ATOM     14  C   UNL     1       5.850   5.024  15.880  0.00  0.00    +0.000 A 
ATOM     15  C   UNL     1       7.093   5.678  15.933  0.00  0.00    +0.000 A 
ATOM     16  N   UNL     1       7.763   5.581  14.783  0.00  0.00    +0.000 NA
ATOM     17  N   UNL     1       6.936   4.846  13.996  0.00  0.00    +0.000 N 
ATOM     18  C   UNL     1       5.790   4.465  14.634  0.00  0.00    +0.000 A 
BRANCH  17  19
ATOM     19  C   UNL     1       7.257   4.661  12.586  0.00  0.00    +0.000 C 
BRANCH  19  20
ATOM     20  C   UNL     1       6.665   3.400  12.003  0.00  0.00    +0.000 A 
ATOM     21  C   UNL     1       5.278   3.280  11.829  0.00  0.00    +0.000 A 
ATOM     22  C   UNL     1       4.733   2.151  11.213  0.00  0.00    +0.000 A 
ATOM     23  C   UNL     1       5.568   1.134  10.753  0.00  0.00    +0.000 A 
ATOM     24  C   UNL     1       6.946   1.235  10.928  0.00  0.00    +0.000 A 
ATOM     25  C   UNL     1       7.491   2.356  11.558  0.00  0.00    +0.000 A 
ENDBRANCH  19  20
ENDBRANCH  17  19
ENDBRANCH   6  14
BRANCH   1  27
ATOM     26  C   UNL     1       1.697   2.478  22.043  0.00  0.00    +0.000 C 
ATOM     27  C   UNL     1       0.929   2.933  20.811  0.00  0.00    +0.000 C 
ENDBRANCH   1  27
TORSDOF 4
ENDMDL
MODEL 5
REMARK VINA RESULT:      -7.5      1.274      2.611
REMARK  Name = 
REMARK  6 active torsions:
REMARK  status: ('A' for Active; 'I' for Inactive)
REMARK    1  A    between atoms: C_1  and  C_2
REMARK    2  A    between atoms: C_2  and  N_3
REMARK    3  A    between atoms: C_8  and  C_9
REMARK    4  A    between atoms: N_12  and  C_13
REMARK    5  A    between atoms: C_13  and  C_14
REMARK    6  A    between atoms: N_23  and  C_24
REMARK                            x       y       z     vdW  Elec       q    Type
REMARK                         _______ _______ _______ _____ _____    ______ ____
ROOT
ATOM      1  N   UNL     1       3.857   3.890  19.115  0.00  0.00    +0.000 N 
ATOM      2  C   UNL     1       3.080   4.494  20.099  0.00  0.00    +0.000 A 
ATOM      3  O   UNL     1       2.717   3.956  21.145  0.00  0.00    +0.000 OA
ATOM      4  C   UNL     1       2.723   5.819  19.777  0.00  0.00    +0.000 A 
ATOM      5  N   UNL     1       1.910   6.684  20.431  0.00  0.00    +0.000 N 
ATOM      6  C   UNL     1       1.860   7.831  19.686  0.00  0.00    +0.000 A 
ATOM      7  N   UNL     1       2.618   7.730  18.605  0.00  0.00    +0.000 NA
ATOM      8  C   UNL     1       3.184   6.493  18.691  0.00  0.00    +0.000 A 
ATOM      9  N   UNL     1       4.120   5.923  17.861  0.00  0.00    +0.000 N 
ATOM     10  C   UNL     1       4.783   6.682  16.819  0.00  0.00    +0.000 C 
ATOM     11  C   UNL     1       4.491   4.585  18.062  0.00  0.00    +0.000 A 
ATOM     12  O   UNL     1       5.342   4.041  17.352  0.00  0.00    +0.000 OA
ATOM     13  H   UNL     1       1.409   6.498  21.291  0.00  0.00    +0.000 HD
ENDROOT
BRANCH   6  14
ATOM     14  C   UNL     1       1.058   9.008  20.072  0.00  0.00    +0.000 A 
ATOM     15  C   UNL     1       0.482   9.336  21.311  0.00  0.00    +0.000 A 
ATOM     16  N   UNL     1      -0.205  10.479  21.261  0.00  0.00    +0.000 NA
ATOM     17  N   UNL     1      -0.053  10.884  19.975  0.00  0.00    +0.000 N 
ATOM     18  C   UNL     1       0.729  10.040  19.238  0.00  0.00    +0.000 A 
BRANCH  17  19
ATOM     19  C   UNL     1      -0.805  12.033  19.485  0.00  0.00    +0.000 C 
BRANCH  19  20
ATOM     20  C   UNL     1      -2.142  11.658  18.891  0.00  0.00    +0.000 A 
ATOM     21  C   UNL     1      -2.231  10.649  17.920  0.00  0.00    +0.000 A 
ATOM     22  C   UNL     1      -3.474  10.241  17.430  0.00  0.00    +0.000 A 
ATOM     23  C   UNL     1      -4.642  10.827  17.913  0.00  0.00    +0.000 A 
ATOM     24  C   UNL     1      -4.568  11.838  18.868  0.00  0.00    +0.000 A 
ATOM     25  C   UNL     1      -3.326  12.258  19.348  0.00  0.00    +0.000 A 
ENDBRANCH  19  20
ENDBRANCH  17  19
ENDBRANCH   6  14
BRANCH   1  27
ATOM     26  C   UNL     1       3.203   1.583  18.483  0.00  0.00    +0.000 C 
ATOM     27  C   UNL     1       4.146   2.471  19.281  0.00  0.00    +0.000 C 
ENDBRANCH   1  27
TORSDOF 4
ENDMDL
MODEL 6
REMARK VINA RESULT:      -7.5      3.292      8.840
REMARK  Name = 
REMARK  6 active torsions:
REMARK  status: ('A' for Active; 'I' for Inactive)
REMARK    1  A    between atoms: C_1  and  C_2
REMARK    2  A    between atoms: C_2  and  N_3
REMARK    3  A    between atoms: C_8  and  C_9
REMARK    4  A    between atoms: N_12  and  C_13
REMARK    5  A    between atoms: C_13  and  C_14
REMARK    6  A    between atoms: N_23  and  C_24
REMARK                            x       y       z     vdW  Elec       q    Type
REMARK                         _______ _______ _______ _____ _____    ______ ____
ROOT
ATOM      1  N   UNL     1      -0.305  11.298  21.773  0.00  0.00    +0.000 N 
ATOM      2  C   UNL     1       0.134  10.121  22.373  0.00  0.00    +0.000 A 
ATOM      3  O   UNL     1       0.097   9.884  23.580  0.00  0.00    +0.000 OA
ATOM      4  C   UNL     1       0.655   9.197  21.445  0.00  0.00    +0.000 A 
ATOM      5  N   UNL     1       1.254   7.998  21.653  0.00  0.00    +0.000 N 
ATOM      6  C   UNL     1       1.616   7.510  20.427  0.00  0.00    +0.000 A 
ATOM      7  N   UNL     1       1.256   8.339  19.459  0.00  0.00    +0.000 NA
ATOM      8  C   UNL     1       0.622   9.364  20.097  0.00  0.00    +0.000 A 
ATOM      9  N   UNL     1      -0.017  10.448  19.544  0.00  0.00    +0.000 N 
ATOM     10  C   UNL     1      -0.250  10.554  18.117  0.00  0.00    +0.000 C 
ATOM     11  C   UNL     1      -0.511  11.456  20.385  0.00  0.00    +0.000 A 
ATOM     12  O   UNL     1      -1.108  12.436  19.931  0.00  0.00    +0.000 OA
ATOM     13  H   UNL     1       1.429   7.567  22.553  0.00  0.00    +0.000 HD
ENDROOT
BRANCH   6  14
ATOM     14  C   UNL     1       2.312   6.221  20.246  0.00  0.00    +0.000 A 
ATOM     15  C   UNL     1       2.078   4.980  20.863  0.00  0.00    +0.000 A 
ATOM     16  N   UNL     1       2.944   4.047  20.462  0.00  0.00    +0.000 NA
ATOM     17  N   UNL     1       3.729   4.706  19.572  0.00  0.00    +0.000 N 
ATOM     18  C   UNL     1       3.358   6.008  19.392  0.00  0.00    +0.000 A 
BRANCH  17  19
ATOM     19  C   UNL     1       4.913   4.050  19.028  0.00  0.00    +0.000 C 
BRANCH  19  20
ATOM     20  C   UNL     1       5.924   5.020  18.466  0.00  0.00    +0.000 A 
ATOM     21  C   UNL     1       5.794   5.502  17.154  0.00  0.00    +0.000 A 
ATOM     22  C   UNL     1       6.679   6.463  16.659  0.00  0.00    +0.000 A 
ATOM     23  C   UNL     1       7.695   6.962  17.472  0.00  0.00    +0.000 A 
ATOM     24  C   UNL     1       7.842   6.485  18.772  0.00  0.00    +0.000 A 
ATOM     25  C   UNL     1       6.969   5.513  19.263  0.00  0.00    +0.000 A 
ENDBRANCH  19  20
ENDBRANCH  17  19
ENDBRANCH   6  14
BRANCH   1  27
ATOM     26  C   UNL     1      -2.161  12.243  23.118  0.00  0.00    +0.000 C 
ATOM     27  C   UNL     1      -0.716  12.378  22.662  0.00  0.00    +0.000 C 
ENDBRANCH   1  27
TORSDOF 4
ENDMDL
MODEL 7
REMARK VINA RESULT:      -7.5      0.963      1.064
REMARK  Name = 
REMARK  6 active torsions:
REMARK  status: ('A' for Active; 'I' for Inactive)
REMARK    1  A    between atoms: C_1  and  C_2
REMARK    2  A    between atoms: C_2  and  N_3
REMARK    3  A    between atoms: C_8  and  C_9
REMARK    4  A    between atoms: N_12  and  C_13
REMARK    5  A    between atoms: C_13  and  C_14
REMARK    6  A    between atoms: N_23  and  C_24
REMARK                            x       y       z     vdW  Elec       q    Type
REMARK                         _______ _______ _______ _____ _____    ______ ____
ROOT
ATOM      1  N   UNL     1       5.128   4.825  16.854  0.00  0.00    +0.000 N 
ATOM      2  C   UNL     1       4.875   6.186  16.711  0.00  0.00    +0.000 A 
ATOM      3  O   UNL     1       5.520   6.955  15.999  0.00  0.00    +0.000 OA
ATOM      4  C   UNL     1       3.787   6.625  17.491  0.00  0.00    +0.000 A 
ATOM      5  N   UNL     1       3.304   7.877  17.686  0.00  0.00    +0.000 N 
ATOM      6  C   UNL     1       2.258   7.774  18.561  0.00  0.00    +0.000 A 
ATOM      7  N   UNL     1       2.051   6.513  18.911  0.00  0.00    +0.000 NA
ATOM      8  C   UNL     1       2.978   5.802  18.208  0.00  0.00    +0.000 A 
ATOM      9  N   UNL     1       3.139   4.438  18.146  0.00  0.00    +0.000 N 
ATOM     10  C   UNL     1       2.175   3.526  18.730  0.00  0.00    +0.000 C 
ATOM     11  C   UNL     1       4.234   3.907  17.449  0.00  0.00    +0.000 A 
ATOM     12  O   UNL     1       4.404   2.689  17.351  0.00  0.00    +0.000 OA
ATOM     13  H   UNL     1       3.675   8.728  17.282  0.00  0.00    +0.000 HD
ENDROOT
BRANCH   6  14
ATOM     14  C   UNL     1       1.481   8.938  19.030  0.00  0.00    +0.000 A 
ATOM     15  C   UNL     1       0.986   9.231  20.312  0.00  0.00    +0.000 A 
ATOM     16  N   UNL     1       0.297  10.373  20.338  0.00  0.00    +0.000 NA
ATOM     17  N   UNL     1       0.365  10.813  19.056  0.00  0.00    +0.000 N 
ATOM     18  C   UNL     1       1.099   9.992  18.247  0.00  0.00    +0.000 A 
BRANCH  17  19
ATOM     19  C   UNL     1      -0.418  11.974  18.647  0.00  0.00    +0.000 C 
BRANCH  19  20
ATOM     20  C   UNL     1      -1.858  11.641  18.344  0.00  0.00    +0.000 A 
ATOM     21  C   UNL     1      -2.886  12.096  19.185  0.00  0.00    +0.000 A 
ATOM     22  C   UNL     1      -4.225  11.862  18.862  0.00  0.00    +0.000 A 
ATOM     23  C   UNL     1      -4.553  11.182  17.691  0.00  0.00    +0.000 A 
ATOM     24  C   UNL     1      -3.544  10.715  16.853  0.00  0.00    +0.000 A 
ATOM     25  C   UNL     1      -2.205  10.934  17.181  0.00  0.00    +0.000 A 
ENDBRANCH  19  20
ENDBRANCH  17  19
ENDBRANCH   6  14
BRANCH   1  27
ATOM     26  C   UNL     1       6.099   3.935  14.754  0.00  0.00    +0.000 C 
ATOM     27  C   UNL     1       6.329   4.305  16.212  0.00  0.00    +0.000 C 
ENDBRANCH   1  27
TORSDOF 4
ENDMDL
MODEL 8
REMARK VINA RESULT:      -7.5      2.675      8.497
REMARK  Name = 
REMARK  6 active torsions:
REMARK  status: ('A' for Active; 'I' for Inactive)
REMARK    1  A    between atoms: C_1  and  C_2
REMARK    2  A    between atoms: C_2  and  N_3
REMARK    3  A    between atoms: C_8  and  C_9
REMARK    4  A    between atoms: N_12  and  C_13
REMARK    5  A    between atoms: C_13  and  C_14
REMARK    6  A    between atoms: N_23  and  C_24
REMARK                            x       y       z     vdW  Elec       q    Type
REMARK                         _______ _______ _______ _____ _____    ______ ____
ROOT
ATOM      1  N   UNL     1       0.084  11.445  20.053  0.00  0.00    +0.000 N 
ATOM      2  C   UNL     1       0.943  10.650  19.300  0.00  0.00    +0.000 A 
ATOM      3  O   UNL     1       1.473  10.985  18.241  0.00  0.00    +0.000 OA
ATOM      4  C   UNL     1       1.150   9.377  19.869  0.00  0.00    +0.000 A 
ATOM      5  N   UNL     1       1.835   8.311  19.390  0.00  0.00    +0.000 N 
ATOM      6  C   UNL     1       1.703   7.302  20.305  0.00  0.00    +0.000 A 
ATOM      7  N   UNL     1       0.980   7.693  21.344  0.00  0.00    +0.000 NA
ATOM      8  C   UNL     1       0.677   8.997  21.085  0.00  0.00    +0.000 A 
ATOM      9  N   UNL     1       0.012   9.894  21.887  0.00  0.00    +0.000 N 
ATOM     10  C   UNL     1      -0.325   9.587  23.264  0.00  0.00    +0.000 C 
ATOM     11  C   UNL     1      -0.299  11.165  21.383  0.00  0.00    +0.000 A 
ATOM     12  O   UNL     1      -0.877  12.007  22.077  0.00  0.00    +0.000 OA
ATOM     13  H   UNL     1       2.323   8.264  18.504  0.00  0.00    +0.000 HD
ENDROOT
BRANCH   6  14
ATOM     14  C   UNL     1       2.304   5.966  20.125  0.00  0.00    +0.000 A 
ATOM     15  C   UNL     1       1.854   4.711  20.569  0.00  0.00    +0.000 A 
ATOM     16  N   UNL     1       2.692   3.728  20.237  0.00  0.00    +0.000 NA
ATOM     17  N   UNL     1       3.682   4.370  19.565  0.00  0.00    +0.000 N 
ATOM     18  C   UNL     1       3.466   5.713  19.450  0.00  0.00    +0.000 A 
BRANCH  17  19
ATOM     19  C   UNL     1       4.883   3.639  19.176  0.00  0.00    +0.000 C 
BRANCH  19  20
ATOM     20  C   UNL     1       5.466   4.111  17.866  0.00  0.00    +0.000 A 
ATOM     21  C   UNL     1       6.758   4.656  17.818  0.00  0.00    +0.000 A 
ATOM     22  C   UNL     1       7.334   5.016  16.597  0.00  0.00    +0.000 A 
ATOM     23  C   UNL     1       6.631   4.824  15.409  0.00  0.00    +0.000 A 
ATOM     24  C   UNL     1       5.343   4.293  15.443  0.00  0.00    +0.000 A 
ATOM     25  C   UNL     1       4.760   3.948  16.663  0.00  0.00    +0.000 A 
ENDBRANCH  19  20
ENDBRANCH  17  19
ENDBRANCH   6  14
BRANCH   1  27
ATOM     26  C   UNL     1      -1.581  12.607  18.631  0.00  0.00    +0.000 C 
ATOM     27  C   UNL     1      -0.317  12.719  19.470  0.00  0.00    +0.000 C 
ENDBRANCH   1  27
TORSDOF 4
ENDMDL
MODEL 9
REMARK VINA RESULT:      -7.5      0.678      1.281
REMARK  Name = 
REMARK  6 active torsions:
REMARK  status: ('A' for Active; 'I' for Inactive)
REMARK    1  A    between atoms: C_1  and  C_2
REMARK    2  A    between atoms: C_2  and  N_3
REMARK    3  A    between atoms: C_8  and  C_9
REMARK    4  A    between atoms: N_12  and  C_13
REMARK    5  A    between atoms: C_13  and  C_14
REMARK    6  A    between atoms: N_23  and  C_24
REMARK                            x       y       z     vdW  Elec       q    Type
REMARK                         _______ _______ _______ _____ _____    ______ ____
ROOT
ATOM      1  N   UNL     1       5.088   5.142  17.673  0.00  0.00    +0.000 N 
ATOM      2  C   UNL     1       4.685   6.322  17.055  0.00  0.00    +0.000 A 
ATOM      3  O   UNL     1       5.140   6.759  15.999  0.00  0.00    +0.000 OA
ATOM      4  C   UNL     1       3.685   7.002  17.777  0.00  0.00    +0.000 A 
ATOM      5  N   UNL     1       3.115   8.211  17.547  0.00  0.00    +0.000 N 
ATOM      6  C   UNL     1       2.223   8.436  18.560  0.00  0.00    +0.000 A 
ATOM      7  N   UNL     1       2.195   7.417  19.405  0.00  0.00    +0.000 NA
ATOM      8  C   UNL     1       3.075   6.512  18.887  0.00  0.00    +0.000 A 
ATOM      9  N   UNL     1       3.358   5.244  19.338  0.00  0.00    +0.000 N 
ATOM     10  C   UNL     1       2.584   4.614  20.389  0.00  0.00    +0.000 C 
ATOM     11  C   UNL     1       4.386   4.513  18.725  0.00  0.00    +0.000 A 
ATOM     12  O   UNL     1       4.658   3.364  19.084  0.00  0.00    +0.000 OA
ATOM     13  H   UNL     1       3.338   8.839  16.785  0.00  0.00    +0.000 HD
ENDROOT
BRANCH   6  14
ATOM     14  C   UNL     1       1.413   9.666  18.662  0.00  0.00    +0.000 A 
ATOM     15  C   UNL     1       1.764  10.998  18.388  0.00  0.00    +0.000 A 
ATOM     16  N   UNL     1       0.763  11.844  18.633  0.00  0.00    +0.000 NA
ATOM     17  N   UNL     1      -0.239  11.034  19.060  0.00  0.00    +0.000 N 
ATOM     18  C   UNL     1       0.106   9.712  19.059  0.00  0.00    +0.000 A 
BRANCH  17  19
ATOM     19  C   UNL     1      -1.468  11.618  19.585  0.00  0.00    +0.000 C 
BRANCH  19  20
ATOM     20  C   UNL     1      -2.604  11.604  18.590  0.00  0.00    +0.000 A 
ATOM     21  C   UNL     1      -2.394  11.151  17.278  0.00  0.00    +0.000 A 
ATOM     22  C   UNL     1      -3.460  11.057  16.380  0.00  0.00    +0.000 A 
ATOM     23  C   UNL     1      -4.748  11.402  16.785  0.00  0.00    +0.000 A 
ATOM     24  C   UNL     1      -4.968  11.863  18.080  0.00  0.00    +0.000 A 
ATOM     25  C   UNL     1      -3.902  11.973  18.975  0.00  0.00    +0.000 A 
ENDBRANCH  19  20
ENDBRANCH  17  19
ENDBRANCH   6  14
BRANCH   1  27
ATOM     26  C   UNL     1       7.545   4.817  17.752  0.00  0.00    +0.000 C 
ATOM     27  C   UNL     1       6.228   4.446  17.088  0.00  0.00    +0.000 C 
ENDBRANCH   1  27
TORSDOF 4
ENDMDL
