MODEL 1
REMARK VINA RESULT:      -7.9      0.000      0.000
REMARK  Name = 
REMARK  4 active torsions:
REMARK  status: ('A' for Active; 'I' for Inactive)
REMARK    1  A    between atoms: C_1  and  C_2
REMARK    2  A    between atoms: C_2  and  C_3
REMARK    3  A    between atoms: C_7  and  O_8
REMARK    4  A    between atoms: C_13  and  N_14
REMARK                            x       y       z     vdW  Elec       q    Type
REMARK                         _______ _______ _______ _____ _____    ______ ____
ROOT
ATOM      1  C   UNL     1       2.749   6.866  17.947  0.00  0.00    +0.000 C 
ATOM      2  C   UNL     1       3.649   5.609  17.941  0.00  0.00    +0.000 C 
ATOM      3  C   UNL     1       3.861   5.452  19.506  0.00  0.00    +0.000 C 
ATOM      4  C   UNL     1       3.253   4.154  17.604  0.00  0.00    +0.000 C 
ATOM      5  C   UNL     1       4.643   3.350  17.719  0.00  0.00    +0.000 C 
ATOM      6  C   UNL     1       5.634   4.019  16.858  0.00  0.00    +0.000 A 
ATOM      7  C   UNL     1       6.960   4.380  16.933  0.00  0.00    +0.000 A 
ATOM      8  N   UNL     1       7.634   4.952  15.908  0.00  0.00    +0.000 NA
ATOM      9  C   UNL     1       6.995   4.973  14.740  0.00  0.00    +0.000 A 
ATOM     10  C   UNL     1       7.662   4.695  13.548  0.00  0.00    +0.000 A 
ATOM     11  C   UNL     1       7.026   4.070  12.481  0.00  0.00    +0.000 A 
ATOM     12  C   UNL     1       5.673   3.764  12.597  0.00  0.00    +0.000 A 
ATOM     13  C   UNL     1       4.952   4.262  13.705  0.00  0.00    +0.000 A 
ATOM     14  C   UNL     1       5.593   4.933  14.768  0.00  0.00    +0.000 A 
ATOM     15  C   UNL     1       5.020   4.909  16.030  0.00  0.00    +0.000 A 
ATOM     16  O   UNL     1       4.651   5.994  16.882  0.00  0.00    +0.000 OA
ENDROOT
BRANCH  12  17
ATOM     17  N   UNL     1       5.073   2.750  11.695  0.00  0.00    +0.000 N 
ATOM     18  O   UNL     1       3.970   2.995  11.199  0.00  0.00    +0.000 OA
ATOM     19  O   UNL     1       5.738   1.728  11.454  0.00  0.00    +0.000 OA
ENDBRANCH  12  17
BRANCH   7  20
ATOM     20  O   UNL     1       7.508   4.653  18.151  0.00  0.00    +0.000 OA
ATOM     21  H   UNL     1       8.452   4.557  17.926  0.00  0.00    +0.000 HD
ENDBRANCH   7  20
TORSDOF 2
ENDMDL
MODEL 2
REMARK VINA RESULT:      -7.8      3.125      5.192
REMARK  Name = 
REMARK  4 active torsions:
REMARK  status: ('A' for Active; 'I' for Inactive)
REMARK    1  A    between atoms: C_1  and  C_2
REMARK    2  A    between atoms: C_2  and  C_3
REMARK    3  A    between atoms: C_7  and  O_8
REMARK    4  A    between atoms: C_13  and  N_14
REMARK                            x       y       z     vdW  Elec       q    Type
REMARK                         _______ _______ _______ _____ _____    ______ ____
ROOT
ATOM      1  C   UNL     1       2.727   2.609  21.791  0.00  0.00    +0.000 C 
ATOM      2  C   UNL     1       2.423   3.529  20.586  0.00  0.00    +0.000 C 
ATOM      3  C   UNL     1       0.868   3.244  20.446  0.00  0.00    +0.000 C 
ATOM      4  C   UNL     1       2.389   5.074  20.550  0.00  0.00    +0.000 C 
ATOM      5  C   UNL     1       2.081   5.407  19.006  0.00  0.00    +0.000 C 
ATOM      6  C   UNL     1       3.082   4.713  18.177  0.00  0.00    +0.000 A 
ATOM      7  C   UNL     1       3.100   3.989  17.005  0.00  0.00    +0.000 A 
ATOM      8  N   UNL     1       4.236   3.513  16.444  0.00  0.00    +0.000 NA
ATOM      9  C   UNL     1       5.373   3.949  16.984  0.00  0.00    +0.000 A 
ATOM     10  C   UNL     1       6.459   4.306  16.188  0.00  0.00    +0.000 A 
ATOM     11  C   UNL     1       7.338   5.319  16.557  0.00  0.00    +0.000 A 
ATOM     12  C   UNL     1       7.147   5.953  17.783  0.00  0.00    +0.000 A 
ATOM     13  C   UNL     1       6.196   5.427  18.684  0.00  0.00    +0.000 A 
ATOM     14  C   UNL     1       5.333   4.371  18.321  0.00  0.00    +0.000 A 
ATOM     15  C   UNL     1       4.104   4.253  18.951  0.00  0.00    +0.000 A 
ATOM     16  O   UNL     1       3.546   3.144  19.656  0.00  0.00    +0.000 OA
ENDROOT
BRANCH  12  17
ATOM     17  N   UNL     1       7.770   7.279  18.023  0.00  0.00    +0.000 N 
ATOM     18  O   UNL     1       8.554   7.388  18.970  0.00  0.00    +0.000 OA
ATOM     19  O   UNL     1       7.500   8.195  17.228  0.00  0.00    +0.000 OA
ENDBRANCH  12  17
BRANCH   7  20
ATOM     20  O   UNL     1       1.989   3.293  16.635  0.00  0.00    +0.000 OA
ATOM     21  H   UNL     1       1.690   2.991  17.513  0.00  0.00    +0.000 HD
ENDBRANCH   7  20
TORSDOF 2
ENDMDL
MODEL 3
REMARK VINA RESULT:      -7.6      2.869      4.566
REMARK  Name = 
REMARK  4 active torsions:
REMARK  status: ('A' for Active; 'I' for Inactive)
REMARK    1  A    between atoms: C_1  and  C_2
REMARK    2  A    between atoms: C_2  and  C_3
REMARK    3  A    between atoms: C_7  and  O_8
REMARK    4  A    between atoms: C_13  and  N_14
REMARK                            x       y       z     vdW  Elec       q    Type
REMARK                         _______ _______ _______ _____ _____    ______ ____
ROOT
ATOM      1  C   UNL     1       0.622   1.923  18.852  0.00  0.00    +0.000 C 
ATOM      2  C   UNL     1       1.652   2.822  19.574  0.00  0.00    +0.000 C 
ATOM      3  C   UNL     1       0.979   2.861  21.010  0.00  0.00    +0.000 C 
ATOM      4  C   UNL     1       3.097   2.470  19.994  0.00  0.00    +0.000 C 
ATOM      5  C   UNL     1       3.647   3.841  20.633  0.00  0.00    +0.000 C 
ATOM      6  C   UNL     1       3.453   4.919  19.647  0.00  0.00    +0.000 A 
ATOM      7  C   UNL     1       3.026   6.228  19.650  0.00  0.00    +0.000 A 
ATOM      8  N   UNL     1       3.017   7.008  18.544  0.00  0.00    +0.000 NA
ATOM      9  C   UNL     1       3.630   6.502  17.476  0.00  0.00    +0.000 A 
ATOM     10  C   UNL     1       4.435   7.296  16.662  0.00  0.00    +0.000 A 
ATOM     11  C   UNL     1       5.553   6.783  16.012  0.00  0.00    +0.000 A 
ATOM     12  C   UNL     1       5.835   5.426  16.142  0.00  0.00    +0.000 A 
ATOM     13  C   UNL     1       4.887   4.587  16.766  0.00  0.00    +0.000 A 
ATOM     14  C   UNL     1       3.732   5.106  17.391  0.00  0.00    +0.000 A 
ATOM     15  C   UNL     1       3.145   4.398  18.427  0.00  0.00    +0.000 A 
ATOM     16  O   UNL     1       1.801   3.934  18.565  0.00  0.00    +0.000 OA
ENDROOT
BRANCH  12  17
ATOM     17  N   UNL     1       7.201   4.932  15.835  0.00  0.00    +0.000 N 
ATOM     18  O   UNL     1       7.661   5.158  14.712  0.00  0.00    +0.000 OA
ATOM     19  O   UNL     1       7.823   4.357  16.744  0.00  0.00    +0.000 OA
ENDBRANCH  12  17
BRANCH   7  20
ATOM     20  O   UNL     1       2.140   6.638  20.600  0.00  0.00    +0.000 OA
ATOM     21  H   UNL     1       2.625   6.364  21.400  0.00  0.00    +0.000 HD
ENDBRANCH   7  20
TORSDOF 2
ENDMDL
MODEL 4
REMARK VINA RESULT:      -7.3      3.506      6.986
REMARK  Name = 
REMARK  4 active torsions:
REMARK  status: ('A' for Active; 'I' for Inactive)
REMARK    1  A    between atoms: C_1  and  C_2
REMARK    2  A    between atoms: C_2  and  C_3
REMARK    3  A    between atoms: C_7  and  O_8
REMARK    4  A    between atoms: C_13  and  N_14
REMARK                            x       y       z     vdW  Elec       q    Type
REMARK                         _______ _______ _______ _____ _____    ______ ____
ROOT
ATOM      1  C   UNL     1       5.596   5.431  14.939  0.00  0.00    +0.000 C 
ATOM      2  C   UNL     1       5.896   5.314  16.451  0.00  0.00    +0.000 C 
ATOM      3  C   UNL     1       7.225   4.451  16.370  0.00  0.00    +0.000 C 
ATOM      4  C   UNL     1       6.384   6.418  17.416  0.00  0.00    +0.000 C 
ATOM      5  C   UNL     1       6.440   5.674  18.842  0.00  0.00    +0.000 C 
ATOM      6  C   UNL     1       5.123   5.062  19.094  0.00  0.00    +0.000 A 
ATOM      7  C   UNL     1       4.638   3.871  19.586  0.00  0.00    +0.000 A 
ATOM      8  N   UNL     1       3.319   3.621  19.759  0.00  0.00    +0.000 NA
ATOM      9  C   UNL     1       2.509   4.667  19.607  0.00  0.00    +0.000 A 
ATOM     10  C   UNL     1       1.436   4.879  20.470  0.00  0.00    +0.000 A 
ATOM     11  C   UNL     1       1.002   6.158  20.802  0.00  0.00    +0.000 A 
ATOM     12  C   UNL     1       1.632   7.250  20.209  0.00  0.00    +0.000 A 
ATOM     13  C   UNL     1       2.551   7.023  19.162  0.00  0.00    +0.000 A 
ATOM     14  C   UNL     1       2.959   5.722  18.799  0.00  0.00    +0.000 A 
ATOM     15  C   UNL     1       4.201   5.538  18.212  0.00  0.00    +0.000 A 
ATOM     16  O   UNL     1       4.538   4.916  16.971  0.00  0.00    +0.000 OA
ENDROOT
BRANCH  12  17
ATOM     17  N   UNL     1       1.503   8.593  20.830  0.00  0.00    +0.000 N 
ATOM     18  O   UNL     1       1.249   9.550  20.093  0.00  0.00    +0.000 OA
ATOM     19  O   UNL     1       1.614   8.669  22.065  0.00  0.00    +0.000 OA
ENDBRANCH  12  17
BRANCH   7  20
ATOM     20  O   UNL     1       5.382   2.739  19.445  0.00  0.00    +0.000 OA
ATOM     21  H   UNL     1       5.155   2.513  18.524  0.00  0.00    +0.000 HD
ENDBRANCH   7  20
TORSDOF 2
ENDMDL
MODEL 5
REMARK VINA RESULT:      -7.0      1.020      1.292
REMARK  Name = 
REMARK  4 active torsions:
REMARK  status: ('A' for Active; 'I' for Inactive)
REMARK    1  A    between atoms: C_1  and  C_2
REMARK    2  A    between atoms: C_2  and  C_3
REMARK    3  A    between atoms: C_7  and  O_8
REMARK    4  A    between atoms: C_13  and  N_14
REMARK                            x       y       z     vdW  Elec       q    Type
REMARK                         _______ _______ _______ _____ _____    ______ ____
ROOT
ATOM      1  C   UNL     1       1.945   6.962  18.242  0.00  0.00    +0.000 C 
ATOM      2  C   UNL     1       2.826   5.695  18.331  0.00  0.00    +0.000 C 
ATOM      3  C   UNL     1       2.680   5.403  19.884  0.00  0.00    +0.000 C 
ATOM      4  C   UNL     1       2.519   4.280  17.790  0.00  0.00    +0.000 C 
ATOM      5  C   UNL     1       3.849   3.446  18.146  0.00  0.00    +0.000 C 
ATOM      6  C   UNL     1       5.008   4.167  17.590  0.00  0.00    +0.000 A 
ATOM      7  C   UNL     1       6.282   4.498  17.992  0.00  0.00    +0.000 A 
ATOM      8  N   UNL     1       7.169   5.142  17.198  0.00  0.00    +0.000 NA
ATOM      9  C   UNL     1       6.810   5.273  15.922  0.00  0.00    +0.000 A 
ATOM     10  C   UNL     1       7.729   5.084  14.892  0.00  0.00    +0.000 A 
ATOM     11  C   UNL     1       7.352   4.561  13.659  0.00  0.00    +0.000 A 
ATOM     12  C   UNL     1       6.008   4.270  13.441  0.00  0.00    +0.000 A 
ATOM     13  C   UNL     1       5.055   4.686  14.397  0.00  0.00    +0.000 A 
ATOM     14  C   UNL     1       5.438   5.254  15.631  0.00  0.00    +0.000 A 
ATOM     15  C   UNL     1       4.595   5.134  16.724  0.00  0.00    +0.000 A 
ATOM     16  O   UNL     1       4.041   6.150  17.561  0.00  0.00    +0.000 OA
ENDROOT
BRANCH  12  17
ATOM     17  N   UNL     1       5.629   3.345  12.344  0.00  0.00    +0.000 N 
ATOM     18  O   UNL     1       6.497   2.590  11.897  0.00  0.00    +0.000 OA
ATOM     19  O   UNL     1       4.445   3.353  11.967  0.00  0.00    +0.000 OA
ENDBRANCH  12  17
BRANCH   7  20
ATOM     20  O   UNL     1       6.541   4.658  19.321  0.00  0.00    +0.000 OA
ATOM     21  H   UNL     1       6.004   5.454  19.493  0.00  0.00    +0.000 HD
ENDBRANCH   7  20
TORSDOF 2
ENDMDL
MODEL 6
REMARK VINA RESULT:      -6.8      3.245      6.540
REMARK  Name = 
REMARK  4 active torsions:
REMARK  status: ('A' for Active; 'I' for Inactive)
REMARK    1  A    between atoms: C_1  and  C_2
REMARK    2  A    between atoms: C_2  and  C_3
REMARK    3  A    between atoms: C_7  and  O_8
REMARK    4  A    between atoms: C_13  and  N_14
REMARK                            x       y       z     vdW  Elec       q    Type
REMARK                         _______ _______ _______ _____ _____    ______ ____
ROOT
ATOM      1  C   UNL     1       5.139   4.296  14.322  0.00  0.00    +0.000 C 
ATOM      2  C   UNL     1       5.715   4.987  15.579  0.00  0.00    +0.000 C 
ATOM      3  C   UNL     1       7.123   4.258  15.635  0.00  0.00    +0.000 C 
ATOM      4  C   UNL     1       6.194   6.449  15.729  0.00  0.00    +0.000 C 
ATOM      5  C   UNL     1       6.611   6.550  17.280  0.00  0.00    +0.000 C 
ATOM      6  C   UNL     1       5.467   6.106  18.095  0.00  0.00    +0.000 A 
ATOM      7  C   UNL     1       5.260   5.323  19.209  0.00  0.00    +0.000 A 
ATOM      8  N   UNL     1       4.044   5.148  19.778  0.00  0.00    +0.000 NA
ATOM      9  C   UNL     1       3.073   5.934  19.317  0.00  0.00    +0.000 A 
ATOM     10  C   UNL     1       2.149   6.519  20.181  0.00  0.00    +0.000 A 
ATOM     11  C   UNL     1       1.595   7.769  19.924  0.00  0.00    +0.000 A 
ATOM     12  C   UNL     1       1.939   8.421  18.743  0.00  0.00    +0.000 A 
ATOM     13  C   UNL     1       2.683   7.721  17.767  0.00  0.00    +0.000 A 
ATOM     14  C   UNL     1       3.211   6.436  18.015  0.00  0.00    +0.000 A 
ATOM     15  C   UNL     1       4.343   6.023  17.330  0.00  0.00    +0.000 A 
ATOM     16  O   UNL     1       4.545   4.864  16.522  0.00  0.00    +0.000 OA
ENDROOT
BRANCH  12  17
ATOM     17  N   UNL     1       1.722   9.885  18.627  0.00  0.00    +0.000 N 
ATOM     18  O   UNL     1       1.095  10.451  19.528  0.00  0.00    +0.000 OA
ATOM     19  O   UNL     1       2.224  10.466  17.650  0.00  0.00    +0.000 OA
ENDBRANCH  12  17
BRANCH   7  20
ATOM     20  O   UNL     1       6.128   4.309  19.481  0.00  0.00    +0.000 OA
ATOM     21  H   UNL     1       6.928   4.663  19.049  0.00  0.00    +0.000 HD
ENDBRANCH   7  20
TORSDOF 2
ENDMDL
MODEL 7
REMARK VINA RESULT:      -6.6      2.678      3.645
REMARK  Name = 
REMARK  4 active torsions:
REMARK  status: ('A' for Active; 'I' for Inactive)
REMARK    1  A    between atoms: C_1  and  C_2
REMARK    2  A    between atoms: C_2  and  C_3
REMARK    3  A    between atoms: C_7  and  O_8
REMARK    4  A    between atoms: C_13  and  N_14
REMARK                            x       y       z     vdW  Elec       q    Type
REMARK                         _______ _______ _______ _____ _____    ______ ____
ROOT
ATOM      1  C   UNL     1       0.679   5.286  20.089  0.00  0.00    +0.000 C 
ATOM      2  C   UNL     1       1.532   4.056  19.702  0.00  0.00    +0.000 C 
ATOM      3  C   UNL     1       0.935   3.010  20.735  0.00  0.00    +0.000 C 
ATOM      4  C   UNL     1       1.446   3.202  18.417  0.00  0.00    +0.000 C 
ATOM      5  C   UNL     1       2.633   2.130  18.599  0.00  0.00    +0.000 C 
ATOM      6  C   UNL     1       3.882   2.866  18.863  0.00  0.00    +0.000 A 
ATOM      7  C   UNL     1       4.966   2.752  19.704  0.00  0.00    +0.000 A 
ATOM      8  N   UNL     1       6.029   3.588  19.663  0.00  0.00    +0.000 NA
ATOM      9  C   UNL     1       6.066   4.424  18.627  0.00  0.00    +0.000 A 
ATOM     10  C   UNL     1       7.257   4.684  17.953  0.00  0.00    +0.000 A 
ATOM     11  C   UNL     1       7.284   4.952  16.588  0.00  0.00    +0.000 A 
ATOM     12  C   UNL     1       6.077   5.012  15.896  0.00  0.00    +0.000 A 
ATOM     13  C   UNL     1       4.869   4.986  16.627  0.00  0.00    +0.000 A 
ATOM     14  C   UNL     1       4.846   4.754  18.019  0.00  0.00    +0.000 A 
ATOM     15  C   UNL     1       3.718   4.192  18.595  0.00  0.00    +0.000 A 
ATOM     16  O   UNL     1       2.906   4.675  19.666  0.00  0.00    +0.000 OA
ENDROOT
BRANCH  12  17
ATOM     17  N   UNL     1       6.075   4.873  14.419  0.00  0.00    +0.000 N 
ATOM     18  O   UNL     1       6.997   5.395  13.786  0.00  0.00    +0.000 OA
ATOM     19  O   UNL     1       5.166   4.198  13.905  0.00  0.00    +0.000 OA
ENDBRANCH  12  17
BRANCH   7  20
ATOM     20  O   UNL     1       4.809   2.146  20.914  0.00  0.00    +0.000 OA
ATOM     21  H   UNL     1       5.309   2.771  21.472  0.00  0.00    +0.000 HD
ENDBRANCH   7  20
TORSDOF 2
ENDMDL
MODEL 8
REMARK VINA RESULT:      -6.4      3.048      5.712
REMARK  Name = 
REMARK  4 active torsions:
REMARK  status: ('A' for Active; 'I' for Inactive)
REMARK    1  A    between atoms: C_1  and  C_2
REMARK    2  A    between atoms: C_2  and  C_3
REMARK    3  A    between atoms: C_7  and  O_8
REMARK    4  A    between atoms: C_13  and  N_14
REMARK                            x       y       z     vdW  Elec       q    Type
REMARK                         _______ _______ _______ _____ _____    ______ ____
ROOT
ATOM      1  C   UNL     1       6.386   3.587  13.658  0.00  0.00    +0.000 C 
ATOM      2  C   UNL     1       6.093   4.619  14.771  0.00  0.00    +0.000 C 
ATOM      3  C   UNL     1       7.180   5.709  14.387  0.00  0.00    +0.000 C 
ATOM      4  C   UNL     1       4.864   5.545  14.914  0.00  0.00    +0.000 C 
ATOM      5  C   UNL     1       5.133   6.315  16.301  0.00  0.00    +0.000 C 
ATOM      6  C   UNL     1       5.371   5.308  17.349  0.00  0.00    +0.000 A 
ATOM      7  C   UNL     1       6.237   5.131  18.406  0.00  0.00    +0.000 A 
ATOM      8  N   UNL     1       6.161   4.084  19.261  0.00  0.00    +0.000 NA
ATOM      9  C   UNL     1       5.075   3.323  19.146  0.00  0.00    +0.000 A 
ATOM     10  C   UNL     1       4.406   2.846  20.271  0.00  0.00    +0.000 A 
ATOM     11  C   UNL     1       3.028   2.659  20.280  0.00  0.00    +0.000 A 
ATOM     12  C   UNL     1       2.313   2.907  19.111  0.00  0.00    +0.000 A 
ATOM     13  C   UNL     1       3.022   3.157  17.916  0.00  0.00    +0.000 A 
ATOM     14  C   UNL     1       4.426   3.307  17.902  0.00  0.00    +0.000 A 
ATOM     15  C   UNL     1       5.017   4.069  16.908  0.00  0.00    +0.000 A 
ATOM     16  O   UNL     1       6.041   3.715  15.977  0.00  0.00    +0.000 OA
ENDROOT
BRANCH  12  17
ATOM     17  N   UNL     1       0.847   3.129  19.185  0.00  0.00    +0.000 N 
ATOM     18  O   UNL     1       0.119   2.435  18.470  0.00  0.00    +0.000 OA
ATOM     19  O   UNL     1       0.433   3.973  19.998  0.00  0.00    +0.000 OA
ENDBRANCH  12  17
BRANCH   7  20
ATOM     20  O   UNL     1       7.481   5.684  18.348  0.00  0.00    +0.000 OA
ATOM     21  H   UNL     1       8.004   4.937  18.691  0.00  0.00    +0.000 HD
ENDBRANCH   7  20
TORSDOF 2
ENDMDL
MODEL 9
REMARK VINA RESULT:      -6.3      4.228      6.214
REMARK  Name = 
REMARK  4 active torsions:
REMARK  status: ('A' for Active; 'I' for Inactive)
REMARK    1  A    between atoms: C_1  and  C_2
REMARK    2  A    between atoms: C_2  and  C_3
REMARK    3  A    between atoms: C_7  and  O_8
REMARK    4  A    between atoms: C_13  and  N_14
REMARK                            x       y       z     vdW  Elec       q    Type
REMARK                         _______ _______ _______ _____ _____    ______ ____
ROOT
ATOM      1  C   UNL     1       8.049   5.970  18.936  0.00  0.00    +0.000 C 
ATOM      2  C   UNL     1       6.799   6.187  18.052  0.00  0.00    +0.000 C 
ATOM      3  C   UNL     1       7.339   7.375  17.150  0.00  0.00    +0.000 C 
ATOM      4  C   UNL     1       6.248   5.269  16.937  0.00  0.00    +0.000 C 
ATOM      5  C   UNL     1       4.907   6.021  16.460  0.00  0.00    +0.000 C 
ATOM      6  C   UNL     1       4.065   6.258  17.645  0.00  0.00    +0.000 A 
ATOM      7  C   UNL     1       3.293   7.281  18.150  0.00  0.00    +0.000 A 
ATOM      8  N   UNL     1       2.559   7.168  19.282  0.00  0.00    +0.000 NA
ATOM      9  C   UNL     1       2.465   5.940  19.788  0.00  0.00    +0.000 A 
ATOM     10  C   UNL     1       1.259   5.458  20.294  0.00  0.00    +0.000 A 
ATOM     11  C   UNL     1       0.912   4.115  20.207  0.00  0.00    +0.000 A 
ATOM     12  C   UNL     1       1.823   3.225  19.644  0.00  0.00    +0.000 A 
ATOM     13  C   UNL     1       3.130   3.676  19.356  0.00  0.00    +0.000 A 
ATOM     14  C   UNL     1       3.492   5.034  19.483  0.00  0.00    +0.000 A 
ATOM     15  C   UNL     1       4.524   5.538  18.706  0.00  0.00    +0.000 A 
ATOM     16  O   UNL     1       5.719   6.210  19.105  0.00  0.00    +0.000 OA
ENDROOT
BRANCH  12  17
ATOM     17  N   UNL     1       1.349   1.907  19.153  0.00  0.00    +0.000 N 
ATOM     18  O   UNL     1       0.172   1.811  18.794  0.00  0.00    +0.000 OA
ATOM     19  O   UNL     1       2.179   0.984  19.089  0.00  0.00    +0.000 OA
ENDBRANCH  12  17
BRANCH   7  20
ATOM     20  O   UNL     1       3.615   8.570  17.849  0.00  0.00    +0.000 OA
ATOM     21  H   UNL     1       3.850   8.461  16.910  0.00  0.00    +0.000 HD
ENDBRANCH   7  20
TORSDOF 2
ENDMDL
