MODEL 1
REMARK VINA RESULT:      -8.0      0.000      0.000
REMARK  Name = 
REMARK  4 active torsions:
REMARK  status: ('A' for Active; 'I' for Inactive)
REMARK    1  A    between atoms: C_1  and  C_2
REMARK    2  A    between atoms: C_2  and  C_3
REMARK    3  A    between atoms: C_11  and  C_12
REMARK    4  A    between atoms: N_14  and  C_15
REMARK                            x       y       z     vdW  Elec       q    Type
REMARK                         _______ _______ _______ _____ _____    ______ ____
ROOT
ATOM      1  C   UNL     1       1.331   9.471  19.437  0.00  0.00    +0.000 A 
ATOM      2  C   UNL     1       1.254   8.614  20.512  0.00  0.00    +0.000 A 
ATOM      3  N   UNL     1       1.636   7.317  20.472  0.00  0.00    +0.000 NA
ATOM      4  C   UNL     1       2.122   6.852  19.309  0.00  0.00    +0.000 A 
ATOM      5  N   UNL     1       2.576   5.529  19.255  0.00  0.00    +0.000 N 
ATOM      6  C   UNL     1       1.794   4.608  20.104  0.00  0.00    +0.000 C 
ATOM      7  C   UNL     1       2.202   3.135  19.844  0.00  0.00    +0.000 C 
ATOM      8  C   UNL     1       3.677   2.875  20.130  0.00  0.00    +0.000 C 
ATOM      9  C   UNL     1       4.366   3.205  18.803  0.00  0.00    +0.000 C 
ATOM     10  C   UNL     1       3.214   3.576  17.870  0.00  0.00    +0.000 C 
ATOM     11  C   UNL     1       2.820   5.067  17.868  0.00  0.00    +0.000 C 
ATOM     12  O   UNL     1       2.089   2.847  18.432  0.00  0.00    +0.000 OA
ATOM     13  N   UNL     1       2.238   7.618  18.215  0.00  0.00    +0.000 NA
ATOM     14  C   UNL     1       1.836   8.900  18.296  0.00  0.00    +0.000 A 
ENDROOT
BRANCH   9  15
ATOM     15  C   UNL     1       5.507   4.206  18.830  0.00  0.00    +0.000 C 
ATOM     16  O   UNL     1       5.744   4.849  19.852  0.00  0.00    +0.000 OA
ATOM     17  N   UNL     1       6.268   4.319  17.693  0.00  0.00    +0.000 N 
ATOM     18  H   UNL     1       6.233   3.538  17.037  0.00  0.00    +0.000 HD
BRANCH  17  19
ATOM     19  C   UNL     1       7.376   5.284  17.591  0.00  0.00    +0.000 C 
ATOM     20  C   UNL     1       6.960   6.718  17.186  0.00  0.00    +0.000 C 
ATOM     21  C   UNL     1       8.018   7.223  18.190  0.00  0.00    +0.000 C 
ATOM     22  C   UNL     1       7.828   5.888  18.942  0.00  0.00    +0.000 C 
ENDBRANCH  17  19
ENDBRANCH   9  15
BRANCH   1  24
ATOM     23  C   UNL     1       1.817  11.744  18.550  0.00  0.00    +0.000 C 
ATOM     24  C   UNL     1       0.970  10.918  19.506  0.00  0.00    +0.000 C 
ENDBRANCH   1  24
TORSDOF 3
ENDMDL
MODEL 2
REMARK VINA RESULT:      -8.0      1.050      1.112
REMARK  Name = 
REMARK  4 active torsions:
REMARK  status: ('A' for Active; 'I' for Inactive)
REMARK    1  A    between atoms: C_1  and  C_2
REMARK    2  A    between atoms: C_2  and  C_3
REMARK    3  A    between atoms: C_11  and  C_12
REMARK    4  A    between atoms: N_14  and  C_15
REMARK                            x       y       z     vdW  Elec       q    Type
REMARK                         _______ _______ _______ _____ _____    ______ ____
ROOT
ATOM      1  C   UNL     1       1.534   9.194  18.948  0.00  0.00    +0.000 A 
ATOM      2  C   UNL     1       1.857   8.496  20.090  0.00  0.00    +0.000 A 
ATOM      3  N   UNL     1       2.176   7.182  20.107  0.00  0.00    +0.000 NA
ATOM      4  C   UNL     1       2.177   6.532  18.931  0.00  0.00    +0.000 A 
ATOM      5  N   UNL     1       2.557   5.185  18.911  0.00  0.00    +0.000 N 
ATOM      6  C   UNL     1       2.141   4.444  20.119  0.00  0.00    +0.000 C 
ATOM      7  C   UNL     1       2.397   2.924  19.951  0.00  0.00    +0.000 C 
ATOM      8  C   UNL     1       3.867   2.600  19.702  0.00  0.00    +0.000 C 
ATOM      9  C   UNL     1       4.005   2.700  18.181  0.00  0.00    +0.000 C 
ATOM     10  C   UNL     1       2.591   3.024  17.700  0.00  0.00    +0.000 C 
ATOM     11  C   UNL     1       2.249   4.525  17.620  0.00  0.00    +0.000 C 
ATOM     12  O   UNL     1       1.753   2.458  18.744  0.00  0.00    +0.000 OA
ATOM     13  N   UNL     1       1.882   7.135  17.770  0.00  0.00    +0.000 NA
ATOM     14  C   UNL     1       1.560   8.441  17.801  0.00  0.00    +0.000 A 
ENDROOT
BRANCH   9  15
ATOM     15  C   UNL     1       5.087   3.612  17.629  0.00  0.00    +0.000 C 
ATOM     16  O   UNL     1       5.143   3.848  16.423  0.00  0.00    +0.000 OA
ATOM     17  N   UNL     1       5.952   4.176  18.533  0.00  0.00    +0.000 N 
ATOM     18  H   UNL     1       5.642   4.211  19.505  0.00  0.00    +0.000 HD
BRANCH  17  19
ATOM     19  C   UNL     1       7.063   5.045  18.109  0.00  0.00    +0.000 C 
ATOM     20  C   UNL     1       6.646   6.458  17.637  0.00  0.00    +0.000 C 
ATOM     21  C   UNL     1       7.911   6.982  18.350  0.00  0.00    +0.000 C 
ATOM     22  C   UNL     1       7.811   5.745  19.268  0.00  0.00    +0.000 C 
ENDBRANCH  17  19
ENDBRANCH   9  15
BRANCH   1  24
ATOM     23  C   UNL     1      -0.247  10.930  18.842  0.00  0.00    +0.000 C 
ATOM     24  C   UNL     1       1.248  10.659  18.928  0.00  0.00    +0.000 C 
ENDBRANCH   1  24
TORSDOF 3
ENDMDL
MODEL 3
REMARK VINA RESULT:      -8.0      1.481      1.723
REMARK  Name = 
REMARK  4 active torsions:
REMARK  status: ('A' for Active; 'I' for Inactive)
REMARK    1  A    between atoms: C_1  and  C_2
REMARK    2  A    between atoms: C_2  and  C_3
REMARK    3  A    between atoms: C_11  and  C_12
REMARK    4  A    between atoms: N_14  and  C_15
REMARK                            x       y       z     vdW  Elec       q    Type
REMARK                         _______ _______ _______ _____ _____    ______ ____
ROOT
ATOM      1  C   UNL     1       1.571   9.401  18.873  0.00  0.00    +0.000 A 
ATOM      2  C   UNL     1       1.695   8.804  20.108  0.00  0.00    +0.000 A 
ATOM      3  N   UNL     1       1.869   7.475  20.290  0.00  0.00    +0.000 NA
ATOM      4  C   UNL     1       1.927   6.705  19.191  0.00  0.00    +0.000 A 
ATOM      5  N   UNL     1       2.162   5.333  19.348  0.00  0.00    +0.000 N 
ATOM      6  C   UNL     1       1.544   4.771  20.565  0.00  0.00    +0.000 C 
ATOM      7  C   UNL     1       1.653   3.224  20.577  0.00  0.00    +0.000 C 
ATOM      8  C   UNL     1       3.099   2.738  20.534  0.00  0.00    +0.000 C 
ATOM      9  C   UNL     1       3.409   2.659  19.038  0.00  0.00    +0.000 C 
ATOM     10  C   UNL     1       2.096   3.060  18.365  0.00  0.00    +0.000 C 
ATOM     11  C   UNL     1       1.925   4.569  18.100  0.00  0.00    +0.000 C 
ATOM     12  O   UNL     1       1.096   2.693  19.354  0.00  0.00    +0.000 OA
ATOM     13  N   UNL     1       1.822   7.203  17.951  0.00  0.00    +0.000 NA
ATOM     14  C   UNL     1       1.639   8.528  17.816  0.00  0.00    +0.000 A 
ENDROOT
BRANCH   9  15
ATOM     15  C   UNL     1       4.634   3.398  18.530  0.00  0.00    +0.000 C 
ATOM     16  O   UNL     1       5.423   3.908  19.324  0.00  0.00    +0.000 OA
ATOM     17  N   UNL     1       4.828   3.429  17.172  0.00  0.00    +0.000 N 
ATOM     18  H   UNL     1       4.344   2.719  16.622  0.00  0.00    +0.000 HD
BRANCH  17  19
ATOM     19  C   UNL     1       5.960   4.151  16.564  0.00  0.00    +0.000 C 
ATOM     20  C   UNL     1       6.269   3.768  15.097  0.00  0.00    +0.000 C 
ATOM     21  C   UNL     1       6.561   5.263  14.853  0.00  0.00    +0.000 C 
ATOM     22  C   UNL     1       5.612   5.562  16.034  0.00  0.00    +0.000 C 
ENDBRANCH  17  19
ENDBRANCH   9  15
BRANCH   1  24
ATOM     23  C   UNL     1       0.212  11.424  19.379  0.00  0.00    +0.000 C 
ATOM     24  C   UNL     1       1.446  10.876  18.677  0.00  0.00    +0.000 C 
ENDBRANCH   1  24
TORSDOF 3
ENDMDL
MODEL 4
REMARK VINA RESULT:      -7.8      1.764      4.278
REMARK  Name = 
REMARK  4 active torsions:
REMARK  status: ('A' for Active; 'I' for Inactive)
REMARK    1  A    between atoms: C_1  and  C_2
REMARK    2  A    between atoms: C_2  and  C_3
REMARK    3  A    between atoms: C_11  and  C_12
REMARK    4  A    between atoms: N_14  and  C_15
REMARK                            x       y       z     vdW  Elec       q    Type
REMARK                         _______ _______ _______ _____ _____    ______ ____
ROOT
ATOM      1  C   UNL     1       0.916   9.298  19.243  0.00  0.00    +0.000 A 
ATOM      2  C   UNL     1       1.204   9.129  17.907  0.00  0.00    +0.000 A 
ATOM      3  N   UNL     1       2.132   8.265  17.438  0.00  0.00    +0.000 NA
ATOM      4  C   UNL     1       2.804   7.531  18.340  0.00  0.00    +0.000 A 
ATOM      5  N   UNL     1       3.733   6.590  17.879  0.00  0.00    +0.000 N 
ATOM      6  C   UNL     1       4.444   7.020  16.659  0.00  0.00    +0.000 C 
ATOM      7  C   UNL     1       5.599   6.044  16.319  0.00  0.00    +0.000 C 
ATOM      8  C   UNL     1       5.111   4.618  16.081  0.00  0.00    +0.000 C 
ATOM      9  C   UNL     1       5.119   3.997  17.480  0.00  0.00    +0.000 C 
ATOM     10  C   UNL     1       5.657   5.111  18.378  0.00  0.00    +0.000 C 
ATOM     11  C   UNL     1       4.591   6.058  18.964  0.00  0.00    +0.000 C 
ATOM     12  O   UNL     1       6.465   5.904  17.467  0.00  0.00    +0.000 OA
ATOM     13  N   UNL     1       2.584   7.626  19.659  0.00  0.00    +0.000 NA
ATOM     14  C   UNL     1       1.659   8.505  20.084  0.00  0.00    +0.000 A 
ENDROOT
BRANCH   9  15
ATOM     15  C   UNL     1       3.837   3.349  17.972  0.00  0.00    +0.000 C 
ATOM     16  O   UNL     1       2.975   2.992  17.170  0.00  0.00    +0.000 OA
ATOM     17  N   UNL     1       3.715   3.150  19.325  0.00  0.00    +0.000 N 
ATOM     18  H   UNL     1       4.578   3.150  19.869  0.00  0.00    +0.000 HD
BRANCH  17  19
ATOM     19  C   UNL     1       2.500   2.566  19.918  0.00  0.00    +0.000 C 
ATOM     20  C   UNL     1       2.542   2.389  21.455  0.00  0.00    +0.000 C 
ATOM     21  C   UNL     1       1.059   2.818  21.464  0.00  0.00    +0.000 C 
ATOM     22  C   UNL     1       1.350   3.575  20.150  0.00  0.00    +0.000 C 
ENDBRANCH  17  19
ENDBRANCH   9  15
BRANCH   1  24
ATOM     23  C   UNL     1      -1.243  10.412  18.705  0.00  0.00    +0.000 C 
ATOM     24  C   UNL     1      -0.156  10.203  19.750  0.00  0.00    +0.000 C 
ENDBRANCH   1  24
TORSDOF 3
ENDMDL
MODEL 5
REMARK VINA RESULT:      -7.8      1.892      5.207
REMARK  Name = 
REMARK  4 active torsions:
REMARK  status: ('A' for Active; 'I' for Inactive)
REMARK    1  A    between atoms: C_1  and  C_2
REMARK    2  A    between atoms: C_2  and  C_3
REMARK    3  A    between atoms: C_11  and  C_12
REMARK    4  A    between atoms: N_14  and  C_15
REMARK                            x       y       z     vdW  Elec       q    Type
REMARK                         _______ _______ _______ _____ _____    ______ ____
ROOT
ATOM      1  C   UNL     1       7.132   6.857  17.460  0.00  0.00    +0.000 A 
ATOM      2  C   UNL     1       6.012   6.727  16.669  0.00  0.00    +0.000 A 
ATOM      3  N   UNL     1       5.000   5.868  16.928  0.00  0.00    +0.000 NA
ATOM      4  C   UNL     1       5.105   5.105  18.029  0.00  0.00    +0.000 A 
ATOM      5  N   UNL     1       4.047   4.247  18.352  0.00  0.00    +0.000 N 
ATOM      6  C   UNL     1       3.377   3.676  17.167  0.00  0.00    +0.000 C 
ATOM      7  C   UNL     1       2.362   2.578  17.580  0.00  0.00    +0.000 C 
ATOM      8  C   UNL     1       1.273   3.106  18.508  0.00  0.00    +0.000 C 
ATOM      9  C   UNL     1       1.879   2.945  19.904  0.00  0.00    +0.000 C 
ATOM     10  C   UNL     1       3.238   2.295  19.646  0.00  0.00    +0.000 C 
ATOM     11  C   UNL     1       4.404   3.276  19.413  0.00  0.00    +0.000 C 
ATOM     12  O   UNL     1       3.030   1.588  18.393  0.00  0.00    +0.000 OA
ATOM     13  N   UNL     1       6.156   5.172  18.859  0.00  0.00    +0.000 NA
ATOM     14  C   UNL     1       7.145   6.032  18.558  0.00  0.00    +0.000 A 
ENDROOT
BRANCH   9  15
ATOM     15  C   UNL     1       1.921   4.169  20.801  0.00  0.00    +0.000 C 
ATOM     16  O   UNL     1       2.286   4.068  21.972  0.00  0.00    +0.000 OA
ATOM     17  N   UNL     1       1.579   5.372  20.236  0.00  0.00    +0.000 N 
ATOM     18  H   UNL     1       1.624   5.431  19.218  0.00  0.00    +0.000 HD
BRANCH  17  19
ATOM     19  C   UNL     1       1.547   6.619  21.020  0.00  0.00    +0.000 C 
ATOM     20  C   UNL     1       1.979   7.889  20.249  0.00  0.00    +0.000 C 
ATOM     21  C   UNL     1       0.858   8.632  21.006  0.00  0.00    +0.000 C 
ATOM     22  C   UNL     1       0.147   7.268  21.137  0.00  0.00    +0.000 C 
ENDBRANCH  17  19
ENDBRANCH   9  15
BRANCH   1  24
ATOM     23  C   UNL     1       8.081   9.059  18.125  0.00  0.00    +0.000 C 
ATOM     24  C   UNL     1       8.213   7.854  17.205  0.00  0.00    +0.000 C 
ENDBRANCH   1  24
TORSDOF 3
ENDMDL
MODEL 6
REMARK VINA RESULT:      -7.8      1.033      1.231
REMARK  Name = 
REMARK  4 active torsions:
REMARK  status: ('A' for Active; 'I' for Inactive)
REMARK    1  A    between atoms: C_1  and  C_2
REMARK    2  A    between atoms: C_2  and  C_3
REMARK    3  A    between atoms: C_11  and  C_12
REMARK    4  A    between atoms: N_14  and  C_15
REMARK                            x       y       z     vdW  Elec       q    Type
REMARK                         _______ _______ _______ _____ _____    ______ ____
ROOT
ATOM      1  C   UNL     1       1.342   9.002  20.255  0.00  0.00    +0.000 A 
ATOM      2  C   UNL     1       1.154   7.969  21.146  0.00  0.00    +0.000 A 
ATOM      3  N   UNL     1       1.383   6.669  20.853  0.00  0.00    +0.000 NA
ATOM      4  C   UNL     1       1.825   6.383  19.617  0.00  0.00    +0.000 A 
ATOM      5  N   UNL     1       2.123   5.051  19.304  0.00  0.00    +0.000 N 
ATOM      6  C   UNL     1       1.229   4.082  19.969  0.00  0.00    +0.000 C 
ATOM      7  C   UNL     1       1.465   2.649  19.426  0.00  0.00    +0.000 C 
ATOM      8  C   UNL     1       2.897   2.168  19.640  0.00  0.00    +0.000 C 
ATOM      9  C   UNL     1       3.634   2.665  18.394  0.00  0.00    +0.000 C 
ATOM     10  C   UNL     1       2.544   3.340  17.563  0.00  0.00    +0.000 C 
ATOM     11  C   UNL     1       2.327   4.839  17.852  0.00  0.00    +0.000 C 
ATOM     12  O   UNL     1       1.336   2.652  17.987  0.00  0.00    +0.000 OA
ATOM     13  N   UNL     1       2.042   7.326  18.689  0.00  0.00    +0.000 NA
ATOM     14  C   UNL     1       1.791   8.606  19.019  0.00  0.00    +0.000 A 
ENDROOT
BRANCH   9  15
ATOM     15  C   UNL     1       4.884   3.502  18.600  0.00  0.00    +0.000 C 
ATOM     16  O   UNL     1       5.313   3.707  19.735  0.00  0.00    +0.000 OA
ATOM     17  N   UNL     1       5.518   3.969  17.476  0.00  0.00    +0.000 N 
ATOM     18  H   UNL     1       5.313   3.488  16.600  0.00  0.00    +0.000 HD
BRANCH  17  19
ATOM     19  C   UNL     1       6.715   4.823  17.556  0.00  0.00    +0.000 C 
ATOM     20  C   UNL     1       7.068   5.580  16.253  0.00  0.00    +0.000 C 
ATOM     21  C   UNL     1       7.456   6.776  17.148  0.00  0.00    +0.000 C 
ATOM     22  C   UNL     1       6.474   6.210  18.196  0.00  0.00    +0.000 C 
ENDBRANCH  17  19
ENDBRANCH   9  15
BRANCH   1  24
ATOM     23  C   UNL     1      -0.051  10.633  21.517  0.00  0.00    +0.000 C 
ATOM     24  C   UNL     1       1.152  10.440  20.605  0.00  0.00    +0.000 C 
ENDBRANCH   1  24
TORSDOF 3
ENDMDL
MODEL 7
REMARK VINA RESULT:      -7.2      2.041      6.022
REMARK  Name = 
REMARK  4 active torsions:
REMARK  status: ('A' for Active; 'I' for Inactive)
REMARK    1  A    between atoms: C_1  and  C_2
REMARK    2  A    between atoms: C_2  and  C_3
REMARK    3  A    between atoms: C_11  and  C_12
REMARK    4  A    between atoms: N_14  and  C_15
REMARK                            x       y       z     vdW  Elec       q    Type
REMARK                         _______ _______ _______ _____ _____    ______ ____
ROOT
ATOM      1  C   UNL     1       6.439   4.662  15.677  0.00  0.00    +0.000 A 
ATOM      2  C   UNL     1       5.220   4.096  15.376  0.00  0.00    +0.000 A 
ATOM      3  N   UNL     1       4.257   3.846  16.292  0.00  0.00    +0.000 NA
ATOM      4  C   UNL     1       4.517   4.179  17.567  0.00  0.00    +0.000 A 
ATOM      5  N   UNL     1       3.517   3.982  18.528  0.00  0.00    +0.000 N 
ATOM      6  C   UNL     1       2.691   2.785  18.272  0.00  0.00    +0.000 C 
ATOM      7  C   UNL     1       1.748   2.498  19.469  0.00  0.00    +0.000 C 
ATOM      8  C   UNL     1       0.796   3.655  19.756  0.00  0.00    +0.000 C 
ATOM      9  C   UNL     1       1.591   4.548  20.713  0.00  0.00    +0.000 C 
ATOM     10  C   UNL     1       2.903   3.792  20.920  0.00  0.00    +0.000 C 
ATOM     11  C   UNL     1       4.023   4.125  19.914  0.00  0.00    +0.000 C 
ATOM     12  O   UNL     1       2.526   2.408  20.684  0.00  0.00    +0.000 OA
ATOM     13  N   UNL     1       5.674   4.741  17.948  0.00  0.00    +0.000 NA
ATOM     14  C   UNL     1       6.608   4.963  17.006  0.00  0.00    +0.000 A 
ENDROOT
BRANCH   9  15
ATOM     15  C   UNL     1       1.754   6.011  20.342  0.00  0.00    +0.000 C 
ATOM     16  O   UNL     1       2.124   6.328  19.213  0.00  0.00    +0.000 OA
ATOM     17  N   UNL     1       1.432   6.939  21.301  0.00  0.00    +0.000 N 
ATOM     18  H   UNL     1       0.827   6.625  22.060  0.00  0.00    +0.000 HD
BRANCH  17  19
ATOM     19  C   UNL     1       1.588   8.385  21.068  0.00  0.00    +0.000 C 
ATOM     20  C   UNL     1       0.341   9.093  20.487  0.00  0.00    +0.000 C 
ATOM     21  C   UNL     1       0.685  10.282  21.409  0.00  0.00    +0.000 C 
ATOM     22  C   UNL     1       1.396   9.264  22.326  0.00  0.00    +0.000 C 
ENDBRANCH  17  19
ENDBRANCH   9  15
BRANCH   1  24
ATOM     23  C   UNL     1       7.050   4.521  13.269  0.00  0.00    +0.000 C 
ATOM     24  C   UNL     1       7.470   4.998  14.652  0.00  0.00    +0.000 C 
ENDBRANCH   1  24
TORSDOF 3
ENDMDL
MODEL 8
REMARK VINA RESULT:      -7.1      2.006      5.657
REMARK  Name = 
REMARK  4 active torsions:
REMARK  status: ('A' for Active; 'I' for Inactive)
REMARK    1  A    between atoms: C_1  and  C_2
REMARK    2  A    between atoms: C_2  and  C_3
REMARK    3  A    between atoms: C_11  and  C_12
REMARK    4  A    between atoms: N_14  and  C_15
REMARK                            x       y       z     vdW  Elec       q    Type
REMARK                         _______ _______ _______ _____ _____    ______ ____
ROOT
ATOM      1  C   UNL     1       6.692   4.688  15.444  0.00  0.00    +0.000 A 
ATOM      2  C   UNL     1       5.412   4.430  15.005  0.00  0.00    +0.000 A 
ATOM      3  N   UNL     1       4.390   4.082  15.820  0.00  0.00    +0.000 NA
ATOM      4  C   UNL     1       4.653   3.992  17.135  0.00  0.00    +0.000 A 
ATOM      5  N   UNL     1       3.601   3.688  18.008  0.00  0.00    +0.000 N 
ATOM      6  C   UNL     1       2.611   2.760  17.427  0.00  0.00    +0.000 C 
ATOM      7  C   UNL     1       1.592   2.294  18.500  0.00  0.00    +0.000 C 
ATOM      8  C   UNL     1       0.820   3.455  19.118  0.00  0.00    +0.000 C 
ATOM      9  C   UNL     1       1.708   3.900  20.283  0.00  0.00    +0.000 C 
ATOM     10  C   UNL     1       2.880   2.920  20.250  0.00  0.00    +0.000 C 
ATOM     11  C   UNL     1       4.073   3.347  19.370  0.00  0.00    +0.000 C 
ATOM     12  O   UNL     1       2.303   1.739  19.629  0.00  0.00    +0.000 OA
ATOM     13  N   UNL     1       5.868   4.232  17.649  0.00  0.00    +0.000 NA
ATOM     14  C   UNL     1       6.858   4.565  16.802  0.00  0.00    +0.000 A 
ENDROOT
BRANCH   9  15
ATOM     15  C   UNL     1       2.107   5.363  20.348  0.00  0.00    +0.000 C 
ATOM     16  O   UNL     1       2.486   5.856  21.410  0.00  0.00    +0.000 OA
ATOM     17  N   UNL     1       2.061   6.078  19.177  0.00  0.00    +0.000 N 
ATOM     18  H   UNL     1       2.074   5.540  18.310  0.00  0.00    +0.000 HD
BRANCH  17  19
ATOM     19  C   UNL     1       2.388   7.514  19.129  0.00  0.00    +0.000 C 
ATOM     20  C   UNL     1       2.123   8.200  17.768  0.00  0.00    +0.000 C 
ATOM     21  C   UNL     1       1.632   9.423  18.572  0.00  0.00    +0.000 C 
ATOM     22  C   UNL     1       1.296   8.441  19.714  0.00  0.00    +0.000 C 
ENDBRANCH  17  19
ENDBRANCH   9  15
BRANCH   1  24
ATOM     23  C   UNL     1       7.427   4.962  13.082  0.00  0.00    +0.000 C 
ATOM     24  C   UNL     1       7.798   5.136  14.548  0.00  0.00    +0.000 C 
ENDBRANCH   1  24
TORSDOF 3
ENDMDL
MODEL 9
REMARK VINA RESULT:      -6.9      2.237      6.067
REMARK  Name = 
REMARK  4 active torsions:
REMARK  status: ('A' for Active; 'I' for Inactive)
REMARK    1  A    between atoms: C_1  and  C_2
REMARK    2  A    between atoms: C_2  and  C_3
REMARK    3  A    between atoms: C_11  and  C_12
REMARK    4  A    between atoms: N_14  and  C_15
REMARK                            x       y       z     vdW  Elec       q    Type
REMARK                         _______ _______ _______ _____ _____    ______ ____
ROOT
ATOM      1  C   UNL     1       6.929   4.777  14.643  0.00  0.00    +0.000 A 
ATOM      2  C   UNL     1       5.793   4.037  14.404  0.00  0.00    +0.000 A 
ATOM      3  N   UNL     1       4.886   3.716  15.355  0.00  0.00    +0.000 NA
ATOM      4  C   UNL     1       5.119   4.156  16.602  0.00  0.00    +0.000 A 
ATOM      5  N   UNL     1       4.170   3.885  17.595  0.00  0.00    +0.000 N 
ATOM      6  C   UNL     1       3.508   2.576  17.427  0.00  0.00    +0.000 C 
ATOM      7  C   UNL     1       2.630   2.238  18.661  0.00  0.00    +0.000 C 
ATOM      8  C   UNL     1       1.536   3.273  18.904  0.00  0.00    +0.000 C 
ATOM      9  C   UNL     1       2.220   4.318  19.789  0.00  0.00    +0.000 C 
ATOM     10  C   UNL     1       3.624   3.757  20.009  0.00  0.00    +0.000 C 
ATOM     11  C   UNL     1       4.673   4.175  18.959  0.00  0.00    +0.000 C 
ATOM     12  O   UNL     1       3.431   2.324  19.860  0.00  0.00    +0.000 OA
ATOM     13  N   UNL     1       6.196   4.888  16.923  0.00  0.00    +0.000 NA
ATOM     14  C   UNL     1       7.077   5.176  15.949  0.00  0.00    +0.000 A 
ENDROOT
BRANCH   9  15
ATOM     15  C   UNL     1       2.179   5.766  19.333  0.00  0.00    +0.000 C 
ATOM     16  O   UNL     1       2.177   6.038  18.134  0.00  0.00    +0.000 OA
ATOM     17  N   UNL     1       2.103   6.728  20.309  0.00  0.00    +0.000 N 
ATOM     18  H   UNL     1       1.770   6.428  21.226  0.00  0.00    +0.000 HD
BRANCH  17  19
ATOM     19  C   UNL     1       2.098   8.165  19.986  0.00  0.00    +0.000 C 
ATOM     20  C   UNL     1       1.443   8.529  18.632  0.00  0.00    +0.000 C 
ATOM     21  C   UNL     1       0.858   9.770  19.340  0.00  0.00    +0.000 C 
ATOM     22  C   UNL     1       0.960   8.970  20.656  0.00  0.00    +0.000 C 
ENDBRANCH  17  19
ENDBRANCH   9  15
BRANCH   1  24
ATOM     23  C   UNL     1       7.434   4.701  12.208  0.00  0.00    +0.000 C 
ATOM     24  C   UNL     1       7.890   5.185  13.577  0.00  0.00    +0.000 C 
ENDBRANCH   1  24
TORSDOF 3
ENDMDL
