MODEL 1
REMARK VINA RESULT:      -7.3      0.000      0.000
REMARK  Name = 
REMARK  3 active torsions:
REMARK  status: ('A' for Active; 'I' for Inactive)
REMARK    1  A    between atoms: C_5  and  N_6
REMARK    2  A    between atoms: N_18  and  C_19
REMARK    3  A    between atoms: C_19  and  C_20
REMARK                            x       y       z     vdW  Elec       q    Type
REMARK                         _______ _______ _______ _____ _____    ______ ____
ROOT
ATOM      1  O   UNL     1       0.288   9.115  21.936  0.00  0.00    +0.000 OA
ATOM      2  C   UNL     1       0.610   9.602  20.854  0.00  0.00    +0.000 A 
ATOM      3  C   UNL     1       1.322   8.745  19.877  0.00  0.00    +0.000 A 
ATOM      4  C   UNL     1       1.894   7.518  20.247  0.00  0.00    +0.000 A 
ATOM      5  C   UNL     1       2.708   6.803  19.347  0.00  0.00    +0.000 A 
ATOM      6  C   UNL     1       2.850   7.315  18.056  0.00  0.00    +0.000 A 
ATOM      7  C   UNL     1       2.236   8.497  17.668  0.00  0.00    +0.000 A 
ATOM      8  C   UNL     1       1.507   9.235  18.601  0.00  0.00    +0.000 A 
ATOM      9  N   UNL     1       1.084  10.515  18.277  0.00  0.00    +0.000 N 
ATOM     10  C   UNL     1       0.721  11.441  19.224  0.00  0.00    +0.000 A 
ATOM     11  S   UNL     1       0.787  13.040  18.725  0.00  0.00    +0.000 S 
ATOM     12  N   UNL     1       0.406  10.945  20.495  0.00  0.00    +0.000 N 
ATOM     13  H   UNL     1       1.296  10.890  17.364  0.00  0.00    +0.000 HD
ENDROOT
BRANCH   5  14
ATOM     14  N   UNL     1       3.380   5.670  19.767  0.00  0.00    +0.000 N 
ATOM     15  C   UNL     1       4.725   5.323  19.278  0.00  0.00    +0.000 C 
ATOM     16  C   UNL     1       4.681   4.048  18.428  0.00  0.00    +0.000 C 
ATOM     17  O   UNL     1       4.062   2.967  19.143  0.00  0.00    +0.000 OA
ATOM     18  C   UNL     1       2.708   3.312  19.484  0.00  0.00    +0.000 C 
ATOM     19  C   UNL     1       2.636   4.560  20.380  0.00  0.00    +0.000 C 
ENDBRANCH   5  14
BRANCH  12  20
ATOM     20  C   UNL     1      -0.048  11.838  21.587  0.00  0.00    +0.000 C 
BRANCH  20  21
ATOM     21  C   UNL     1      -1.570  11.941  21.822  0.00  0.00    +0.000 C 
ATOM     22  C   UNL     1      -2.214  13.290  21.564  0.00  0.00    +0.000 C 
ATOM     23  C   UNL     1      -3.414  13.311  22.481  0.00  0.00    +0.000 C 
ATOM     24  C   UNL     1      -3.145  12.237  23.513  0.00  0.00    +0.000 C 
ATOM     25  O   UNL     1      -1.934  11.566  23.155  0.00  0.00    +0.000 OA
ENDBRANCH  20  21
ENDBRANCH  12  20
TORSDOF 3
ENDMDL
MODEL 2
REMARK VINA RESULT:      -7.1      2.986      3.988
REMARK  Name = 
REMARK  3 active torsions:
REMARK  status: ('A' for Active; 'I' for Inactive)
REMARK    1  A    between atoms: C_5  and  N_6
REMARK    2  A    between atoms: N_18  and  C_19
REMARK    3  A    between atoms: C_19  and  C_20
REMARK                            x       y       z     vdW  Elec       q    Type
REMARK                         _______ _______ _______ _____ _____    ______ ____
ROOT
ATOM      1  O   UNL     1       2.057   9.881  17.480  0.00  0.00    +0.000 OA
ATOM      2  C   UNL     1       1.832   9.194  18.476  0.00  0.00    +0.000 A 
ATOM      3  C   UNL     1       2.553   7.909  18.627  0.00  0.00    +0.000 A 
ATOM      4  C   UNL     1       3.241   7.317  17.556  0.00  0.00    +0.000 A 
ATOM      5  C   UNL     1       3.774   6.018  17.675  0.00  0.00    +0.000 A 
ATOM      6  C   UNL     1       3.668   5.385  18.914  0.00  0.00    +0.000 A 
ATOM      7  C   UNL     1       3.042   5.993  19.993  0.00  0.00    +0.000 A 
ATOM      8  C   UNL     1       2.443   7.243  19.829  0.00  0.00    +0.000 A 
ATOM      9  N   UNL     1       1.632   7.747  20.834  0.00  0.00    +0.000 N 
ATOM     10  C   UNL     1       0.712   8.744  20.619  0.00  0.00    +0.000 A 
ATOM     11  S   UNL     1      -0.526   8.830  21.745  0.00  0.00    +0.000 S 
ATOM     12  N   UNL     1       0.885   9.515  19.463  0.00  0.00    +0.000 N 
ATOM     13  H   UNL     1       1.498   7.209  21.678  0.00  0.00    +0.000 HD
ENDROOT
BRANCH   5  14
ATOM     14  N   UNL     1       4.324   5.390  16.573  0.00  0.00    +0.000 N 
ATOM     15  C   UNL     1       4.363   3.924  16.437  0.00  0.00    +0.000 C 
ATOM     16  C   UNL     1       5.806   3.412  16.490  0.00  0.00    +0.000 C 
ATOM     17  O   UNL     1       6.629   4.074  15.516  0.00  0.00    +0.000 OA
ATOM     18  C   UNL     1       6.657   5.489  15.773  0.00  0.00    +0.000 C 
ATOM     19  C   UNL     1       5.257   6.119  15.700  0.00  0.00    +0.000 C 
ENDBRANCH   5  14
BRANCH  12  20
ATOM     20  C   UNL     1      -0.013  10.651  19.146  0.00  0.00    +0.000 C 
BRANCH  20  21
ATOM     21  C   UNL     1      -1.441  10.306  18.675  0.00  0.00    +0.000 C 
ATOM     22  C   UNL     1      -1.608   9.917  17.219  0.00  0.00    +0.000 C 
ATOM     23  C   UNL     1      -3.026  10.319  16.887  0.00  0.00    +0.000 C 
ATOM     24  C   UNL     1      -3.425  11.301  17.967  0.00  0.00    +0.000 C 
ATOM     25  O   UNL     1      -2.359  11.378  18.918  0.00  0.00    +0.000 OA
ENDBRANCH  20  21
ENDBRANCH  12  20
TORSDOF 3
ENDMDL
MODEL 3
REMARK VINA RESULT:      -7.1      1.237      1.435
REMARK  Name = 
REMARK  3 active torsions:
REMARK  status: ('A' for Active; 'I' for Inactive)
REMARK    1  A    between atoms: C_5  and  N_6
REMARK    2  A    between atoms: N_18  and  C_19
REMARK    3  A    between atoms: C_19  and  C_20
REMARK                            x       y       z     vdW  Elec       q    Type
REMARK                         _______ _______ _______ _____ _____    ______ ____
ROOT
ATOM      1  O   UNL     1       0.201   9.468  21.497  0.00  0.00    +0.000 OA
ATOM      2  C   UNL     1       0.783   9.821  20.473  0.00  0.00    +0.000 A 
ATOM      3  C   UNL     1       1.459   8.789  19.652  0.00  0.00    +0.000 A 
ATOM      4  C   UNL     1       1.710   7.499  20.145  0.00  0.00    +0.000 A 
ATOM      5  C   UNL     1       2.501   6.591  19.414  0.00  0.00    +0.000 A 
ATOM      6  C   UNL     1       2.947   6.991  18.153  0.00  0.00    +0.000 A 
ATOM      7  C   UNL     1       2.650   8.244  17.637  0.00  0.00    +0.000 A 
ATOM      8  C   UNL     1       1.939   9.160  18.414  0.00  0.00    +0.000 A 
ATOM      9  N   UNL     1       1.835  10.476  17.991  0.00  0.00    +0.000 N 
ATOM     10  C   UNL     1       1.515  11.508  18.839  0.00  0.00    +0.000 A 
ATOM     11  S   UNL     1       1.975  13.033  18.318  0.00  0.00    +0.000 S 
ATOM     12  N   UNL     1       0.908  11.155  20.051  0.00  0.00    +0.000 N 
ATOM     13  H   UNL     1       2.261  10.751  17.118  0.00  0.00    +0.000 HD
ENDROOT
BRANCH   5  14
ATOM     14  N   UNL     1       2.859   5.377  19.970  0.00  0.00    +0.000 N 
ATOM     15  C   UNL     1       3.766   4.435  19.292  0.00  0.00    +0.000 C 
ATOM     16  C   UNL     1       3.020   3.159  18.888  0.00  0.00    +0.000 C 
ATOM     17  O   UNL     1       2.356   2.566  20.016  0.00  0.00    +0.000 OA
ATOM     18  C   UNL     1       1.391   3.483  20.560  0.00  0.00    +0.000 C 
ATOM     19  C   UNL     1       2.042   4.790  21.042  0.00  0.00    +0.000 C 
ENDBRANCH   5  14
BRANCH  12  20
ATOM     20  C   UNL     1       0.470  12.180  21.028  0.00  0.00    +0.000 C 
BRANCH  20  21
ATOM     21  C   UNL     1      -0.916  12.818  20.800  0.00  0.00    +0.000 C 
ATOM     22  C   UNL     1      -1.891  12.774  21.961  0.00  0.00    +0.000 C 
ATOM     23  C   UNL     1      -3.252  12.786  21.305  0.00  0.00    +0.000 C 
ATOM     24  C   UNL     1      -3.005  12.372  19.870  0.00  0.00    +0.000 C 
ATOM     25  O   UNL     1      -1.594  12.241  19.678  0.00  0.00    +0.000 OA
ENDBRANCH  20  21
ENDBRANCH  12  20
TORSDOF 3
ENDMDL
MODEL 4
REMARK VINA RESULT:      -7.0      2.575      3.345
REMARK  Name = 
REMARK  3 active torsions:
REMARK  status: ('A' for Active; 'I' for Inactive)
REMARK    1  A    between atoms: C_5  and  N_6
REMARK    2  A    between atoms: N_18  and  C_19
REMARK    3  A    between atoms: C_19  and  C_20
REMARK                            x       y       z     vdW  Elec       q    Type
REMARK                         _______ _______ _______ _____ _____    ______ ____
ROOT
ATOM      1  O   UNL     1       1.970   9.799  17.437  0.00  0.00    +0.000 OA
ATOM      2  C   UNL     1       1.597   9.519  18.575  0.00  0.00    +0.000 A 
ATOM      3  C   UNL     1       1.903   8.171  19.108  0.00  0.00    +0.000 A 
ATOM      4  C   UNL     1       2.327   7.124  18.275  0.00  0.00    +0.000 A 
ATOM      5  C   UNL     1       2.449   5.812  18.773  0.00  0.00    +0.000 A 
ATOM      6  C   UNL     1       2.218   5.613  20.135  0.00  0.00    +0.000 A 
ATOM      7  C   UNL     1       1.857   6.657  20.975  0.00  0.00    +0.000 A 
ATOM      8  C   UNL     1       1.657   7.932  20.444  0.00  0.00    +0.000 A 
ATOM      9  N   UNL     1       1.085   8.918  21.235  0.00  0.00    +0.000 N 
ATOM     10  C   UNL     1       0.499  10.045  20.713  0.00  0.00    +0.000 A 
ATOM     11  S   UNL     1      -0.599  10.813  21.720  0.00  0.00    +0.000 S 
ATOM     12  N   UNL     1       0.840  10.373  19.394  0.00  0.00    +0.000 N 
ATOM     13  H   UNL     1       0.837   8.704  22.190  0.00  0.00    +0.000 HD
ENDROOT
BRANCH   5  14
ATOM     14  N   UNL     1       2.730   4.766  17.914  0.00  0.00    +0.000 N 
ATOM     15  C   UNL     1       1.721   3.762  17.536  0.00  0.00    +0.000 C 
ATOM     16  C   UNL     1       2.086   2.385  18.102  0.00  0.00    +0.000 C 
ATOM     17  O   UNL     1       3.415   2.000  17.714  0.00  0.00    +0.000 OA
ATOM     18  C   UNL     1       4.372   2.948  18.218  0.00  0.00    +0.000 C 
ATOM     19  C   UNL     1       4.124   4.365  17.675  0.00  0.00    +0.000 C 
ENDBRANCH   5  14
BRANCH  12  20
ATOM     20  C   UNL     1       0.313  11.591  18.736  0.00  0.00    +0.000 C 
BRANCH  20  21
ATOM     21  C   UNL     1      -1.048  11.468  18.020  0.00  0.00    +0.000 C 
ATOM     22  C   UNL     1      -2.245  12.097  18.708  0.00  0.00    +0.000 C 
ATOM     23  C   UNL     1      -3.421  11.278  18.230  0.00  0.00    +0.000 C 
ATOM     24  C   UNL     1      -2.822   9.992  17.702  0.00  0.00    +0.000 C 
ATOM     25  O   UNL     1      -1.398  10.104  17.763  0.00  0.00    +0.000 OA
ENDBRANCH  20  21
ENDBRANCH  12  20
TORSDOF 3
ENDMDL
MODEL 5
REMARK VINA RESULT:      -7.0      2.578      7.623
REMARK  Name = 
REMARK  3 active torsions:
REMARK  status: ('A' for Active; 'I' for Inactive)
REMARK    1  A    between atoms: C_5  and  N_6
REMARK    2  A    between atoms: N_18  and  C_19
REMARK    3  A    between atoms: C_19  and  C_20
REMARK                            x       y       z     vdW  Elec       q    Type
REMARK                         _______ _______ _______ _____ _____    ______ ____
ROOT
ATOM      1  O   UNL     1       3.241   5.253  20.587  0.00  0.00    +0.000 OA
ATOM      2  C   UNL     1       3.426   5.771  19.487  0.00  0.00    +0.000 A 
ATOM      3  C   UNL     1       2.823   7.097  19.219  0.00  0.00    +0.000 A 
ATOM      4  C   UNL     1       1.824   7.636  20.045  0.00  0.00    +0.000 A 
ATOM      5  C   UNL     1       1.148   8.816  19.679  0.00  0.00    +0.000 A 
ATOM      6  C   UNL     1       1.566   9.469  18.518  0.00  0.00    +0.000 A 
ATOM      7  C   UNL     1       2.595   8.971  17.732  0.00  0.00    +0.000 A 
ATOM      8  C   UNL     1       3.192   7.755  18.065  0.00  0.00    +0.000 A 
ATOM      9  N   UNL     1       4.058   7.152  17.165  0.00  0.00    +0.000 N 
ATOM     10  C   UNL     1       4.376   5.817  17.218  0.00  0.00    +0.000 A 
ATOM     11  S   UNL     1       4.949   5.160  15.787  0.00  0.00    +0.000 S 
ATOM     12  N   UNL     1       4.124   5.162  18.430  0.00  0.00    +0.000 N 
ATOM     13  H   UNL     1       4.257   7.610  16.287  0.00  0.00    +0.000 HD
ENDROOT
BRANCH   5  14
ATOM     14  N   UNL     1       0.071   9.261  20.425  0.00  0.00    +0.000 N 
ATOM     15  C   UNL     1      -0.491  10.613  20.272  0.00  0.00    +0.000 C 
ATOM     16  C   UNL     1      -0.253  11.445  21.537  0.00  0.00    +0.000 C 
ATOM     17  O   UNL     1      -0.753  10.772  22.704  0.00  0.00    +0.000 OA
ATOM     18  C   UNL     1      -0.079   9.514  22.876  0.00  0.00    +0.000 C 
ATOM     19  C   UNL     1      -0.289   8.576  21.675  0.00  0.00    +0.000 C 
ENDBRANCH   5  14
BRANCH  12  20
ATOM     20  C   UNL     1       4.470   3.735  18.628  0.00  0.00    +0.000 C 
BRANCH  20  21
ATOM     21  C   UNL     1       3.304   2.724  18.623  0.00  0.00    +0.000 C 
ATOM     22  C   UNL     1       2.041   3.137  17.891  0.00  0.00    +0.000 C 
ATOM     23  C   UNL     1       0.939   2.383  18.597  0.00  0.00    +0.000 C 
ATOM     24  C   UNL     1       1.528   1.971  19.929  0.00  0.00    +0.000 C 
ATOM     25  O   UNL     1       2.905   2.358  19.948  0.00  0.00    +0.000 OA
ENDBRANCH  20  21
ENDBRANCH  12  20
TORSDOF 3
ENDMDL
MODEL 6
REMARK VINA RESULT:      -7.0      3.313      8.318
REMARK  Name = 
REMARK  3 active torsions:
REMARK  status: ('A' for Active; 'I' for Inactive)
REMARK    1  A    between atoms: C_5  and  N_6
REMARK    2  A    between atoms: N_18  and  C_19
REMARK    3  A    between atoms: C_19  and  C_20
REMARK                            x       y       z     vdW  Elec       q    Type
REMARK                         _______ _______ _______ _____ _____    ______ ____
ROOT
ATOM      1  O   UNL     1       3.817   7.151  16.968  0.00  0.00    +0.000 OA
ATOM      2  C   UNL     1       3.511   6.166  17.639  0.00  0.00    +0.000 A 
ATOM      3  C   UNL     1       2.587   6.349  18.782  0.00  0.00    +0.000 A 
ATOM      4  C   UNL     1       2.290   7.619  19.299  0.00  0.00    +0.000 A 
ATOM      5  C   UNL     1       1.546   7.757  20.486  0.00  0.00    +0.000 A 
ATOM      6  C   UNL     1       1.045   6.595  21.075  0.00  0.00    +0.000 A 
ATOM      7  C   UNL     1       1.285   5.341  20.533  0.00  0.00    +0.000 A 
ATOM      8  C   UNL     1       2.098   5.220  19.406  0.00  0.00    +0.000 A 
ATOM      9  N   UNL     1       2.517   3.962  18.999  0.00  0.00    +0.000 N 
ATOM     10  C   UNL     1       3.599   3.767  18.176  0.00  0.00    +0.000 A 
ATOM     11  S   UNL     1       4.286   2.240  18.246  0.00  0.00    +0.000 S 
ATOM     12  N   UNL     1       4.030   4.876  17.437  0.00  0.00    +0.000 N 
ATOM     13  H   UNL     1       2.213   3.149  19.515  0.00  0.00    +0.000 HD
ENDROOT
BRANCH   5  14
ATOM     14  N   UNL     1       1.380   9.003  21.063  0.00  0.00    +0.000 N 
ATOM     15  C   UNL     1       1.253   9.190  22.518  0.00  0.00    +0.000 C 
ATOM     16  C   UNL     1      -0.151   9.685  22.881  0.00  0.00    +0.000 C 
ATOM     17  O   UNL     1      -0.491  10.870  22.144  0.00  0.00    +0.000 OA
ATOM     18  C   UNL     1      -0.475  10.597  20.732  0.00  0.00    +0.000 C 
ATOM     19  C   UNL     1       0.908  10.133  20.248  0.00  0.00    +0.000 C 
ENDBRANCH   5  14
BRANCH  12  20
ATOM     20  C   UNL     1       5.155   4.780  16.477  0.00  0.00    +0.000 C 
BRANCH  20  21
ATOM     21  C   UNL     1       6.533   5.276  16.961  0.00  0.00    +0.000 C 
ATOM     22  C   UNL     1       6.806   5.197  18.451  0.00  0.00    +0.000 C 
ATOM     23  C   UNL     1       7.800   6.306  18.707  0.00  0.00    +0.000 C 
ATOM     24  C   UNL     1       7.689   7.224  17.508  0.00  0.00    +0.000 C 
ATOM     25  O   UNL     1       6.782   6.632  16.574  0.00  0.00    +0.000 OA
ENDBRANCH  20  21
ENDBRANCH  12  20
TORSDOF 3
ENDMDL
MODEL 7
REMARK VINA RESULT:      -6.9      2.920      3.863
REMARK  Name = 
REMARK  3 active torsions:
REMARK  status: ('A' for Active; 'I' for Inactive)
REMARK    1  A    between atoms: C_5  and  N_6
REMARK    2  A    between atoms: N_18  and  C_19
REMARK    3  A    between atoms: C_19  and  C_20
REMARK                            x       y       z     vdW  Elec       q    Type
REMARK                         _______ _______ _______ _____ _____    ______ ____
ROOT
ATOM      1  O   UNL     1       2.199   9.643  17.432  0.00  0.00    +0.000 OA
ATOM      2  C   UNL     1       1.784   9.406  18.565  0.00  0.00    +0.000 A 
ATOM      3  C   UNL     1       1.952   8.039  19.108  0.00  0.00    +0.000 A 
ATOM      4  C   UNL     1       2.289   6.952  18.286  0.00  0.00    +0.000 A 
ATOM      5  C   UNL     1       2.278   5.637  18.791  0.00  0.00    +0.000 A 
ATOM      6  C   UNL     1       2.007   5.468  20.150  0.00  0.00    +0.000 A 
ATOM      7  C   UNL     1       1.733   6.546  20.980  0.00  0.00    +0.000 A 
ATOM      8  C   UNL     1       1.663   7.831  20.440  0.00  0.00    +0.000 A 
ATOM      9  N   UNL     1       1.175   8.870  21.218  0.00  0.00    +0.000 N 
ATOM     10  C   UNL     1       0.706  10.045  20.682  0.00  0.00    +0.000 A 
ATOM     11  S   UNL     1      -0.330  10.919  21.668  0.00  0.00    +0.000 S 
ATOM     12  N   UNL     1       1.097  10.332  19.368  0.00  0.00    +0.000 N 
ATOM     13  H   UNL     1       0.892   8.686  22.170  0.00  0.00    +0.000 HD
ENDROOT
BRANCH   5  14
ATOM     14  N   UNL     1       2.472   4.564  17.941  0.00  0.00    +0.000 N 
ATOM     15  C   UNL     1       1.581   3.391  17.934  0.00  0.00    +0.000 C 
ATOM     16  C   UNL     1       2.321   2.144  18.432  0.00  0.00    +0.000 C 
ATOM     17  O   UNL     1       3.527   1.922  17.683  0.00  0.00    +0.000 OA
ATOM     18  C   UNL     1       4.414   3.045  17.829  0.00  0.00    +0.000 C 
ATOM     19  C   UNL     1       3.785   4.350  17.315  0.00  0.00    +0.000 C 
ENDBRANCH   5  14
BRANCH  12  20
ATOM     20  C   UNL     1       0.699  11.592  18.697  0.00  0.00    +0.000 C 
BRANCH  20  21
ATOM     21  C   UNL     1       1.514  12.856  19.039  0.00  0.00    +0.000 C 
ATOM     22  C   UNL     1       0.778  14.182  18.987  0.00  0.00    +0.000 C 
ATOM     23  C   UNL     1       1.854  15.192  18.663  0.00  0.00    +0.000 C 
ATOM     24  C   UNL     1       3.003  14.383  18.101  0.00  0.00    +0.000 C 
ATOM     25  O   UNL     1       2.665  12.997  18.198  0.00  0.00    +0.000 OA
ENDBRANCH  20  21
ENDBRANCH  12  20
TORSDOF 3
ENDMDL
MODEL 8
REMARK VINA RESULT:      -6.9      3.193      8.375
REMARK  Name = 
REMARK  3 active torsions:
REMARK  status: ('A' for Active; 'I' for Inactive)
REMARK    1  A    between atoms: C_5  and  N_6
REMARK    2  A    between atoms: N_18  and  C_19
REMARK    3  A    between atoms: C_19  and  C_20
REMARK                            x       y       z     vdW  Elec       q    Type
REMARK                         _______ _______ _______ _____ _____    ______ ____
ROOT
ATOM      1  O   UNL     1       3.806   6.775  16.839  0.00  0.00    +0.000 OA
ATOM      2  C   UNL     1       3.564   6.072  17.819  0.00  0.00    +0.000 A 
ATOM      3  C   UNL     1       2.639   6.592  18.852  0.00  0.00    +0.000 A 
ATOM      4  C   UNL     1       2.272   7.945  18.903  0.00  0.00    +0.000 A 
ATOM      5  C   UNL     1       1.529   8.449  19.988  0.00  0.00    +0.000 A 
ATOM      6  C   UNL     1       1.102   7.541  20.959  0.00  0.00    +0.000 A 
ATOM      7  C   UNL     1       1.412   6.191  20.880  0.00  0.00    +0.000 A 
ATOM      8  C   UNL     1       2.223   5.728  19.843  0.00  0.00    +0.000 A 
ATOM      9  N   UNL     1       2.712   4.430  19.888  0.00  0.00    +0.000 N 
ATOM     10  C   UNL     1       3.798   4.019  19.154  0.00  0.00    +0.000 A 
ATOM     11  S   UNL     1       4.575   2.650  19.732  0.00  0.00    +0.000 S 
ATOM     12  N   UNL     1       4.157   4.821  18.064  0.00  0.00    +0.000 N 
ATOM     13  H   UNL     1       2.462   3.834  20.662  0.00  0.00    +0.000 HD
ENDROOT
BRANCH   5  14
ATOM     14  N   UNL     1       1.294   9.807  20.100  0.00  0.00    +0.000 N 
ATOM     15  C   UNL     1       0.803  10.425  21.343  0.00  0.00    +0.000 C 
ATOM     16  C   UNL     1      -0.615  10.974  21.153  0.00  0.00    +0.000 C 
ATOM     17  O   UNL     1      -0.679  11.871  20.033  0.00  0.00    +0.000 OA
ATOM     18  C   UNL     1      -0.311  11.182  18.825  0.00  0.00    +0.000 C 
ATOM     19  C   UNL     1       1.120  10.624  18.890  0.00  0.00    +0.000 C 
ENDBRANCH   5  14
BRANCH  12  20
ATOM     20  C   UNL     1       5.278   4.456  17.167  0.00  0.00    +0.000 C 
BRANCH  20  21
ATOM     21  C   UNL     1       6.637   5.137  17.431  0.00  0.00    +0.000 C 
ATOM     22  C   UNL     1       6.941   5.529  18.865  0.00  0.00    +0.000 C 
ATOM     23  C   UNL     1       7.880   6.706  18.738  0.00  0.00    +0.000 C 
ATOM     24  C   UNL     1       7.699   7.208  17.321  0.00  0.00    +0.000 C 
ATOM     25  O   UNL     1       6.808   6.319  16.642  0.00  0.00    +0.000 OA
ENDBRANCH  20  21
ENDBRANCH  12  20
TORSDOF 3
ENDMDL
MODEL 9
REMARK VINA RESULT:      -6.7      4.259      7.696
REMARK  Name = 
REMARK  3 active torsions:
REMARK  status: ('A' for Active; 'I' for Inactive)
REMARK    1  A    between atoms: C_5  and  N_6
REMARK    2  A    between atoms: N_18  and  C_19
REMARK    3  A    between atoms: C_19  and  C_20
REMARK                            x       y       z     vdW  Elec       q    Type
REMARK                         _______ _______ _______ _____ _____    ______ ____
ROOT
ATOM      1  O   UNL     1      -1.399  12.766  19.813  0.00  0.00    +0.000 OA
ATOM      2  C   UNL     1      -1.132  11.820  19.074  0.00  0.00    +0.000 A 
ATOM      3  C   UNL     1      -2.173  11.339  18.136  0.00  0.00    +0.000 A 
ATOM      4  C   UNL     1      -3.518  11.718  18.265  0.00  0.00    +0.000 A 
ATOM      5  C   UNL     1      -4.514  11.119  17.470  0.00  0.00    +0.000 A 
ATOM      6  C   UNL     1      -4.104  10.206  16.497  0.00  0.00    +0.000 A 
ATOM      7  C   UNL     1      -2.768   9.874  16.325  0.00  0.00    +0.000 A 
ATOM      8  C   UNL     1      -1.807  10.413  17.182  0.00  0.00    +0.000 A 
ATOM      9  N   UNL     1      -0.513   9.915  17.154  0.00  0.00    +0.000 N 
ATOM     10  C   UNL     1       0.374  10.088  18.188  0.00  0.00    +0.000 A 
ATOM     11  S   UNL     1       1.636   8.987  18.242  0.00  0.00    +0.000 S 
ATOM     12  N   UNL     1       0.081  11.112  19.098  0.00  0.00    +0.000 N 
ATOM     13  H   UNL     1      -0.280   9.179  16.503  0.00  0.00    +0.000 HD
ENDROOT
BRANCH   5  14
ATOM     14  N   UNL     1      -5.849  11.395  17.702  0.00  0.00    +0.000 N 
ATOM     15  C   UNL     1      -6.452  12.702  17.391  0.00  0.00    +0.000 C 
ATOM     16  C   UNL     1      -6.871  13.426  18.675  0.00  0.00    +0.000 C 
ATOM     17  O   UNL     1      -7.731  12.604  19.478  0.00  0.00    +0.000 OA
ATOM     18  C   UNL     1      -7.048  11.398  19.860  0.00  0.00    +0.000 C 
ATOM     19  C   UNL     1      -6.618  10.565  18.641  0.00  0.00    +0.000 C 
ENDBRANCH   5  14
BRANCH  12  20
ATOM     20  C   UNL     1       0.987  11.431  20.227  0.00  0.00    +0.000 C 
BRANCH  20  21
ATOM     21  C   UNL     1       0.728  10.700  21.561  0.00  0.00    +0.000 C 
ATOM     22  C   UNL     1       0.180   9.288  21.474  0.00  0.00    +0.000 C 
ATOM     23  C   UNL     1      -0.596   9.111  22.758  0.00  0.00    +0.000 C 
ATOM     24  C   UNL     1      -0.844  10.513  23.270  0.00  0.00    +0.000 C 
ATOM     25  O   UNL     1      -0.166  11.431  22.408  0.00  0.00    +0.000 OA
ENDBRANCH  20  21
ENDBRANCH  12  20
TORSDOF 3
ENDMDL
