MODEL 1
REMARK VINA RESULT:      -5.6      0.000      0.000
REMARK  Name = 
REMARK  12 active torsions:
REMARK  status: ('A' for Active; 'I' for Inactive)
REMARK    1  A    between atoms: C_1  and  C_2
REMARK    2  A    between atoms: C_2  and  O_3
REMARK    3  A    between atoms: O_3  and  C_4
REMARK    4  A    between atoms: C_4  and  C_6
REMARK    5  A    between atoms: C_7  and  S_8
REMARK    6  A    between atoms: S_8  and  C_9
REMARK    7  A    between atoms: N_11  and  C_12
REMARK    8  A    between atoms: C_13  and  N_14
REMARK    9  A    between atoms: N_14  and  C_15
REMARK   10  A    between atoms: C_15  and  C_16
REMARK   11  A    between atoms: C_16  and  C_17
REMARK   12  A    between atoms: C_17  and  N_18
REMARK                            x       y       z     vdW  Elec       q    Type
REMARK                         _______ _______ _______ _____ _____    ______ ____
ROOT
ATOM      1  C   UNL     1       3.904   5.149  19.271  0.00  0.00    +0.000 A 
ATOM      2  C   UNL     1       2.727   5.251  20.055  0.00  0.00    +0.000 A 
ATOM      3  N   UNL     1       2.059   6.377  19.822  0.00  0.00    +0.000 NA
ATOM      4  N   UNL     1       2.779   6.999  18.874  0.00  0.00    +0.000 N 
ATOM      5  C   UNL     1       2.255   8.244  18.369  0.00  0.00    +0.000 C 
ATOM      6  C   UNL     1       3.907   6.302  18.483  0.00  0.00    +0.000 A 
ENDROOT
BRANCH   1   7
ATOM      7  C   UNL     1       4.892   4.089  19.285  0.00  0.00    +0.000 C 
ATOM      8  O   UNL     1       6.089   4.266  19.476  0.00  0.00    +0.000 OA
BRANCH   7   9
ATOM      9  O   UNL     1       4.342   2.856  19.042  0.00  0.00    +0.000 OA
BRANCH   9  11
ATOM     10  C   UNL     1       2.527   2.220  17.587  0.00  0.00    +0.000 C 
ATOM     11  C   UNL     1       3.995   2.590  17.675  0.00  0.00    +0.000 C 
ENDBRANCH   9  11
ENDBRANCH   7   9
ENDBRANCH   1   7
BRANCH   2  12
ATOM     12  S   UNL     1       2.155   4.119  21.265  0.00  0.00    +0.000 S 
ATOM     13  C   UNL     1       0.804   3.287  20.395  0.00  0.00    +0.000 C 
ENDBRANCH   2  12
BRANCH   6  14
ATOM     14  N   UNL     1       4.759   6.672  17.475  0.00  0.00    +0.000 N 
ATOM     15  H   UNL     1       4.833   7.668  17.256  0.00  0.00    +0.000 HD
BRANCH  14  16
ATOM     16  C   UNL     1       5.177   5.792  16.391  0.00  0.00    +0.000 C 
BRANCH  16  17
ATOM     17  C   UNL     1       6.702   5.687  16.291  0.00  0.00    +0.000 C 
BRANCH  17  18
ATOM     18  C   UNL     1       7.364   6.529  17.389  0.00  0.00    +0.000 C 
BRANCH  18  19
ATOM     19  N   UNL     1       7.382   7.940  16.974  0.00  0.00    +0.000 NA
ATOM     20  C   UNL     1       7.983   8.657  17.688  0.00  0.00    +0.000 C 
ATOM     21  S   UNL     1       8.798   9.624  18.651  0.00  0.00    +0.000 S 
ENDBRANCH  18  19
ENDBRANCH  17  18
ENDBRANCH  16  17
ENDBRANCH  14  16
ENDBRANCH   6  14
TORSDOF 9
ENDMDL
MODEL 2
REMARK VINA RESULT:      -5.6      2.949      6.019
REMARK  Name = 
REMARK  12 active torsions:
REMARK  status: ('A' for Active; 'I' for Inactive)
REMARK    1  A    between atoms: C_1  and  C_2
REMARK    2  A    between atoms: C_2  and  O_3
REMARK    3  A    between atoms: O_3  and  C_4
REMARK    4  A    between atoms: C_4  and  C_6
REMARK    5  A    between atoms: C_7  and  S_8
REMARK    6  A    between atoms: S_8  and  C_9
REMARK    7  A    between atoms: N_11  and  C_12
REMARK    8  A    between atoms: C_13  and  N_14
REMARK    9  A    between atoms: N_14  and  C_15
REMARK   10  A    between atoms: C_15  and  C_16
REMARK   11  A    between atoms: C_16  and  C_17
REMARK   12  A    between atoms: C_17  and  N_18
REMARK                            x       y       z     vdW  Elec       q    Type
REMARK                         _______ _______ _______ _____ _____    ______ ____
ROOT
ATOM      1  C   UNL     1       6.052   4.417  17.461  0.00  0.00    +0.000 A 
ATOM      2  C   UNL     1       5.737   4.444  16.079  0.00  0.00    +0.000 A 
ATOM      3  N   UNL     1       4.512   3.990  15.829  0.00  0.00    +0.000 NA
ATOM      4  N   UNL     1       4.016   3.692  17.041  0.00  0.00    +0.000 N 
ATOM      5  C   UNL     1       2.653   3.224  17.091  0.00  0.00    +0.000 C 
ATOM      6  C   UNL     1       4.894   3.939  18.080  0.00  0.00    +0.000 A 
ENDROOT
BRANCH   1   7
ATOM      7  C   UNL     1       7.298   4.795  18.096  0.00  0.00    +0.000 C 
ATOM      8  O   UNL     1       8.330   4.139  18.031  0.00  0.00    +0.000 OA
BRANCH   7   9
ATOM      9  O   UNL     1       7.194   5.970  18.797  0.00  0.00    +0.000 OA
BRANCH   9  11
ATOM     10  C   UNL     1       7.364   7.973  17.466  0.00  0.00    +0.000 C 
ATOM     11  C   UNL     1       8.089   7.016  18.391  0.00  0.00    +0.000 C 
ENDBRANCH   9  11
ENDBRANCH   7   9
ENDBRANCH   1   7
BRANCH   2  12
ATOM     12  S   UNL     1       6.782   4.934  14.760  0.00  0.00    +0.000 S 
ATOM     13  C   UNL     1       6.302   3.783  13.449  0.00  0.00    +0.000 C 
ENDBRANCH   2  12
BRANCH   6  14
ATOM     14  N   UNL     1       4.605   3.805  19.412  0.00  0.00    +0.000 N 
ATOM     15  H   UNL     1       4.916   4.547  20.044  0.00  0.00    +0.000 HD
BRANCH  14  16
ATOM     16  C   UNL     1       4.354   2.529  20.072  0.00  0.00    +0.000 C 
BRANCH  16  17
ATOM     17  C   UNL     1       3.173   2.608  21.044  0.00  0.00    +0.000 C 
BRANCH  17  18
ATOM     18  C   UNL     1       1.850   2.440  20.286  0.00  0.00    +0.000 C 
BRANCH  18  19
ATOM     19  N   UNL     1       0.920   3.505  20.692  0.00  0.00    +0.000 NA
ATOM     20  C   UNL     1       1.337   4.599  20.570  0.00  0.00    +0.000 C 
ATOM     21  S   UNL     1       1.901   6.075  20.401  0.00  0.00    +0.000 S 
ENDBRANCH  18  19
ENDBRANCH  17  18
ENDBRANCH  16  17
ENDBRANCH  14  16
ENDBRANCH   6  14
TORSDOF 9
ENDMDL
MODEL 3
REMARK VINA RESULT:      -5.5      2.256      5.812
REMARK  Name = 
REMARK  12 active torsions:
REMARK  status: ('A' for Active; 'I' for Inactive)
REMARK    1  A    between atoms: C_1  and  C_2
REMARK    2  A    between atoms: C_2  and  O_3
REMARK    3  A    between atoms: O_3  and  C_4
REMARK    4  A    between atoms: C_4  and  C_6
REMARK    5  A    between atoms: C_7  and  S_8
REMARK    6  A    between atoms: S_8  and  C_9
REMARK    7  A    between atoms: N_11  and  C_12
REMARK    8  A    between atoms: C_13  and  N_14
REMARK    9  A    between atoms: N_14  and  C_15
REMARK   10  A    between atoms: C_15  and  C_16
REMARK   11  A    between atoms: C_16  and  C_17
REMARK   12  A    between atoms: C_17  and  N_18
REMARK                            x       y       z     vdW  Elec       q    Type
REMARK                         _______ _______ _______ _____ _____    ______ ____
ROOT
ATOM      1  C   UNL     1       5.427   5.441  17.435  0.00  0.00    +0.000 A 
ATOM      2  C   UNL     1       6.425   6.206  16.781  0.00  0.00    +0.000 A 
ATOM      3  N   UNL     1       6.808   5.661  15.629  0.00  0.00    +0.000 NA
ATOM      4  N   UNL     1       6.048   4.559  15.517  0.00  0.00    +0.000 N 
ATOM      5  C   UNL     1       6.203   3.781  14.313  0.00  0.00    +0.000 C 
ATOM      6  C   UNL     1       5.177   4.372  16.573  0.00  0.00    +0.000 A 
ENDROOT
BRANCH   1   7
ATOM      7  C   UNL     1       4.805   5.704  18.718  0.00  0.00    +0.000 C 
ATOM      8  O   UNL     1       5.232   5.289  19.787  0.00  0.00    +0.000 OA
BRANCH   7   9
ATOM      9  O   UNL     1       3.666   6.461  18.603  0.00  0.00    +0.000 OA
BRANCH   9  11
ATOM     10  C   UNL     1       2.085   7.438  20.139  0.00  0.00    +0.000 C 
ATOM     11  C   UNL     1       2.621   6.154  19.537  0.00  0.00    +0.000 C 
ENDBRANCH   9  11
ENDBRANCH   7   9
ENDBRANCH   1   7
BRANCH   2  12
ATOM     12  S   UNL     1       7.186   7.677  17.356  0.00  0.00    +0.000 S 
ATOM     13  C   UNL     1       8.216   7.064  18.712  0.00  0.00    +0.000 C 
ENDBRANCH   2  12
BRANCH   6  14
ATOM     14  N   UNL     1       4.236   3.379  16.660  0.00  0.00    +0.000 N 
ATOM     15  H   UNL     1       4.413   2.510  16.152  0.00  0.00    +0.000 HD
BRANCH  14  16
ATOM     16  C   UNL     1       2.832   3.607  16.976  0.00  0.00    +0.000 C 
BRANCH  16  17
ATOM     17  C   UNL     1       2.250   2.488  17.847  0.00  0.00    +0.000 C 
BRANCH  17  18
ATOM     18  C   UNL     1       3.381   1.664  18.476  0.00  0.00    +0.000 C 
BRANCH  18  19
ATOM     19  N   UNL     1       3.814   2.308  19.725  0.00  0.00    +0.000 NA
ATOM     20  C   UNL     1       2.943   2.589  20.464  0.00  0.00    +0.000 C 
ATOM     21  S   UNL     1       1.764   2.963  21.464  0.00  0.00    +0.000 S 
ENDBRANCH  18  19
ENDBRANCH  17  18
ENDBRANCH  16  17
ENDBRANCH  14  16
ENDBRANCH   6  14
TORSDOF 9
ENDMDL
MODEL 4
REMARK VINA RESULT:      -5.5      2.834      5.766
REMARK  Name = 
REMARK  12 active torsions:
REMARK  status: ('A' for Active; 'I' for Inactive)
REMARK    1  A    between atoms: C_1  and  C_2
REMARK    2  A    between atoms: C_2  and  O_3
REMARK    3  A    between atoms: O_3  and  C_4
REMARK    4  A    between atoms: C_4  and  C_6
REMARK    5  A    between atoms: C_7  and  S_8
REMARK    6  A    between atoms: S_8  and  C_9
REMARK    7  A    between atoms: N_11  and  C_12
REMARK    8  A    between atoms: C_13  and  N_14
REMARK    9  A    between atoms: N_14  and  C_15
REMARK   10  A    between atoms: C_15  and  C_16
REMARK   11  A    between atoms: C_16  and  C_17
REMARK   12  A    between atoms: C_17  and  N_18
REMARK                            x       y       z     vdW  Elec       q    Type
REMARK                         _______ _______ _______ _____ _____    ______ ____
ROOT
ATOM      1  C   UNL     1       6.106   4.426  17.369  0.00  0.00    +0.000 A 
ATOM      2  C   UNL     1       5.816   4.360  15.984  0.00  0.00    +0.000 A 
ATOM      3  N   UNL     1       4.567   3.969  15.745  0.00  0.00    +0.000 NA
ATOM      4  N   UNL     1       4.034   3.804  16.967  0.00  0.00    +0.000 N 
ATOM      5  C   UNL     1       2.641   3.433  17.026  0.00  0.00    +0.000 C 
ATOM      6  C   UNL     1       4.910   4.078  18.000  0.00  0.00    +0.000 A 
ENDROOT
BRANCH   1   7
ATOM      7  C   UNL     1       7.366   4.773  17.998  0.00  0.00    +0.000 C 
ATOM      8  O   UNL     1       8.419   4.181  17.799  0.00  0.00    +0.000 OA
BRANCH   7   9
ATOM      9  O   UNL     1       7.247   5.834  18.859  0.00  0.00    +0.000 OA
BRANCH   9  11
ATOM     10  C   UNL     1       7.618   7.782  17.488  0.00  0.00    +0.000 C 
ATOM     11  C   UNL     1       8.146   6.927  18.624  0.00  0.00    +0.000 C 
ENDBRANCH   9  11
ENDBRANCH   7   9
ENDBRANCH   1   7
BRANCH   2  12
ATOM     12  S   UNL     1       6.912   4.670  14.651  0.00  0.00    +0.000 S 
ATOM     13  C   UNL     1       6.137   3.747  13.301  0.00  0.00    +0.000 C 
ENDBRANCH   2  12
BRANCH   6  14
ATOM     14  N   UNL     1       4.592   4.073  19.333  0.00  0.00    +0.000 N 
ATOM     15  H   UNL     1       4.575   3.172  19.815  0.00  0.00    +0.000 HD
BRANCH  14  16
ATOM     16  C   UNL     1       3.816   5.115  19.994  0.00  0.00    +0.000 C 
BRANCH  16  17
ATOM     17  C   UNL     1       2.558   4.556  20.667  0.00  0.00    +0.000 C 
BRANCH  17  18
ATOM     18  C   UNL     1       1.422   5.584  20.603  0.00  0.00    +0.000 C 
BRANCH  18  19
ATOM     19  N   UNL     1       1.988   6.917  20.341  0.00  0.00    +0.000 NA
ATOM     20  C   UNL     1       1.413   7.807  20.853  0.00  0.00    +0.000 C 
ATOM     21  S   UNL     1       0.637   9.008  21.549  0.00  0.00    +0.000 S 
ENDBRANCH  18  19
ENDBRANCH  17  18
ENDBRANCH  16  17
ENDBRANCH  14  16
ENDBRANCH   6  14
TORSDOF 9
ENDMDL
MODEL 5
REMARK VINA RESULT:      -5.5      2.397      2.835
REMARK  Name = 
REMARK  12 active torsions:
REMARK  status: ('A' for Active; 'I' for Inactive)
REMARK    1  A    between atoms: C_1  and  C_2
REMARK    2  A    between atoms: C_2  and  O_3
REMARK    3  A    between atoms: O_3  and  C_4
REMARK    4  A    between atoms: C_4  and  C_6
REMARK    5  A    between atoms: C_7  and  S_8
REMARK    6  A    between atoms: S_8  and  C_9
REMARK    7  A    between atoms: N_11  and  C_12
REMARK    8  A    between atoms: C_13  and  N_14
REMARK    9  A    between atoms: N_14  and  C_15
REMARK   10  A    between atoms: C_15  and  C_16
REMARK   11  A    between atoms: C_16  and  C_17
REMARK   12  A    between atoms: C_17  and  N_18
REMARK                            x       y       z     vdW  Elec       q    Type
REMARK                         _______ _______ _______ _____ _____    ______ ____
ROOT
ATOM      1  C   UNL     1       3.893   5.191  18.916  0.00  0.00    +0.000 A 
ATOM      2  C   UNL     1       2.800   5.499  19.765  0.00  0.00    +0.000 A 
ATOM      3  N   UNL     1       2.263   6.685  19.492  0.00  0.00    +0.000 NA
ATOM      4  N   UNL     1       2.982   7.142  18.453  0.00  0.00    +0.000 N 
ATOM      5  C   UNL     1       2.583   8.407  17.890  0.00  0.00    +0.000 C 
ATOM      6  C   UNL     1       3.981   6.278  18.043  0.00  0.00    +0.000 A 
ENDROOT
BRANCH   1   7
ATOM      7  C   UNL     1       4.737   4.014  18.946  0.00  0.00    +0.000 C 
ATOM      8  O   UNL     1       5.609   3.814  19.783  0.00  0.00    +0.000 OA
BRANCH   7   9
ATOM      9  O   UNL     1       4.466   3.147  17.918  0.00  0.00    +0.000 OA
BRANCH   9  11
ATOM     10  C   UNL     1       2.318   2.078  17.674  0.00  0.00    +0.000 C 
ATOM     11  C   UNL     1       3.708   1.982  18.274  0.00  0.00    +0.000 C 
ENDBRANCH   9  11
ENDBRANCH   7   9
ENDBRANCH   1   7
BRANCH   2  12
ATOM     12  S   UNL     1       2.182   4.536  21.094  0.00  0.00    +0.000 S 
ATOM     13  C   UNL     1       0.742   3.738  20.344  0.00  0.00    +0.000 C 
ENDBRANCH   2  12
BRANCH   6  14
ATOM     14  N   UNL     1       4.795   6.465  16.957  0.00  0.00    +0.000 N 
ATOM     15  H   UNL     1       4.480   6.095  16.057  0.00  0.00    +0.000 HD
BRANCH  14  16
ATOM     16  C   UNL     1       6.233   6.684  17.039  0.00  0.00    +0.000 C 
BRANCH  16  17
ATOM     17  C   UNL     1       6.979   6.050  15.860  0.00  0.00    +0.000 C 
BRANCH  17  18
ATOM     18  C   UNL     1       6.701   4.543  15.805  0.00  0.00    +0.000 C 
BRANCH  18  19
ATOM     19  N   UNL     1       5.586   4.290  14.879  0.00  0.00    +0.000 NA
ATOM     20  C   UNL     1       5.908   3.944  13.801  0.00  0.00    +0.000 C 
ATOM     21  S   UNL     1       6.345   3.472  12.347  0.00  0.00    +0.000 S 
ENDBRANCH  18  19
ENDBRANCH  17  18
ENDBRANCH  16  17
ENDBRANCH  14  16
ENDBRANCH   6  14
TORSDOF 9
ENDMDL
MODEL 6
REMARK VINA RESULT:      -5.4      3.266      4.305
REMARK  Name = 
REMARK  12 active torsions:
REMARK  status: ('A' for Active; 'I' for Inactive)
REMARK    1  A    between atoms: C_1  and  C_2
REMARK    2  A    between atoms: C_2  and  O_3
REMARK    3  A    between atoms: O_3  and  C_4
REMARK    4  A    between atoms: C_4  and  C_6
REMARK    5  A    between atoms: C_7  and  S_8
REMARK    6  A    between atoms: S_8  and  C_9
REMARK    7  A    between atoms: N_11  and  C_12
REMARK    8  A    between atoms: C_13  and  N_14
REMARK    9  A    between atoms: N_14  and  C_15
REMARK   10  A    between atoms: C_15  and  C_16
REMARK   11  A    between atoms: C_16  and  C_17
REMARK   12  A    between atoms: C_17  and  N_18
REMARK                            x       y       z     vdW  Elec       q    Type
REMARK                         _______ _______ _______ _____ _____    ______ ____
ROOT
ATOM      1  C   UNL     1       4.061   4.412  18.124  0.00  0.00    +0.000 A 
ATOM      2  C   UNL     1       4.793   3.714  19.118  0.00  0.00    +0.000 A 
ATOM      3  N   UNL     1       6.025   4.191  19.269  0.00  0.00    +0.000 NA
ATOM      4  N   UNL     1       6.094   5.211  18.397  0.00  0.00    +0.000 N 
ATOM      5  C   UNL     1       7.319   5.972  18.379  0.00  0.00    +0.000 C 
ATOM      6  C   UNL     1       4.931   5.410  17.677  0.00  0.00    +0.000 A 
ENDROOT
BRANCH   1   7
ATOM      7  C   UNL     1       2.712   4.149  17.665  0.00  0.00    +0.000 C 
ATOM      8  O   UNL     1       2.436   3.398  16.738  0.00  0.00    +0.000 OA
BRANCH   7   9
ATOM      9  O   UNL     1       1.771   4.849  18.374  0.00  0.00    +0.000 OA
BRANCH   9  11
ATOM     10  C   UNL     1       1.508   4.922  20.770  0.00  0.00    +0.000 C 
ATOM     11  C   UNL     1       1.200   4.160  19.496  0.00  0.00    +0.000 C 
ENDBRANCH   9  11
ENDBRANCH   7   9
ENDBRANCH   1   7
BRANCH   2  12
ATOM     12  S   UNL     1       4.261   2.332  20.055  0.00  0.00    +0.000 S 
ATOM     13  C   UNL     1       3.886   1.121  18.763  0.00  0.00    +0.000 C 
ENDBRANCH   2  12
BRANCH   6  14
ATOM     14  N   UNL     1       4.710   6.432  16.793  0.00  0.00    +0.000 N 
ATOM     15  H   UNL     1       3.901   7.037  16.956  0.00  0.00    +0.000 HD
BRANCH  14  16
ATOM     16  C   UNL     1       5.193   6.445  15.418  0.00  0.00    +0.000 C 
BRANCH  16  17
ATOM     17  C   UNL     1       5.419   5.031  14.875  0.00  0.00    +0.000 C 
BRANCH  17  18
ATOM     18  C   UNL     1       6.915   4.784  14.644  0.00  0.00    +0.000 C 
BRANCH  18  19
ATOM     19  N   UNL     1       7.173   4.684  13.199  0.00  0.00    +0.000 NA
ATOM     20  C   UNL     1       6.529   3.874  12.638  0.00  0.00    +0.000 C 
ATOM     21  S   UNL     1       5.655   2.784  11.880  0.00  0.00    +0.000 S 
ENDBRANCH  18  19
ENDBRANCH  17  18
ENDBRANCH  16  17
ENDBRANCH  14  16
ENDBRANCH   6  14
TORSDOF 9
ENDMDL
MODEL 7
REMARK VINA RESULT:      -5.4      2.884      6.292
REMARK  Name = 
REMARK  12 active torsions:
REMARK  status: ('A' for Active; 'I' for Inactive)
REMARK    1  A    between atoms: C_1  and  C_2
REMARK    2  A    between atoms: C_2  and  O_3
REMARK    3  A    between atoms: O_3  and  C_4
REMARK    4  A    between atoms: C_4  and  C_6
REMARK    5  A    between atoms: C_7  and  S_8
REMARK    6  A    between atoms: S_8  and  C_9
REMARK    7  A    between atoms: N_11  and  C_12
REMARK    8  A    between atoms: C_13  and  N_14
REMARK    9  A    between atoms: N_14  and  C_15
REMARK   10  A    between atoms: C_15  and  C_16
REMARK   11  A    between atoms: C_16  and  C_17
REMARK   12  A    between atoms: C_17  and  N_18
REMARK                            x       y       z     vdW  Elec       q    Type
REMARK                         _______ _______ _______ _____ _____    ______ ____
ROOT
ATOM      1  C   UNL     1       6.199   4.557  17.195  0.00  0.00    +0.000 A 
ATOM      2  C   UNL     1       5.917   4.418  15.813  0.00  0.00    +0.000 A 
ATOM      3  N   UNL     1       4.656   4.061  15.585  0.00  0.00    +0.000 NA
ATOM      4  N   UNL     1       4.106   3.991  16.809  0.00  0.00    +0.000 N 
ATOM      5  C   UNL     1       2.700   3.678  16.876  0.00  0.00    +0.000 C 
ATOM      6  C   UNL     1       4.985   4.293  17.833  0.00  0.00    +0.000 A 
ENDROOT
BRANCH   1   7
ATOM      7  C   UNL     1       7.465   4.892  17.814  0.00  0.00    +0.000 C 
ATOM      8  O   UNL     1       8.439   4.149  17.835  0.00  0.00    +0.000 OA
BRANCH   7   9
ATOM      9  O   UNL     1       7.453   6.135  18.395  0.00  0.00    +0.000 OA
BRANCH   9  11
ATOM     10  C   UNL     1       8.156   8.403  17.977  0.00  0.00    +0.000 C 
ATOM     11  C   UNL     1       7.314   7.240  17.490  0.00  0.00    +0.000 C 
ENDBRANCH   9  11
ENDBRANCH   7   9
ENDBRANCH   1   7
BRANCH   2  12
ATOM     12  S   UNL     1       7.035   4.605  14.476  0.00  0.00    +0.000 S 
ATOM     13  C   UNL     1       6.189   3.713  13.148  0.00  0.00    +0.000 C 
ENDBRANCH   2  12
BRANCH   6  14
ATOM     14  N   UNL     1       4.656   4.381  19.161  0.00  0.00    +0.000 N 
ATOM     15  H   UNL     1       4.637   3.516  19.705  0.00  0.00    +0.000 HD
BRANCH  14  16
ATOM     16  C   UNL     1       3.873   5.465  19.740  0.00  0.00    +0.000 C 
BRANCH  16  17
ATOM     17  C   UNL     1       2.484   4.997  20.186  0.00  0.00    +0.000 C 
BRANCH  17  18
ATOM     18  C   UNL     1       2.593   4.161  21.468  0.00  0.00    +0.000 C 
BRANCH  18  19
ATOM     19  N   UNL     1       1.502   3.174  21.497  0.00  0.00    +0.000 NA
ATOM     20  C   UNL     1       1.162   2.782  20.441  0.00  0.00    +0.000 C 
ATOM     21  S   UNL     1       0.708   2.249  19.014  0.00  0.00    +0.000 S 
ENDBRANCH  18  19
ENDBRANCH  17  18
ENDBRANCH  16  17
ENDBRANCH  14  16
ENDBRANCH   6  14
TORSDOF 9
ENDMDL
MODEL 8
REMARK VINA RESULT:      -5.3      2.903      4.948
REMARK  Name = 
REMARK  12 active torsions:
REMARK  status: ('A' for Active; 'I' for Inactive)
REMARK    1  A    between atoms: C_1  and  C_2
REMARK    2  A    between atoms: C_2  and  O_3
REMARK    3  A    between atoms: O_3  and  C_4
REMARK    4  A    between atoms: C_4  and  C_6
REMARK    5  A    between atoms: C_7  and  S_8
REMARK    6  A    between atoms: S_8  and  C_9
REMARK    7  A    between atoms: N_11  and  C_12
REMARK    8  A    between atoms: C_13  and  N_14
REMARK    9  A    between atoms: N_14  and  C_15
REMARK   10  A    between atoms: C_15  and  C_16
REMARK   11  A    between atoms: C_16  and  C_17
REMARK   12  A    between atoms: C_17  and  N_18
REMARK                            x       y       z     vdW  Elec       q    Type
REMARK                         _______ _______ _______ _____ _____    ______ ____
ROOT
ATOM      1  C   UNL     1       3.660   4.598  18.369  0.00  0.00    +0.000 A 
ATOM      2  C   UNL     1       4.649   3.795  18.990  0.00  0.00    +0.000 A 
ATOM      3  N   UNL     1       5.877   4.272  18.809  0.00  0.00    +0.000 NA
ATOM      4  N   UNL     1       5.694   5.394  18.094  0.00  0.00    +0.000 N 
ATOM      5  C   UNL     1       6.870   6.173  17.792  0.00  0.00    +0.000 C 
ATOM      6  C   UNL     1       4.369   5.660  17.803  0.00  0.00    +0.000 A 
ENDROOT
BRANCH   1   7
ATOM      7  C   UNL     1       2.230   4.370  18.322  0.00  0.00    +0.000 C 
ATOM      8  O   UNL     1       1.626   3.992  17.327  0.00  0.00    +0.000 OA
BRANCH   7   9
ATOM      9  O   UNL     1       1.616   4.642  19.519  0.00  0.00    +0.000 OA
BRANCH   9  11
ATOM     10  C   UNL     1       1.361   3.085  21.343  0.00  0.00    +0.000 C 
ATOM     11  C   UNL     1       0.781   3.597  20.039  0.00  0.00    +0.000 C 
ENDBRANCH   9  11
ENDBRANCH   7   9
ENDBRANCH   1   7
BRANCH   2  12
ATOM     12  S   UNL     1       4.404   2.296  19.866  0.00  0.00    +0.000 S 
ATOM     13  C   UNL     1       3.718   1.218  18.584  0.00  0.00    +0.000 C 
ENDBRANCH   2  12
BRANCH   6  14
ATOM     14  N   UNL     1       3.907   6.782  17.167  0.00  0.00    +0.000 N 
ATOM     15  H   UNL     1       4.190   6.929  16.195  0.00  0.00    +0.000 HD
BRANCH  14  16
ATOM     16  C   UNL     1       3.482   7.996  17.852  0.00  0.00    +0.000 C 
BRANCH  16  17
ATOM     17  C   UNL     1       1.959   8.166  17.829  0.00  0.00    +0.000 C 
BRANCH  17  18
ATOM     18  C   UNL     1       1.581   9.600  18.219  0.00  0.00    +0.000 C 
BRANCH  18  19
ATOM     19  N   UNL     1       0.139   9.797  18.001  0.00  0.00    +0.000 NA
ATOM     20  C   UNL     1      -0.390  10.491  18.791  0.00  0.00    +0.000 C 
ATOM     21  S   UNL     1      -1.101  11.433  19.856  0.00  0.00    +0.000 S 
ENDBRANCH  18  19
ENDBRANCH  17  18
ENDBRANCH  16  17
ENDBRANCH  14  16
ENDBRANCH   6  14
TORSDOF 9
ENDMDL
MODEL 9
REMARK VINA RESULT:      -5.3      2.288      3.599
REMARK  Name = 
REMARK  12 active torsions:
REMARK  status: ('A' for Active; 'I' for Inactive)
REMARK    1  A    between atoms: C_1  and  C_2
REMARK    2  A    between atoms: C_2  and  O_3
REMARK    3  A    between atoms: O_3  and  C_4
REMARK    4  A    between atoms: C_4  and  C_6
REMARK    5  A    between atoms: C_7  and  S_8
REMARK    6  A    between atoms: S_8  and  C_9
REMARK    7  A    between atoms: N_11  and  C_12
REMARK    8  A    between atoms: C_13  and  N_14
REMARK    9  A    between atoms: N_14  and  C_15
REMARK   10  A    between atoms: C_15  and  C_16
REMARK   11  A    between atoms: C_16  and  C_17
REMARK   12  A    between atoms: C_17  and  N_18
REMARK                            x       y       z     vdW  Elec       q    Type
REMARK                         _______ _______ _______ _____ _____    ______ ____
ROOT
ATOM      1  C   UNL     1       2.870   5.986  18.547  0.00  0.00    +0.000 A 
ATOM      2  C   UNL     1       2.497   4.772  19.178  0.00  0.00    +0.000 A 
ATOM      3  N   UNL     1       3.068   3.711  18.614  0.00  0.00    +0.000 NA
ATOM      4  N   UNL     1       3.830   4.227  17.635  0.00  0.00    +0.000 N 
ATOM      5  C   UNL     1       4.631   3.300  16.875  0.00  0.00    +0.000 C 
ATOM      6  C   UNL     1       3.768   5.606  17.548  0.00  0.00    +0.000 A 
ENDROOT
BRANCH   1   7
ATOM      7  C   UNL     1       2.419   7.326  18.863  0.00  0.00    +0.000 C 
ATOM      8  O   UNL     1       2.209   7.731  19.999  0.00  0.00    +0.000 OA
BRANCH   7   9
ATOM      9  O   UNL     1       2.235   8.096  17.742  0.00  0.00    +0.000 OA
BRANCH   9  11
ATOM     10  C   UNL     1       0.465   9.713  18.001  0.00  0.00    +0.000 C 
ATOM     11  C   UNL     1       1.964   9.484  17.981  0.00  0.00    +0.000 C 
ENDBRANCH   9  11
ENDBRANCH   7   9
ENDBRANCH   1   7
BRANCH   2  12
ATOM     12  S   UNL     1       1.375   4.567  20.508  0.00  0.00    +0.000 S 
ATOM     13  C   UNL     1       1.472   2.786  20.814  0.00  0.00    +0.000 C 
ENDBRANCH   2  12
BRANCH   6  14
ATOM     14  N   UNL     1       4.513   6.381  16.698  0.00  0.00    +0.000 N 
ATOM     15  H   UNL     1       4.505   6.142  15.704  0.00  0.00    +0.000 HD
BRANCH  14  16
ATOM     16  C   UNL     1       5.668   7.170  17.110  0.00  0.00    +0.000 C 
BRANCH  16  17
ATOM     17  C   UNL     1       6.839   6.287  17.552  0.00  0.00    +0.000 C 
BRANCH  17  18
ATOM     18  C   UNL     1       7.928   7.142  18.211  0.00  0.00    +0.000 C 
BRANCH  18  19
ATOM     19  N   UNL     1       7.878   8.504  17.656  0.00  0.00    +0.000 NA
ATOM     20  C   UNL     1       8.474   9.311  18.272  0.00  0.00    +0.000 C 
ATOM     21  S   UNL     1       9.283  10.398  19.102  0.00  0.00    +0.000 S 
ENDBRANCH  18  19
ENDBRANCH  17  18
ENDBRANCH  16  17
ENDBRANCH  14  16
ENDBRANCH   6  14
TORSDOF 9
ENDMDL
