MODEL 1
REMARK VINA RESULT:      -6.6      0.000      0.000
REMARK  Name = 
REMARK  5 active torsions:
REMARK  status: ('A' for Active; 'I' for Inactive)
REMARK    1  A    between atoms: C_1  and  O_2
REMARK    2  A    between atoms: O_2  and  C_3
REMARK    3  A    between atoms: C_3  and  C_5
REMARK    4  A    between atoms: C_8  and  N_9
REMARK    5  A    between atoms: C_10  and  C_12
REMARK                            x       y       z     vdW  Elec       q    Type
REMARK                         _______ _______ _______ _____ _____    ______ ____
ROOT
ATOM      1  C   UNL     1       5.850   4.931  15.446  0.00  0.00    +0.000 A 
ATOM      2  C   UNL     1       5.390   3.706  15.935  0.00  0.00    +0.000 A 
ATOM      3  C   UNL     1       4.452   3.661  16.972  0.00  0.00    +0.000 A 
ATOM      4  C   UNL     1       3.957   4.835  17.542  0.00  0.00    +0.000 A 
ATOM      5  C   UNL     1       4.413   6.063  17.047  0.00  0.00    +0.000 A 
ATOM      6  C   UNL     1       5.356   6.114  16.007  0.00  0.00    +0.000 A 
ENDROOT
BRANCH   4   7
ATOM      7  N   UNL     1       3.025   4.855  18.604  0.00  0.00    +0.000 N 
ATOM      8  C   UNL     1       1.829   4.144  18.687  0.00  0.00    +0.000 C 
ATOM      9  O   UNL     1       1.376   3.407  17.812  0.00  0.00    +0.000 OA
ATOM     10  H   UNL     1       3.261   5.436  19.402  0.00  0.00    +0.000 HD
BRANCH   8  11
ATOM     11  C   UNL     1       1.064   4.319  19.996  0.00  0.00    +0.000 C 
ATOM     12 CL   UNL     1       1.237   2.854  20.986  0.00  0.00    +0.000 Cl
ATOM     13 CL   UNL     1       1.680   5.738  20.866  0.00  0.00    +0.000 Cl
ENDBRANCH   8  11
ENDBRANCH   4   7
BRANCH   1  14
ATOM     14  C   UNL     1       6.846   4.907  14.340  0.00  0.00    +0.000 C 
ATOM     15  O   UNL     1       7.853   5.596  14.325  0.00  0.00    +0.000 OA
BRANCH  14  17
ATOM     16  C   UNL     1       7.166   4.201  12.140  0.00  0.00    +0.000 C 
ATOM     17  O   UNL     1       6.472   4.027  13.377  0.00  0.00    +0.000 OA
ENDBRANCH  14  17
ENDBRANCH   1  14
TORSDOF 4
ENDMDL
MODEL 2
REMARK VINA RESULT:      -6.6      0.180      1.215
REMARK  Name = 
REMARK  5 active torsions:
REMARK  status: ('A' for Active; 'I' for Inactive)
REMARK    1  A    between atoms: C_1  and  O_2
REMARK    2  A    between atoms: O_2  and  C_3
REMARK    3  A    between atoms: C_3  and  C_5
REMARK    4  A    between atoms: C_8  and  N_9
REMARK    5  A    between atoms: C_10  and  C_12
REMARK                            x       y       z     vdW  Elec       q    Type
REMARK                         _______ _______ _______ _____ _____    ______ ____
ROOT
ATOM      1  C   UNL     1       5.789   4.734  15.447  0.00  0.00    +0.000 A 
ATOM      2  C   UNL     1       5.326   5.957  15.937  0.00  0.00    +0.000 A 
ATOM      3  C   UNL     1       4.416   6.000  16.998  0.00  0.00    +0.000 A 
ATOM      4  C   UNL     1       3.949   4.826  17.590  0.00  0.00    +0.000 A 
ATOM      5  C   UNL     1       4.418   3.599  17.103  0.00  0.00    +0.000 A 
ATOM      6  C   UNL     1       5.330   3.550  16.037  0.00  0.00    +0.000 A 
ENDROOT
BRANCH   4   7
ATOM      7  N   UNL     1       3.015   4.803  18.650  0.00  0.00    +0.000 N 
ATOM      8  C   UNL     1       1.766   4.186  18.657  0.00  0.00    +0.000 C 
ATOM      9  O   UNL     1       1.260   3.589  17.707  0.00  0.00    +0.000 OA
ATOM     10  H   UNL     1       3.292   5.272  19.506  0.00  0.00    +0.000 HD
BRANCH   8  11
ATOM     11  C   UNL     1       1.009   4.277  19.980  0.00  0.00    +0.000 C 
ATOM     12 CL   UNL     1       1.178   2.747  20.868  0.00  0.00    +0.000 Cl
ATOM     13 CL   UNL     1       1.639   5.630  20.940  0.00  0.00    +0.000 Cl
ENDBRANCH   8  11
ENDBRANCH   4   7
BRANCH   1  14
ATOM     14  C   UNL     1       6.759   4.760  14.317  0.00  0.00    +0.000 C 
ATOM     15  O   UNL     1       7.642   5.594  14.207  0.00  0.00    +0.000 OA
BRANCH  14  17
ATOM     16  C   UNL     1       6.979   3.995  12.125  0.00  0.00    +0.000 C 
ATOM     17  O   UNL     1       6.514   3.743  13.453  0.00  0.00    +0.000 OA
ENDBRANCH  14  17
ENDBRANCH   1  14
TORSDOF 4
ENDMDL
MODEL 3
REMARK VINA RESULT:      -6.4      1.090      1.497
REMARK  Name = 
REMARK  5 active torsions:
REMARK  status: ('A' for Active; 'I' for Inactive)
REMARK    1  A    between atoms: C_1  and  O_2
REMARK    2  A    between atoms: O_2  and  C_3
REMARK    3  A    between atoms: C_3  and  C_5
REMARK    4  A    between atoms: C_8  and  N_9
REMARK    5  A    between atoms: C_10  and  C_12
REMARK                            x       y       z     vdW  Elec       q    Type
REMARK                         _______ _______ _______ _____ _____    ______ ____
ROOT
ATOM      1  C   UNL     1       5.865   4.872  15.414  0.00  0.00    +0.000 A 
ATOM      2  C   UNL     1       5.369   3.661  15.902  0.00  0.00    +0.000 A 
ATOM      3  C   UNL     1       4.519   3.635  17.012  0.00  0.00    +0.000 A 
ATOM      4  C   UNL     1       4.150   4.815  17.660  0.00  0.00    +0.000 A 
ATOM      5  C   UNL     1       4.642   6.030  17.167  0.00  0.00    +0.000 A 
ATOM      6  C   UNL     1       5.497   6.062  16.053  0.00  0.00    +0.000 A 
ENDROOT
BRANCH   4   7
ATOM      7  N   UNL     1       3.313   4.853  18.797  0.00  0.00    +0.000 N 
ATOM      8  C   UNL     1       3.322   3.972  19.878  0.00  0.00    +0.000 C 
ATOM      9  O   UNL     1       4.048   2.985  19.986  0.00  0.00    +0.000 OA
ATOM     10  H   UNL     1       2.645   5.616  18.842  0.00  0.00    +0.000 HD
BRANCH   8  11
ATOM     11  C   UNL     1       2.339   4.313  20.995  0.00  0.00    +0.000 C 
ATOM     12 CL   UNL     1       1.534   5.853  20.629  0.00  0.00    +0.000 Cl
ATOM     13 CL   UNL     1       1.148   3.009  21.165  0.00  0.00    +0.000 Cl
ENDBRANCH   8  11
ENDBRANCH   4   7
BRANCH   1  14
ATOM     14  C   UNL     1       6.762   4.828  14.226  0.00  0.00    +0.000 C 
ATOM     15  O   UNL     1       7.749   5.534  14.102  0.00  0.00    +0.000 OA
BRANCH  14  17
ATOM     16  C   UNL     1       7.022   3.946  12.083  0.00  0.00    +0.000 C 
ATOM     17  O   UNL     1       6.324   3.909  13.330  0.00  0.00    +0.000 OA
ENDBRANCH  14  17
ENDBRANCH   1  14
TORSDOF 4
ENDMDL
MODEL 4
REMARK VINA RESULT:      -6.3      1.185      1.888
REMARK  Name = 
REMARK  5 active torsions:
REMARK  status: ('A' for Active; 'I' for Inactive)
REMARK    1  A    between atoms: C_1  and  O_2
REMARK    2  A    between atoms: O_2  and  C_3
REMARK    3  A    between atoms: C_3  and  C_5
REMARK    4  A    between atoms: C_8  and  N_9
REMARK    5  A    between atoms: C_10  and  C_12
REMARK                            x       y       z     vdW  Elec       q    Type
REMARK                         _______ _______ _______ _____ _____    ______ ____
ROOT
ATOM      1  C   UNL     1       6.000   4.794  15.525  0.00  0.00    +0.000 A 
ATOM      2  C   UNL     1       6.243   5.740  16.523  0.00  0.00    +0.000 A 
ATOM      3  C   UNL     1       5.432   5.798  17.662  0.00  0.00    +0.000 A 
ATOM      4  C   UNL     1       4.363   4.915  17.825  0.00  0.00    +0.000 A 
ATOM      5  C   UNL     1       4.124   3.962  16.828  0.00  0.00    +0.000 A 
ATOM      6  C   UNL     1       4.934   3.901  15.682  0.00  0.00    +0.000 A 
ENDROOT
BRANCH   4   7
ATOM      7  N   UNL     1       3.497   4.936  18.941  0.00  0.00    +0.000 N 
ATOM      8  C   UNL     1       3.363   3.955  19.921  0.00  0.00    +0.000 C 
ATOM      9  O   UNL     1       3.964   2.880  19.940  0.00  0.00    +0.000 OA
ATOM     10  H   UNL     1       2.922   5.766  19.052  0.00  0.00    +0.000 HD
BRANCH   8  11
ATOM     11  C   UNL     1       2.390   4.295  21.047  0.00  0.00    +0.000 C 
ATOM     12 CL   UNL     1       1.570   5.828  20.680  0.00  0.00    +0.000 Cl
ATOM     13 CL   UNL     1       1.208   2.984  21.235  0.00  0.00    +0.000 Cl
ENDBRANCH   8  11
ENDBRANCH   4   7
BRANCH   1  14
ATOM     14  C   UNL     1       6.903   4.786  14.341  0.00  0.00    +0.000 C 
ATOM     15  O   UNL     1       7.815   5.582  14.184  0.00  0.00    +0.000 OA
BRANCH  14  17
ATOM     16  C   UNL     1       6.944   4.038  12.132  0.00  0.00    +0.000 C 
ATOM     17  O   UNL     1       6.565   3.787  13.487  0.00  0.00    +0.000 OA
ENDBRANCH  14  17
ENDBRANCH   1  14
TORSDOF 4
ENDMDL
MODEL 5
REMARK VINA RESULT:      -6.2      2.869      3.513
REMARK  Name = 
REMARK  5 active torsions:
REMARK  status: ('A' for Active; 'I' for Inactive)
REMARK    1  A    between atoms: C_1  and  O_2
REMARK    2  A    between atoms: O_2  and  C_3
REMARK    3  A    between atoms: C_3  and  C_5
REMARK    4  A    between atoms: C_8  and  N_9
REMARK    5  A    between atoms: C_10  and  C_12
REMARK                            x       y       z     vdW  Elec       q    Type
REMARK                         _______ _______ _______ _____ _____    ______ ____
ROOT
ATOM      1  C   UNL     1       6.121   6.500  17.738  0.00  0.00    +0.000 A 
ATOM      2  C   UNL     1       4.848   6.670  17.188  0.00  0.00    +0.000 A 
ATOM      3  C   UNL     1       3.765   5.918  17.654  0.00  0.00    +0.000 A 
ATOM      4  C   UNL     1       3.930   4.980  18.674  0.00  0.00    +0.000 A 
ATOM      5  C   UNL     1       5.204   4.813  19.230  0.00  0.00    +0.000 A 
ATOM      6  C   UNL     1       6.296   5.565  18.765  0.00  0.00    +0.000 A 
ENDROOT
BRANCH   4   7
ATOM      7  N   UNL     1       2.881   4.176  19.172  0.00  0.00    +0.000 N 
ATOM      8  C   UNL     1       1.924   4.534  20.121  0.00  0.00    +0.000 C 
ATOM      9  O   UNL     1       1.874   5.614  20.709  0.00  0.00    +0.000 OA
ATOM     10  H   UNL     1       2.803   3.241  18.784  0.00  0.00    +0.000 HD
BRANCH   8  11
ATOM     11  C   UNL     1       0.870   3.468  20.409  0.00  0.00    +0.000 C 
ATOM     12 CL   UNL     1       0.636   2.459  18.965  0.00  0.00    +0.000 Cl
ATOM     13 CL   UNL     1       1.380   2.476  21.789  0.00  0.00    +0.000 Cl
ENDBRANCH   8  11
ENDBRANCH   4   7
BRANCH   1  14
ATOM     14  C   UNL     1       7.228   7.335  17.197  0.00  0.00    +0.000 C 
ATOM     15  O   UNL     1       8.055   6.923  16.399  0.00  0.00    +0.000 OA
BRANCH  14  17
ATOM     16  C   UNL     1       8.443   9.064  18.186  0.00  0.00    +0.000 C 
ATOM     17  O   UNL     1       7.180   8.588  17.715  0.00  0.00    +0.000 OA
ENDBRANCH  14  17
ENDBRANCH   1  14
TORSDOF 4
ENDMDL
MODEL 6
REMARK VINA RESULT:      -6.1      4.011      6.837
REMARK  Name = 
REMARK  5 active torsions:
REMARK  status: ('A' for Active; 'I' for Inactive)
REMARK    1  A    between atoms: C_1  and  O_2
REMARK    2  A    between atoms: O_2  and  C_3
REMARK    3  A    between atoms: C_3  and  C_5
REMARK    4  A    between atoms: C_8  and  N_9
REMARK    5  A    between atoms: C_10  and  C_12
REMARK                            x       y       z     vdW  Elec       q    Type
REMARK                         _______ _______ _______ _____ _____    ______ ____
ROOT
ATOM      1  C   UNL     1       3.241   4.370  19.297  0.00  0.00    +0.000 A 
ATOM      2  C   UNL     1       4.603   4.678  19.306  0.00  0.00    +0.000 A 
ATOM      3  C   UNL     1       5.383   4.496  18.159  0.00  0.00    +0.000 A 
ATOM      4  C   UNL     1       4.819   4.001  16.982  0.00  0.00    +0.000 A 
ATOM      5  C   UNL     1       3.452   3.698  16.970  0.00  0.00    +0.000 A 
ATOM      6  C   UNL     1       2.665   3.877  18.120  0.00  0.00    +0.000 A 
ENDROOT
BRANCH   4   7
ATOM      7  N   UNL     1       5.557   3.776  15.798  0.00  0.00    +0.000 N 
ATOM      8  C   UNL     1       6.069   4.738  14.931  0.00  0.00    +0.000 C 
ATOM      9  O   UNL     1       5.919   5.954  15.046  0.00  0.00    +0.000 OA
ATOM     10  H   UNL     1       5.750   2.807  15.563  0.00  0.00    +0.000 HD
BRANCH   8  11
ATOM     11  C   UNL     1       6.886   4.187  13.765  0.00  0.00    +0.000 C 
ATOM     12 CL   UNL     1       5.795   3.455  12.568  0.00  0.00    +0.000 Cl
ATOM     13 CL   UNL     1       7.839   5.490  13.029  0.00  0.00    +0.000 Cl
ENDBRANCH   8  11
ENDBRANCH   4   7
BRANCH   1  14
ATOM     14  C   UNL     1       2.470   4.590  20.552  0.00  0.00    +0.000 C 
ATOM     15  O   UNL     1       1.842   5.610  20.786  0.00  0.00    +0.000 OA
BRANCH  14  17
ATOM     16  C   UNL     1       1.360   2.768  21.494  0.00  0.00    +0.000 C 
ATOM     17  O   UNL     1       2.573   3.515  21.372  0.00  0.00    +0.000 OA
ENDBRANCH  14  17
ENDBRANCH   1  14
TORSDOF 4
ENDMDL
MODEL 7
REMARK VINA RESULT:      -6.1      1.515      2.150
REMARK  Name = 
REMARK  5 active torsions:
REMARK  status: ('A' for Active; 'I' for Inactive)
REMARK    1  A    between atoms: C_1  and  O_2
REMARK    2  A    between atoms: O_2  and  C_3
REMARK    3  A    between atoms: C_3  and  C_5
REMARK    4  A    between atoms: C_8  and  N_9
REMARK    5  A    between atoms: C_10  and  C_12
REMARK                            x       y       z     vdW  Elec       q    Type
REMARK                         _______ _______ _______ _____ _____    ______ ____
ROOT
ATOM      1  C   UNL     1       6.076   4.903  15.498  0.00  0.00    +0.000 A 
ATOM      2  C   UNL     1       6.340   5.963  16.367  0.00  0.00    +0.000 A 
ATOM      3  C   UNL     1       5.614   6.109  17.554  0.00  0.00    +0.000 A 
ATOM      4  C   UNL     1       4.609   5.203  17.894  0.00  0.00    +0.000 A 
ATOM      5  C   UNL     1       4.348   4.135  17.026  0.00  0.00    +0.000 A 
ATOM      6  C   UNL     1       5.074   3.985  15.833  0.00  0.00    +0.000 A 
ENDROOT
BRANCH   4   7
ATOM      7  N   UNL     1       3.827   5.307  19.067  0.00  0.00    +0.000 N 
ATOM      8  C   UNL     1       2.824   6.239  19.328  0.00  0.00    +0.000 C 
ATOM      9  O   UNL     1       2.489   7.155  18.578  0.00  0.00    +0.000 OA
ATOM     10  H   UNL     1       4.003   4.617  19.790  0.00  0.00    +0.000 HD
BRANCH   8  11
ATOM     11  C   UNL     1       2.106   6.056  20.663  0.00  0.00    +0.000 C 
ATOM     12 CL   UNL     1       1.157   7.512  21.032  0.00  0.00    +0.000 Cl
ATOM     13 CL   UNL     1       1.057   4.627  20.590  0.00  0.00    +0.000 Cl
ENDBRANCH   8  11
ENDBRANCH   4   7
BRANCH   1  14
ATOM     14  C   UNL     1       6.889   4.805  14.254  0.00  0.00    +0.000 C 
ATOM     15  O   UNL     1       7.841   5.529  14.013  0.00  0.00    +0.000 OA
BRANCH  14  17
ATOM     16  C   UNL     1       6.969   3.839  12.133  0.00  0.00    +0.000 C 
ATOM     17  O   UNL     1       6.420   3.816  13.452  0.00  0.00    +0.000 OA
ENDBRANCH  14  17
ENDBRANCH   1  14
TORSDOF 4
ENDMDL
MODEL 8
REMARK VINA RESULT:      -6.1      2.861      3.427
REMARK  Name = 
REMARK  5 active torsions:
REMARK  status: ('A' for Active; 'I' for Inactive)
REMARK    1  A    between atoms: C_1  and  O_2
REMARK    2  A    between atoms: O_2  and  C_3
REMARK    3  A    between atoms: C_3  and  C_5
REMARK    4  A    between atoms: C_8  and  N_9
REMARK    5  A    between atoms: C_10  and  C_12
REMARK                            x       y       z     vdW  Elec       q    Type
REMARK                         _______ _______ _______ _____ _____    ______ ____
ROOT
ATOM      1  C   UNL     1       6.040   6.563  17.674  0.00  0.00    +0.000 A 
ATOM      2  C   UNL     1       6.278   5.685  18.733  0.00  0.00    +0.000 A 
ATOM      3  C   UNL     1       5.252   4.874  19.230  0.00  0.00    +0.000 A 
ATOM      4  C   UNL     1       3.969   4.926  18.682  0.00  0.00    +0.000 A 
ATOM      5  C   UNL     1       3.732   5.801  17.615  0.00  0.00    +0.000 A 
ATOM      6  C   UNL     1       4.758   6.619  17.113  0.00  0.00    +0.000 A 
ENDROOT
BRANCH   4   7
ATOM      7  N   UNL     1       2.888   4.148  19.152  0.00  0.00    +0.000 N 
ATOM      8  C   UNL     1       1.923   4.525  20.085  0.00  0.00    +0.000 C 
ATOM      9  O   UNL     1       1.892   5.601  20.682  0.00  0.00    +0.000 OA
ATOM     10  H   UNL     1       2.791   3.219  18.753  0.00  0.00    +0.000 HD
BRANCH   8  11
ATOM     11  C   UNL     1       0.833   3.488  20.341  0.00  0.00    +0.000 C 
ATOM     12 CL   UNL     1       0.672   2.432  18.922  0.00  0.00    +0.000 Cl
ATOM     13 CL   UNL     1       1.236   2.538  21.785  0.00  0.00    +0.000 Cl
ENDBRANCH   8  11
ENDBRANCH   4   7
BRANCH   1  14
ATOM     14  C   UNL     1       7.177   7.395  17.192  0.00  0.00    +0.000 C 
ATOM     15  O   UNL     1       8.038   6.984  16.431  0.00  0.00    +0.000 OA
BRANCH  14  17
ATOM     16  C   UNL     1       8.380   9.160  18.131  0.00  0.00    +0.000 C 
ATOM     17  O   UNL     1       7.112   8.645  17.717  0.00  0.00    +0.000 OA
ENDBRANCH  14  17
ENDBRANCH   1  14
TORSDOF 4
ENDMDL
MODEL 9
REMARK VINA RESULT:      -6.1      3.879      6.780
REMARK  Name = 
REMARK  5 active torsions:
REMARK  status: ('A' for Active; 'I' for Inactive)
REMARK    1  A    between atoms: C_1  and  O_2
REMARK    2  A    between atoms: O_2  and  C_3
REMARK    3  A    between atoms: C_3  and  C_5
REMARK    4  A    between atoms: C_8  and  N_9
REMARK    5  A    between atoms: C_10  and  C_12
REMARK                            x       y       z     vdW  Elec       q    Type
REMARK                         _______ _______ _______ _____ _____    ______ ____
ROOT
ATOM      1  C   UNL     1       2.628   4.659  19.223  0.00  0.00    +0.000 A 
ATOM      2  C   UNL     1       2.021   4.234  18.039  0.00  0.00    +0.000 A 
ATOM      3  C   UNL     1       2.791   3.936  16.910  0.00  0.00    +0.000 A 
ATOM      4  C   UNL     1       4.181   4.059  16.939  0.00  0.00    +0.000 A 
ATOM      5  C   UNL     1       4.791   4.479  18.127  0.00  0.00    +0.000 A 
ATOM      6  C   UNL     1       4.022   4.781  19.263  0.00  0.00    +0.000 A 
ENDROOT
BRANCH   4   7
ATOM      7  N   UNL     1       5.011   3.794  15.827  0.00  0.00    +0.000 N 
ATOM      8  C   UNL     1       5.650   4.726  15.012  0.00  0.00    +0.000 C 
ATOM      9  O   UNL     1       5.552   5.949  15.116  0.00  0.00    +0.000 OA
ATOM     10  H   UNL     1       5.175   2.816  15.609  0.00  0.00    +0.000 HD
BRANCH   8  11
ATOM     11  C   UNL     1       6.541   4.131  13.925  0.00  0.00    +0.000 C 
ATOM     12 CL   UNL     1       5.542   3.643  12.539  0.00  0.00    +0.000 Cl
ATOM     13 CL   UNL     1       7.760   5.320  13.429  0.00  0.00    +0.000 Cl
ENDBRANCH   8  11
ENDBRANCH   4   7
BRANCH   1  14
ATOM     14  C   UNL     1       1.749   4.956  20.387  0.00  0.00    +0.000 C 
ATOM     15  O   UNL     1       1.791   6.003  21.013  0.00  0.00    +0.000 OA
BRANCH  14  17
ATOM     16  C   UNL     1       1.458   2.962  21.561  0.00  0.00    +0.000 C 
ATOM     17  O   UNL     1       0.920   3.913  20.640  0.00  0.00    +0.000 OA
ENDBRANCH  14  17
ENDBRANCH   1  14
TORSDOF 4
ENDMDL
