MODEL 1
REMARK VINA RESULT:      -7.8      0.000      0.000
REMARK  Name = 
REMARK  7 active torsions:
REMARK  status: ('A' for Active; 'I' for Inactive)
REMARK    1  A    between atoms: C_1  and  O_2
REMARK    2  A    between atoms: O_2  and  C_3
REMARK    3  A    between atoms: C_6  and  C_7
REMARK    4  A    between atoms: C_7  and  N_8
REMARK    5  A    between atoms: C_9  and  C_11
REMARK    6  A    between atoms: C_11  and  S_12
REMARK    7  A    between atoms: S_12  and  C_13
REMARK                            x       y       z     vdW  Elec       q    Type
REMARK                         _______ _______ _______ _____ _____    ______ ____
ROOT
ATOM      1  N   UNL     1       8.100   8.227  18.330  0.00  0.00    +0.000 N 
ATOM      2  C   UNL     1       7.714   7.032  17.766  0.00  0.00    +0.000 C 
ATOM      3  O   UNL     1       7.682   6.844  16.551  0.00  0.00    +0.000 OA
ATOM      4  H   UNL     1       8.136   8.283  19.344  0.00  0.00    +0.000 HD
ENDROOT
BRANCH   1   5
ATOM      5  C   UNL     1       8.371   9.420  17.573  0.00  0.00    +0.000 C 
BRANCH   5   9
ATOM      6  C   UNL     1      10.294  12.428  19.996  0.00  0.00    +0.000 A 
ATOM      7  C   UNL     1      10.063  12.655  18.630  0.00  0.00    +0.000 A 
ATOM      8  C   UNL     1       9.443  11.681  17.864  0.00  0.00    +0.000 A 
ATOM      9  C   UNL     1       9.022  10.468  18.430  0.00  0.00    +0.000 A 
ATOM     10  C   UNL     1       9.292  10.242  19.792  0.00  0.00    +0.000 A 
ATOM     11  C   UNL     1       9.914  11.218  20.567  0.00  0.00    +0.000 A 
BRANCH   6  13
ATOM     12  C   UNL     1      10.087  14.341  21.361  0.00  0.00    +0.000 C 
ATOM     13  O   UNL     1      10.930  13.457  20.645  0.00  0.00    +0.000 OA
ENDBRANCH   6  13
ENDBRANCH   5   9
ENDBRANCH   1   5
BRANCH   2  14
ATOM     14  C   UNL     1       7.394   5.925  18.772  0.00  0.00    +0.000 C 
BRANCH  14  15
ATOM     15  S   UNL     1       6.338   4.677  17.949  0.00  0.00    +0.000 S 
BRANCH  15  16
ATOM     16  C   UNL     1       4.637   5.164  18.274  0.00  0.00    +0.000 A 
ATOM     17  C   UNL     1       4.323   6.414  17.704  0.00  0.00    +0.000 A 
ATOM     18  C   UNL     1       3.155   7.083  18.044  0.00  0.00    +0.000 A 
ATOM     19  C   UNL     1       2.320   6.535  19.002  0.00  0.00    +0.000 A 
ATOM     20  C   UNL     1       2.630   5.305  19.596  0.00  0.00    +0.000 A 
ATOM     21  C   UNL     1       1.867   4.837  20.670  0.00  0.00    +0.000 A 
ATOM     22  C   UNL     1       2.160   3.610  21.252  0.00  0.00    +0.000 A 
ATOM     23  C   UNL     1       3.168   2.861  20.685  0.00  0.00    +0.000 A 
ATOM     24  N   UNL     1       3.965   3.314  19.691  0.00  0.00    +0.000 NA
ATOM     25  C   UNL     1       3.748   4.544  19.171  0.00  0.00    +0.000 A 
ENDBRANCH  15  16
ENDBRANCH  14  15
ENDBRANCH   2  14
TORSDOF 6
ENDMDL
MODEL 2
REMARK VINA RESULT:      -7.8      4.368      6.959
REMARK  Name = 
REMARK  7 active torsions:
REMARK  status: ('A' for Active; 'I' for Inactive)
REMARK    1  A    between atoms: C_1  and  O_2
REMARK    2  A    between atoms: O_2  and  C_3
REMARK    3  A    between atoms: C_6  and  C_7
REMARK    4  A    between atoms: C_7  and  N_8
REMARK    5  A    between atoms: C_9  and  C_11
REMARK    6  A    between atoms: C_11  and  S_12
REMARK    7  A    between atoms: S_12  and  C_13
REMARK                            x       y       z     vdW  Elec       q    Type
REMARK                         _______ _______ _______ _____ _____    ______ ____
ROOT
ATOM      1  N   UNL     1       2.508   4.044  20.311  0.00  0.00    +0.000 N 
ATOM      2  C   UNL     1       1.816   3.036  19.676  0.00  0.00    +0.000 C 
ATOM      3  O   UNL     1       0.595   3.046  19.539  0.00  0.00    +0.000 OA
ATOM      4  H   UNL     1       3.521   3.974  20.345  0.00  0.00    +0.000 HD
ENDROOT
BRANCH   1   5
ATOM      5  C   UNL     1       1.877   5.139  20.998  0.00  0.00    +0.000 C 
BRANCH   5   9
ATOM      6  C   UNL     1       2.000   8.761  18.658  0.00  0.00    +0.000 A 
ATOM      7  C   UNL     1       1.438   8.764  19.945  0.00  0.00    +0.000 A 
ATOM      8  C   UNL     1       1.407   7.593  20.687  0.00  0.00    +0.000 A 
ATOM      9  C   UNL     1       1.943   6.398  20.183  0.00  0.00    +0.000 A 
ATOM     10  C   UNL     1       2.469   6.405  18.879  0.00  0.00    +0.000 A 
ATOM     11  C   UNL     1       2.504   7.579  18.129  0.00  0.00    +0.000 A 
BRANCH   6  13
ATOM     12  C   UNL     1       1.283  11.008  18.711  0.00  0.00    +0.000 C 
ATOM     13  O   UNL     1       1.956   9.974  18.016  0.00  0.00    +0.000 OA
ENDBRANCH   6  13
ENDBRANCH   5   9
ENDBRANCH   1   5
BRANCH   2  14
ATOM     14  C   UNL     1       2.695   1.930  19.090  0.00  0.00    +0.000 C 
BRANCH  14  15
ATOM     15  S   UNL     1       4.450   2.375  19.360  0.00  0.00    +0.000 S 
BRANCH  15  16
ATOM     16  C   UNL     1       4.800   3.743  18.246  0.00  0.00    +0.000 A 
ATOM     17  C   UNL     1       4.158   3.593  17.001  0.00  0.00    +0.000 A 
ATOM     18  C   UNL     1       4.492   4.399  15.921  0.00  0.00    +0.000 A 
ATOM     19  C   UNL     1       5.514   5.322  16.061  0.00  0.00    +0.000 A 
ATOM     20  C   UNL     1       6.179   5.467  17.285  0.00  0.00    +0.000 A 
ATOM     21  C   UNL     1       7.308   6.285  17.373  0.00  0.00    +0.000 A 
ATOM     22  C   UNL     1       7.962   6.446  18.588  0.00  0.00    +0.000 A 
ATOM     23  C   UNL     1       7.412   5.831  19.692  0.00  0.00    +0.000 A 
ATOM     24  N   UNL     1       6.362   4.981  19.628  0.00  0.00    +0.000 NA
ATOM     25  C   UNL     1       5.768   4.747  18.435  0.00  0.00    +0.000 A 
ENDBRANCH  15  16
ENDBRANCH  14  15
ENDBRANCH   2  14
TORSDOF 6
ENDMDL
MODEL 3
REMARK VINA RESULT:      -7.8      3.893      6.640
REMARK  Name = 
REMARK  7 active torsions:
REMARK  status: ('A' for Active; 'I' for Inactive)
REMARK    1  A    between atoms: C_1  and  O_2
REMARK    2  A    between atoms: O_2  and  C_3
REMARK    3  A    between atoms: C_6  and  C_7
REMARK    4  A    between atoms: C_7  and  N_8
REMARK    5  A    between atoms: C_9  and  C_11
REMARK    6  A    between atoms: C_11  and  S_12
REMARK    7  A    between atoms: S_12  and  C_13
REMARK                            x       y       z     vdW  Elec       q    Type
REMARK                         _______ _______ _______ _____ _____    ______ ____
ROOT
ATOM      1  N   UNL     1       3.045   3.326  18.858  0.00  0.00    +0.000 N 
ATOM      2  C   UNL     1       1.745   3.774  18.788  0.00  0.00    +0.000 C 
ATOM      3  O   UNL     1       1.085   3.757  17.751  0.00  0.00    +0.000 OA
ATOM      4  H   UNL     1       3.503   3.338  19.765  0.00  0.00    +0.000 HD
ENDROOT
BRANCH   1   5
ATOM      5  C   UNL     1       3.816   2.924  17.712  0.00  0.00    +0.000 C 
BRANCH   5   9
ATOM      6  C   UNL     1       6.682   5.985  16.696  0.00  0.00    +0.000 A 
ATOM      7  C   UNL     1       6.563   5.533  18.020  0.00  0.00    +0.000 A 
ATOM      8  C   UNL     1       5.640   4.548  18.331  0.00  0.00    +0.000 A 
ATOM      9  C   UNL     1       4.824   3.975  17.344  0.00  0.00    +0.000 A 
ATOM     10  C   UNL     1       4.932   4.465  16.029  0.00  0.00    +0.000 A 
ATOM     11  C   UNL     1       5.859   5.454  15.709  0.00  0.00    +0.000 A 
BRANCH   6  13
ATOM     12  C   UNL     1       7.780   7.866  17.602  0.00  0.00    +0.000 C 
ATOM     13  O   UNL     1       7.617   6.975  16.514  0.00  0.00    +0.000 OA
ENDBRANCH   6  13
ENDBRANCH   5   9
ENDBRANCH   1   5
BRANCH   2  14
ATOM     14  C   UNL     1       1.155   4.231  20.124  0.00  0.00    +0.000 C 
BRANCH  14  15
ATOM     15  S   UNL     1       2.195   5.582  20.788  0.00  0.00    +0.000 S 
BRANCH  15  16
ATOM     16  C   UNL     1       1.881   7.017  19.749  0.00  0.00    +0.000 A 
ATOM     17  C   UNL     1       2.620   6.977  18.550  0.00  0.00    +0.000 A 
ATOM     18  C   UNL     1       2.716   8.095  17.730  0.00  0.00    +0.000 A 
ATOM     19  C   UNL     1       2.122   9.278  18.135  0.00  0.00    +0.000 A 
ATOM     20  C   UNL     1       1.405   9.341  19.336  0.00  0.00    +0.000 A 
ATOM     21  C   UNL     1       0.946  10.572  19.811  0.00  0.00    +0.000 A 
ATOM     22  C   UNL     1       0.219  10.637  20.993  0.00  0.00    +0.000 A 
ATOM     23  C   UNL     1      -0.082   9.449  21.622  0.00  0.00    +0.000 A 
ATOM     24  N   UNL     1       0.403   8.251  21.224  0.00  0.00    +0.000 NA
ATOM     25  C   UNL     1       1.185   8.182  20.122  0.00  0.00    +0.000 A 
ENDBRANCH  15  16
ENDBRANCH  14  15
ENDBRANCH   2  14
TORSDOF 6
ENDMDL
MODEL 4
REMARK VINA RESULT:      -7.8      4.370      6.848
REMARK  Name = 
REMARK  7 active torsions:
REMARK  status: ('A' for Active; 'I' for Inactive)
REMARK    1  A    between atoms: C_1  and  O_2
REMARK    2  A    between atoms: O_2  and  C_3
REMARK    3  A    between atoms: C_6  and  C_7
REMARK    4  A    between atoms: C_7  and  N_8
REMARK    5  A    between atoms: C_9  and  C_11
REMARK    6  A    between atoms: C_11  and  S_12
REMARK    7  A    between atoms: S_12  and  C_13
REMARK                            x       y       z     vdW  Elec       q    Type
REMARK                         _______ _______ _______ _____ _____    ______ ____
ROOT
ATOM      1  N   UNL     1       2.323   4.395  20.104  0.00  0.00    +0.000 N 
ATOM      2  C   UNL     1       1.946   3.093  20.352  0.00  0.00    +0.000 C 
ATOM      3  O   UNL     1       1.074   2.793  21.165  0.00  0.00    +0.000 OA
ATOM      4  H   UNL     1       3.025   4.556  19.387  0.00  0.00    +0.000 HD
ENDROOT
BRANCH   1   5
ATOM      5  C   UNL     1       1.847   5.524  20.857  0.00  0.00    +0.000 C 
BRANCH   5   9
ATOM      6  C   UNL     1       1.996   9.121  18.479  0.00  0.00    +0.000 A 
ATOM      7  C   UNL     1       2.589   7.936  18.015  0.00  0.00    +0.000 A 
ATOM      8  C   UNL     1       2.531   6.787  18.788  0.00  0.00    +0.000 A 
ATOM      9  C   UNL     1       1.876   6.776  20.029  0.00  0.00    +0.000 A 
ATOM     10  C   UNL     1       1.318   7.981  20.495  0.00  0.00    +0.000 A 
ATOM     11  C   UNL     1       1.372   9.139  19.721  0.00  0.00    +0.000 A 
BRANCH   6  13
ATOM     12  C   UNL     1       2.013  11.468  18.242  0.00  0.00    +0.000 C 
ATOM     13  O   UNL     1       2.134  10.195  17.634  0.00  0.00    +0.000 OA
ENDBRANCH   6  13
ENDBRANCH   5   9
ENDBRANCH   1   5
BRANCH   2  14
ATOM     14  C   UNL     1       2.649   2.048  19.484  0.00  0.00    +0.000 C 
BRANCH  14  15
ATOM     15  S   UNL     1       4.451   2.369  19.530  0.00  0.00    +0.000 S 
BRANCH  15  16
ATOM     16  C   UNL     1       4.752   3.714  18.374  0.00  0.00    +0.000 A 
ATOM     17  C   UNL     1       4.051   3.542  17.163  0.00  0.00    +0.000 A 
ATOM     18  C   UNL     1       4.336   4.325  16.053  0.00  0.00    +0.000 A 
ATOM     19  C   UNL     1       5.367   5.246  16.126  0.00  0.00    +0.000 A 
ATOM     20  C   UNL     1       6.090   5.412  17.314  0.00  0.00    +0.000 A 
ATOM     21  C   UNL     1       7.226   6.227  17.331  0.00  0.00    +0.000 A 
ATOM     22  C   UNL     1       7.937   6.408  18.511  0.00  0.00    +0.000 A 
ATOM     23  C   UNL     1       7.438   5.817  19.652  0.00  0.00    +0.000 A 
ATOM     24  N   UNL     1       6.383   4.972  19.654  0.00  0.00    +0.000 NA
ATOM     25  C   UNL     1       5.732   4.716  18.496  0.00  0.00    +0.000 A 
ENDBRANCH  15  16
ENDBRANCH  14  15
ENDBRANCH   2  14
TORSDOF 6
ENDMDL
MODEL 5
REMARK VINA RESULT:      -7.7      0.600      1.159
REMARK  Name = 
REMARK  7 active torsions:
REMARK  status: ('A' for Active; 'I' for Inactive)
REMARK    1  A    between atoms: C_1  and  O_2
REMARK    2  A    between atoms: O_2  and  C_3
REMARK    3  A    between atoms: C_6  and  C_7
REMARK    4  A    between atoms: C_7  and  N_8
REMARK    5  A    between atoms: C_9  and  C_11
REMARK    6  A    between atoms: C_11  and  S_12
REMARK    7  A    between atoms: S_12  and  C_13
REMARK                            x       y       z     vdW  Elec       q    Type
REMARK                         _______ _______ _______ _____ _____    ______ ____
ROOT
ATOM      1  N   UNL     1       8.208   8.380  18.295  0.00  0.00    +0.000 N 
ATOM      2  C   UNL     1       7.725   7.211  17.749  0.00  0.00    +0.000 C 
ATOM      3  O   UNL     1       7.532   7.063  16.544  0.00  0.00    +0.000 OA
ATOM      4  H   UNL     1       8.376   8.402  19.296  0.00  0.00    +0.000 HD
ENDROOT
BRANCH   1   5
ATOM      5  C   UNL     1       8.408   9.591  17.544  0.00  0.00    +0.000 C 
BRANCH   5   9
ATOM      6  C   UNL     1       9.913  12.722  20.102  0.00  0.00    +0.000 A 
ATOM      7  C   UNL     1       9.879  11.392  20.551  0.00  0.00    +0.000 A 
ATOM      8  C   UNL     1       9.395  10.396  19.717  0.00  0.00    +0.000 A 
ATOM      9  C   UNL     1       8.948  10.685  18.419  0.00  0.00    +0.000 A 
ATOM     10  C   UNL     1       8.957  12.028  17.999  0.00  0.00    +0.000 A 
ATOM     11  C   UNL     1       9.444  13.033  18.831  0.00  0.00    +0.000 A 
BRANCH   6  13
ATOM     12  C   UNL     1      10.951  14.806  20.482  0.00  0.00    +0.000 C 
ATOM     13  O   UNL     1      10.397  13.620  21.021  0.00  0.00    +0.000 OA
ENDBRANCH   6  13
ENDBRANCH   5   9
ENDBRANCH   1   5
BRANCH   2  14
ATOM     14  C   UNL     1       7.510   6.078  18.756  0.00  0.00    +0.000 C 
BRANCH  14  15
ATOM     15  S   UNL     1       6.684   4.687  17.900  0.00  0.00    +0.000 S 
BRANCH  15  16
ATOM     16  C   UNL     1       4.928   4.847  18.261  0.00  0.00    +0.000 A 
ATOM     17  C   UNL     1       4.378   6.024  17.715  0.00  0.00    +0.000 A 
ATOM     18  C   UNL     1       3.113   6.461  18.085  0.00  0.00    +0.000 A 
ATOM     19  C   UNL     1       2.413   5.756  19.048  0.00  0.00    +0.000 A 
ATOM     20  C   UNL     1       2.956   4.598  19.619  0.00  0.00    +0.000 A 
ATOM     21  C   UNL     1       2.314   3.985  20.698  0.00  0.00    +0.000 A 
ATOM     22  C   UNL     1       2.840   2.826  21.256  0.00  0.00    +0.000 A 
ATOM     23  C   UNL     1       3.958   2.284  20.662  0.00  0.00    +0.000 A 
ATOM     24  N   UNL     1       4.638   2.888  19.661  0.00  0.00    +0.000 NA
ATOM     25  C   UNL     1       4.187   4.063  19.163  0.00  0.00    +0.000 A 
ENDBRANCH  15  16
ENDBRANCH  14  15
ENDBRANCH   2  14
TORSDOF 6
ENDMDL
MODEL 6
REMARK VINA RESULT:      -7.4      3.796      6.512
REMARK  Name = 
REMARK  7 active torsions:
REMARK  status: ('A' for Active; 'I' for Inactive)
REMARK    1  A    between atoms: C_1  and  O_2
REMARK    2  A    between atoms: O_2  and  C_3
REMARK    3  A    between atoms: C_6  and  C_7
REMARK    4  A    between atoms: C_7  and  N_8
REMARK    5  A    between atoms: C_9  and  C_11
REMARK    6  A    between atoms: C_11  and  S_12
REMARK    7  A    between atoms: S_12  and  C_13
REMARK                            x       y       z     vdW  Elec       q    Type
REMARK                         _______ _______ _______ _____ _____    ______ ____
ROOT
ATOM      1  N   UNL     1       3.031   3.360  18.747  0.00  0.00    +0.000 N 
ATOM      2  C   UNL     1       1.728   3.786  18.615  0.00  0.00    +0.000 C 
ATOM      3  O   UNL     1       1.140   3.819  17.537  0.00  0.00    +0.000 OA
ATOM      4  H   UNL     1       3.427   3.327  19.682  0.00  0.00    +0.000 HD
ENDROOT
BRANCH   1   5
ATOM      5  C   UNL     1       3.886   3.044  17.634  0.00  0.00    +0.000 C 
BRANCH   5   9
ATOM      6  C   UNL     1       6.832   6.122  16.956  0.00  0.00    +0.000 A 
ATOM      7  C   UNL     1       6.541   5.182  15.954  0.00  0.00    +0.000 A 
ATOM      8  C   UNL     1       5.590   4.200  16.185  0.00  0.00    +0.000 A 
ATOM      9  C   UNL     1       4.895   4.131  17.402  0.00  0.00    +0.000 A 
ATOM     10  C   UNL     1       5.225   5.058  18.407  0.00  0.00    +0.000 A 
ATOM     11  C   UNL     1       6.178   6.049  18.181  0.00  0.00    +0.000 A 
BRANCH   6  13
ATOM     12  C   UNL     1       7.958   8.118  17.514  0.00  0.00    +0.000 C 
ATOM     13  O   UNL     1       7.802   7.033  16.617  0.00  0.00    +0.000 OA
ENDBRANCH   6  13
ENDBRANCH   5   9
ENDBRANCH   1   5
BRANCH   2  14
ATOM     14  C   UNL     1       1.040   4.151  19.933  0.00  0.00    +0.000 C 
BRANCH  14  15
ATOM     15  S   UNL     1       2.021   5.455  20.761  0.00  0.00    +0.000 S 
BRANCH  15  16
ATOM     16  C   UNL     1       1.646   6.990  19.899  0.00  0.00    +0.000 A 
ATOM     17  C   UNL     1       2.275   7.059  18.639  0.00  0.00    +0.000 A 
ATOM     18  C   UNL     1       2.322   8.251  17.927  0.00  0.00    +0.000 A 
ATOM     19  C   UNL     1       1.793   9.396  18.497  0.00  0.00    +0.000 A 
ATOM     20  C   UNL     1       1.187   9.349  19.759  0.00  0.00    +0.000 A 
ATOM     21  C   UNL     1       0.799  10.533  20.391  0.00  0.00    +0.000 A 
ATOM     22  C   UNL     1       0.181  10.491  21.635  0.00  0.00    +0.000 A 
ATOM     23  C   UNL     1      -0.088   9.250  22.170  0.00  0.00    +0.000 A 
ATOM     24  N   UNL     1       0.333   8.091  21.615  0.00  0.00    +0.000 NA
ATOM     25  C   UNL     1       1.013   8.121  20.445  0.00  0.00    +0.000 A 
ENDBRANCH  15  16
ENDBRANCH  14  15
ENDBRANCH   2  14
TORSDOF 6
ENDMDL
MODEL 7
REMARK VINA RESULT:      -7.3      4.736      6.845
REMARK  Name = 
REMARK  7 active torsions:
REMARK  status: ('A' for Active; 'I' for Inactive)
REMARK    1  A    between atoms: C_1  and  O_2
REMARK    2  A    between atoms: O_2  and  C_3
REMARK    3  A    between atoms: C_6  and  C_7
REMARK    4  A    between atoms: C_7  and  N_8
REMARK    5  A    between atoms: C_9  and  C_11
REMARK    6  A    between atoms: C_11  and  S_12
REMARK    7  A    between atoms: S_12  and  C_13
REMARK                            x       y       z     vdW  Elec       q    Type
REMARK                         _______ _______ _______ _____ _____    ______ ____
ROOT
ATOM      1  N   UNL     1       2.433   5.102  19.150  0.00  0.00    +0.000 N 
ATOM      2  C   UNL     1       1.799   3.880  19.117  0.00  0.00    +0.000 C 
ATOM      3  O   UNL     1       1.029   3.501  19.998  0.00  0.00    +0.000 OA
ATOM      4  H   UNL     1       3.021   5.352  18.360  0.00  0.00    +0.000 HD
ENDROOT
BRANCH   1   5
ATOM      5  C   UNL     1       2.378   6.003  20.270  0.00  0.00    +0.000 C 
BRANCH   5   9
ATOM      6  C   UNL     1       1.254   9.975  19.015  0.00  0.00    +0.000 A 
ATOM      7  C   UNL     1       0.955   9.527  20.313  0.00  0.00    +0.000 A 
ATOM      8  C   UNL     1       1.325   8.250  20.703  0.00  0.00    +0.000 A 
ATOM      9  C   UNL     1       2.009   7.390  19.829  0.00  0.00    +0.000 A 
ATOM     10  C   UNL     1       2.268   7.842  18.523  0.00  0.00    +0.000 A 
ATOM     11  C   UNL     1       1.901   9.126  18.125  0.00  0.00    +0.000 A 
BRANCH   6  13
ATOM     12  C   UNL     1       1.845  12.210  18.549  0.00  0.00    +0.000 C 
ATOM     13  O   UNL     1       0.823  11.250  18.740  0.00  0.00    +0.000 OA
ENDBRANCH   6  13
ENDBRANCH   5   9
ENDBRANCH   1   5
BRANCH   2  14
ATOM     14  C   UNL     1       2.071   3.053  17.859  0.00  0.00    +0.000 C 
BRANCH  14  15
ATOM     15  S   UNL     1       3.823   2.522  17.878  0.00  0.00    +0.000 S 
BRANCH  15  16
ATOM     16  C   UNL     1       4.759   3.849  17.103  0.00  0.00    +0.000 A 
ATOM     17  C   UNL     1       4.669   3.811  15.697  0.00  0.00    +0.000 A 
ATOM     18  C   UNL     1       5.510   4.583  14.905  0.00  0.00    +0.000 A 
ATOM     19  C   UNL     1       6.488   5.351  15.512  0.00  0.00    +0.000 A 
ATOM     20  C   UNL     1       6.606   5.380  16.908  0.00  0.00    +0.000 A 
ATOM     21  C   UNL     1       7.691   6.031  17.502  0.00  0.00    +0.000 A 
ATOM     22  C   UNL     1       7.804   6.077  18.886  0.00  0.00    +0.000 A 
ATOM     23  C   UNL     1       6.782   5.525  19.627  0.00  0.00    +0.000 A 
ATOM     24  N   UNL     1       5.756   4.832  19.083  0.00  0.00    +0.000 NA
ATOM     25  C   UNL     1       5.678   4.704  17.738  0.00  0.00    +0.000 A 
ENDBRANCH  15  16
ENDBRANCH  14  15
ENDBRANCH   2  14
TORSDOF 6
ENDMDL
MODEL 8
REMARK VINA RESULT:      -7.3      4.153      7.224
REMARK  Name = 
REMARK  7 active torsions:
REMARK  status: ('A' for Active; 'I' for Inactive)
REMARK    1  A    between atoms: C_1  and  O_2
REMARK    2  A    between atoms: O_2  and  C_3
REMARK    3  A    between atoms: C_6  and  C_7
REMARK    4  A    between atoms: C_7  and  N_8
REMARK    5  A    between atoms: C_9  and  C_11
REMARK    6  A    between atoms: C_11  and  S_12
REMARK    7  A    between atoms: S_12  and  C_13
REMARK                            x       y       z     vdW  Elec       q    Type
REMARK                         _______ _______ _______ _____ _____    ______ ____
ROOT
ATOM      1  N   UNL     1       7.188   5.367  16.294  0.00  0.00    +0.000 N 
ATOM      2  C   UNL     1       7.200   6.385  17.222  0.00  0.00    +0.000 C 
ATOM      3  O   UNL     1       7.628   7.511  16.976  0.00  0.00    +0.000 OA
ATOM      4  H   UNL     1       6.779   4.479  16.570  0.00  0.00    +0.000 HD
ENDROOT
BRANCH   1   5
ATOM      5  C   UNL     1       7.794   5.463  14.993  0.00  0.00    +0.000 C 
BRANCH   5   9
ATOM      6  C   UNL     1       5.462   3.302  12.077  0.00  0.00    +0.000 A 
ATOM      7  C   UNL     1       4.948   3.545  13.361  0.00  0.00    +0.000 A 
ATOM      8  C   UNL     1       5.707   4.242  14.287  0.00  0.00    +0.000 A 
ATOM      9  C   UNL     1       6.983   4.729  13.964  0.00  0.00    +0.000 A 
ATOM     10  C   UNL     1       7.497   4.446  12.685  0.00  0.00    +0.000 A 
ATOM     11  C   UNL     1       6.737   3.747  11.749  0.00  0.00    +0.000 A 
BRANCH   6  13
ATOM     12  C   UNL     1       3.550   3.318  10.695  0.00  0.00    +0.000 C 
ATOM     13  O   UNL     1       4.625   2.587  11.255  0.00  0.00    +0.000 OA
ENDBRANCH   6  13
ENDBRANCH   5   9
ENDBRANCH   1   5
BRANCH   2  14
ATOM     14  C   UNL     1       6.572   6.027  18.570  0.00  0.00    +0.000 C 
BRANCH  14  15
ATOM     15  S   UNL     1       5.978   4.297  18.495  0.00  0.00    +0.000 S 
BRANCH  15  16
ATOM     16  C   UNL     1       4.182   4.378  18.566  0.00  0.00    +0.000 A 
ATOM     17  C   UNL     1       3.659   5.354  17.695  0.00  0.00    +0.000 A 
ATOM     18  C   UNL     1       2.330   5.750  17.778  0.00  0.00    +0.000 A 
ATOM     19  C   UNL     1       1.531   5.215  18.773  0.00  0.00    +0.000 A 
ATOM     20  C   UNL     1       2.043   4.262  19.663  0.00  0.00    +0.000 A 
ATOM     21  C   UNL     1       1.278   3.847  20.757  0.00  0.00    +0.000 A 
ATOM     22  C   UNL     1       1.774   2.890  21.633  0.00  0.00    +0.000 A 
ATOM     23  C   UNL     1       2.998   2.329  21.337  0.00  0.00    +0.000 A 
ATOM     24  N   UNL     1       3.789   2.756  20.326  0.00  0.00    +0.000 NA
ATOM     25  C   UNL     1       3.356   3.749  19.515  0.00  0.00    +0.000 A 
ENDBRANCH  15  16
ENDBRANCH  14  15
ENDBRANCH   2  14
TORSDOF 6
ENDMDL
MODEL 9
REMARK VINA RESULT:      -7.2      6.079      9.500
REMARK  Name = 
REMARK  7 active torsions:
REMARK  status: ('A' for Active; 'I' for Inactive)
REMARK    1  A    between atoms: C_1  and  O_2
REMARK    2  A    between atoms: O_2  and  C_3
REMARK    3  A    between atoms: C_6  and  C_7
REMARK    4  A    between atoms: C_7  and  N_8
REMARK    5  A    between atoms: C_9  and  C_11
REMARK    6  A    between atoms: C_11  and  S_12
REMARK    7  A    between atoms: S_12  and  C_13
REMARK                            x       y       z     vdW  Elec       q    Type
REMARK                         _______ _______ _______ _____ _____    ______ ____
ROOT
ATOM      1  N   UNL     1       0.308  10.544  18.144  0.00  0.00    +0.000 N 
ATOM      2  C   UNL     1       1.033   9.619  18.862  0.00  0.00    +0.000 C 
ATOM      3  O   UNL     1       1.030   9.574  20.090  0.00  0.00    +0.000 OA
ATOM      4  H   UNL     1       0.336  10.485  17.130  0.00  0.00    +0.000 HD
ENDROOT
BRANCH   1   5
ATOM      5  C   UNL     1      -0.412  11.636  18.742  0.00  0.00    +0.000 C 
BRANCH   5   9
ATOM      6  C   UNL     1      -4.664  11.161  18.188  0.00  0.00    +0.000 A 
ATOM      7  C   UNL     1      -3.758  10.431  17.401  0.00  0.00    +0.000 A 
ATOM      8  C   UNL     1      -2.395  10.592  17.592  0.00  0.00    +0.000 A 
ATOM      9  C   UNL     1      -1.894  11.464  18.571  0.00  0.00    +0.000 A 
ATOM     10  C   UNL     1      -2.815  12.214  19.325  0.00  0.00    +0.000 A 
ATOM     11  C   UNL     1      -4.187  12.055  19.139  0.00  0.00    +0.000 A 
BRANCH   6  13
ATOM     12  C   UNL     1      -6.724  10.256  18.898  0.00  0.00    +0.000 C 
ATOM     13  O   UNL     1      -5.986  10.930  17.895  0.00  0.00    +0.000 OA
ENDBRANCH   6  13
ENDBRANCH   5   9
ENDBRANCH   1   5
BRANCH   2  14
ATOM     14  C   UNL     1       1.790   8.600  18.008  0.00  0.00    +0.000 C 
BRANCH  14  15
ATOM     15  S   UNL     1       2.438   7.287  19.106  0.00  0.00    +0.000 S 
BRANCH  15  16
ATOM     16  C   UNL     1       2.958   5.942  18.030  0.00  0.00    +0.000 A 
ATOM     17  C   UNL     1       2.034   4.877  18.026  0.00  0.00    +0.000 A 
ATOM     18  C   UNL     1       2.360   3.648  17.466  0.00  0.00    +0.000 A 
ATOM     19  C   UNL     1       3.634   3.457  16.960  0.00  0.00    +0.000 A 
ATOM     20  C   UNL     1       4.572   4.498  16.979  0.00  0.00    +0.000 A 
ATOM     21  C   UNL     1       5.897   4.249  16.611  0.00  0.00    +0.000 A 
ATOM     22  C   UNL     1       6.827   5.281  16.612  0.00  0.00    +0.000 A 
ATOM     23  C   UNL     1       6.373   6.547  16.915  0.00  0.00    +0.000 A 
ATOM     24  N   UNL     1       5.115   6.806  17.338  0.00  0.00    +0.000 NA
ATOM     25  C   UNL     1       4.220   5.796  17.426  0.00  0.00    +0.000 A 
ENDBRANCH  15  16
ENDBRANCH  14  15
ENDBRANCH   2  14
TORSDOF 6
ENDMDL
