MODEL 1
REMARK VINA RESULT:      -8.6      0.000      0.000
REMARK  Name = 
REMARK  5 active torsions:
REMARK  status: ('A' for Active; 'I' for Inactive)
REMARK    1  A    between atoms: C_2  and  O_3
REMARK    2  A    between atoms: C_2  and  C_4
REMARK    3  A    between atoms: C_7  and  C_8
REMARK    4  A    between atoms: N_10  and  C_11
REMARK    5  A    between atoms: C_16  and  C_17
REMARK                            x       y       z     vdW  Elec       q    Type
REMARK                         _______ _______ _______ _____ _____    ______ ____
ROOT
ATOM      1  C   UNL     1       1.687   8.159  19.606  0.00  0.00    +0.000 A 
ATOM      2  C   UNL     1       1.858   6.817  19.844  0.00  0.00    +0.000 A 
ATOM      3  N   UNL     1       2.485   6.336  18.719  0.00  0.00    +0.000 N 
ATOM      4  N   UNL     1       2.844   7.376  17.928  0.00  0.00    +0.000 NA
ATOM      5  N   UNL     1       2.301   8.479  18.426  0.00  0.00    +0.000 NA
ENDROOT
BRANCH   1   9
ATOM      6  C   UNL     1      -0.415  10.898  22.102  0.00  0.00    +0.000 A 
ATOM      7  C   UNL     1      -0.107  11.257  20.788  0.00  0.00    +0.000 A 
ATOM      8  C   UNL     1       0.587  10.373  19.964  0.00  0.00    +0.000 A 
ATOM      9  C   UNL     1       0.980   9.108  20.446  0.00  0.00    +0.000 A 
ATOM     10  C   UNL     1       0.661   8.755  21.762  0.00  0.00    +0.000 A 
ATOM     11  C   UNL     1      -0.047   9.638  22.584  0.00  0.00    +0.000 A 
BRANCH   6  13
ATOM     12  O   UNL     1      -2.329  11.692  23.270  0.00  0.00    +0.000 OA
ATOM     13  C   UNL     1      -1.168  11.864  22.934  0.00  0.00    +0.000 C 
BRANCH  13  14
ATOM     14  O   UNL     1      -0.466  12.976  23.241  0.00  0.00    +0.000 OA
ATOM     15  H   UNL     1      -0.995  13.785  23.333  0.00  0.00    +0.000 HD
ENDBRANCH  13  14
ENDBRANCH   6  13
ENDBRANCH   1   9
BRANCH   3  16
ATOM     16  C   UNL     1       2.747   4.999  18.354  0.00  0.00    +0.000 A 
ATOM     17  C   UNL     1       1.654   4.129  18.368  0.00  0.00    +0.000 A 
ATOM     18  N   UNL     1       1.698   2.855  17.923  0.00  0.00    +0.000 NA
ATOM     19  C   UNL     1       2.885   2.421  17.469  0.00  0.00    +0.000 A 
ATOM     20  C   UNL     1       4.041   3.191  17.475  0.00  0.00    +0.000 A 
ATOM     21  C   UNL     1       4.017   4.518  17.951  0.00  0.00    +0.000 A 
BRANCH  21  22
ATOM     22  C   UNL     1       5.313   5.250  18.109  0.00  0.00    +0.000 A 
ATOM     23  C   UNL     1       6.116   5.111  19.257  0.00  0.00    +0.000 A 
ATOM     24  C   UNL     1       7.331   5.796  19.392  0.00  0.00    +0.000 A 
ATOM     25  C   UNL     1       7.805   6.596  18.358  0.00  0.00    +0.000 A 
ATOM     26  C   UNL     1       7.033   6.766  17.219  0.00  0.00    +0.000 A 
ATOM     27  C   UNL     1       5.781   6.152  17.130  0.00  0.00    +0.000 A 
ENDBRANCH  21  22
ENDBRANCH   3  16
TORSDOF 5
ENDMDL
MODEL 2
REMARK VINA RESULT:      -8.5      0.129      1.475
REMARK  Name = 
REMARK  5 active torsions:
REMARK  status: ('A' for Active; 'I' for Inactive)
REMARK    1  A    between atoms: C_2  and  O_3
REMARK    2  A    between atoms: C_2  and  C_4
REMARK    3  A    between atoms: C_7  and  C_8
REMARK    4  A    between atoms: N_10  and  C_11
REMARK    5  A    between atoms: C_16  and  C_17
REMARK                            x       y       z     vdW  Elec       q    Type
REMARK                         _______ _______ _______ _____ _____    ______ ____
ROOT
ATOM      1  C   UNL     1       1.732   8.133  19.571  0.00  0.00    +0.000 A 
ATOM      2  C   UNL     1       1.915   6.793  19.809  0.00  0.00    +0.000 A 
ATOM      3  N   UNL     1       2.533   6.314  18.678  0.00  0.00    +0.000 N 
ATOM      4  N   UNL     1       2.878   7.356  17.883  0.00  0.00    +0.000 NA
ATOM      5  N   UNL     1       2.333   8.456  18.385  0.00  0.00    +0.000 NA
ENDROOT
BRANCH   1   9
ATOM      6  C   UNL     1      -0.320  10.953  22.018  0.00  0.00    +0.000 A 
ATOM      7  C   UNL     1       0.219   9.800  22.595  0.00  0.00    +0.000 A 
ATOM      8  C   UNL     1       0.885   8.867  21.804  0.00  0.00    +0.000 A 
ATOM      9  C   UNL     1       1.027   9.078  20.417  0.00  0.00    +0.000 A 
ATOM     10  C   UNL     1       0.490  10.239  19.850  0.00  0.00    +0.000 A 
ATOM     11  C   UNL     1      -0.168  11.182  20.648  0.00  0.00    +0.000 A 
BRANCH   6  13
ATOM     12  O   UNL     1      -0.502  12.981  23.249  0.00  0.00    +0.000 OA
ATOM     13  C   UNL     1      -1.005  11.924  22.901  0.00  0.00    +0.000 C 
BRANCH  13  14
ATOM     14  O   UNL     1      -2.216  11.506  23.329  0.00  0.00    +0.000 OA
ATOM     15  H   UNL     1      -2.282  10.556  23.517  0.00  0.00    +0.000 HD
ENDBRANCH  13  14
ENDBRANCH   6  13
ENDBRANCH   1   9
BRANCH   3  16
ATOM     16  C   UNL     1       2.801   4.979  18.312  0.00  0.00    +0.000 A 
ATOM     17  C   UNL     1       1.712   4.104  18.326  0.00  0.00    +0.000 A 
ATOM     18  N   UNL     1       1.761   2.831  17.880  0.00  0.00    +0.000 NA
ATOM     19  C   UNL     1       2.950   2.402  17.424  0.00  0.00    +0.000 A 
ATOM     20  C   UNL     1       4.102   3.177  17.430  0.00  0.00    +0.000 A 
ATOM     21  C   UNL     1       4.073   4.503  17.907  0.00  0.00    +0.000 A 
BRANCH  21  22
ATOM     22  C   UNL     1       5.366   5.241  18.064  0.00  0.00    +0.000 A 
ATOM     23  C   UNL     1       5.848   6.123  17.077  0.00  0.00    +0.000 A 
ATOM     24  C   UNL     1       7.056   6.815  17.236  0.00  0.00    +0.000 A 
ATOM     25  C   UNL     1       7.789   6.687  18.411  0.00  0.00    +0.000 A 
ATOM     26  C   UNL     1       7.350   5.817  19.397  0.00  0.00    +0.000 A 
ATOM     27  C   UNL     1       6.192   5.062  19.193  0.00  0.00    +0.000 A 
ENDBRANCH  21  22
ENDBRANCH   3  16
TORSDOF 5
ENDMDL
MODEL 3
REMARK VINA RESULT:      -8.2      4.976      7.374
REMARK  Name = 
REMARK  5 active torsions:
REMARK  status: ('A' for Active; 'I' for Inactive)
REMARK    1  A    between atoms: C_2  and  O_3
REMARK    2  A    between atoms: C_2  and  C_4
REMARK    3  A    between atoms: C_7  and  C_8
REMARK    4  A    between atoms: N_10  and  C_11
REMARK    5  A    between atoms: C_16  and  C_17
REMARK                            x       y       z     vdW  Elec       q    Type
REMARK                         _______ _______ _______ _____ _____    ______ ____
ROOT
ATOM      1  C   UNL     1       8.203   8.517  18.281  0.00  0.00    +0.000 A 
ATOM      2  C   UNL     1       7.295   8.131  17.325  0.00  0.00    +0.000 A 
ATOM      3  N   UNL     1       7.205   6.766  17.454  0.00  0.00    +0.000 N 
ATOM      4  N   UNL     1       7.880   6.375  18.562  0.00  0.00    +0.000 NA
ATOM      5  N   UNL     1       8.547   7.424  19.029  0.00  0.00    +0.000 NA
ENDROOT
BRANCH   1   9
ATOM      6  C   UNL     1       9.745  12.430  18.960  0.00  0.00    +0.000 A 
ATOM      7  C   UNL     1       8.949  12.186  17.839  0.00  0.00    +0.000 A 
ATOM      8  C   UNL     1       8.445  10.908  17.602  0.00  0.00    +0.000 A 
ATOM      9  C   UNL     1       8.729   9.852  18.491  0.00  0.00    +0.000 A 
ATOM     10  C   UNL     1       9.523  10.109  19.615  0.00  0.00    +0.000 A 
ATOM     11  C   UNL     1      10.017  11.394  19.860  0.00  0.00    +0.000 A 
BRANCH   6  13
ATOM     12  O   UNL     1       9.667  14.799  18.767  0.00  0.00    +0.000 OA
ATOM     13  C   UNL     1      10.245  13.806  19.180  0.00  0.00    +0.000 C 
BRANCH  13  14
ATOM     14  O   UNL     1      11.427  13.856  19.832  0.00  0.00    +0.000 OA
ATOM     15  H   UNL     1      11.715  13.018  20.229  0.00  0.00    +0.000 HD
ENDBRANCH  13  14
ENDBRANCH   6  13
ENDBRANCH   1   9
BRANCH   3  16
ATOM     16  C   UNL     1       6.550   5.838  16.618  0.00  0.00    +0.000 A 
ATOM     17  C   UNL     1       7.297   5.330  15.553  0.00  0.00    +0.000 A 
ATOM     18  N   UNL     1       6.874   4.341  14.737  0.00  0.00    +0.000 NA
ATOM     19  C   UNL     1       5.645   3.854  14.976  0.00  0.00    +0.000 A 
ATOM     20  C   UNL     1       4.804   4.338  15.970  0.00  0.00    +0.000 A 
ATOM     21  C   UNL     1       5.224   5.381  16.819  0.00  0.00    +0.000 A 
BRANCH  21  22
ATOM     22  C   UNL     1       4.228   5.994  17.754  0.00  0.00    +0.000 A 
ATOM     23  C   UNL     1       3.596   7.221  17.475  0.00  0.00    +0.000 A 
ATOM     24  C   UNL     1       2.659   7.783  18.353  0.00  0.00    +0.000 A 
ATOM     25  C   UNL     1       2.287   7.105  19.509  0.00  0.00    +0.000 A 
ATOM     26  C   UNL     1       2.899   5.902  19.821  0.00  0.00    +0.000 A 
ATOM     27  C   UNL     1       3.898   5.393  18.987  0.00  0.00    +0.000 A 
ENDBRANCH  21  22
ENDBRANCH   3  16
TORSDOF 5
ENDMDL
MODEL 4
REMARK VINA RESULT:      -8.1      4.974      7.375
REMARK  Name = 
REMARK  5 active torsions:
REMARK  status: ('A' for Active; 'I' for Inactive)
REMARK    1  A    between atoms: C_2  and  O_3
REMARK    2  A    between atoms: C_2  and  C_4
REMARK    3  A    between atoms: C_7  and  C_8
REMARK    4  A    between atoms: N_10  and  C_11
REMARK    5  A    between atoms: C_16  and  C_17
REMARK                            x       y       z     vdW  Elec       q    Type
REMARK                         _______ _______ _______ _____ _____    ______ ____
ROOT
ATOM      1  C   UNL     1       8.174   8.497  18.268  0.00  0.00    +0.000 A 
ATOM      2  C   UNL     1       7.276   8.112  17.303  0.00  0.00    +0.000 A 
ATOM      3  N   UNL     1       7.189   6.746  17.426  0.00  0.00    +0.000 N 
ATOM      4  N   UNL     1       7.856   6.354  18.539  0.00  0.00    +0.000 NA
ATOM      5  N   UNL     1       8.515   7.403  19.015  0.00  0.00    +0.000 NA
ENDROOT
BRANCH   1   9
ATOM      6  C   UNL     1       9.699  12.433  18.852  0.00  0.00    +0.000 A 
ATOM      7  C   UNL     1      10.065  11.412  19.732  0.00  0.00    +0.000 A 
ATOM      8  C   UNL     1       9.567  10.122  19.556  0.00  0.00    +0.000 A 
ATOM      9  C   UNL     1       8.694   9.834  18.487  0.00  0.00    +0.000 A 
ATOM     10  C   UNL     1       8.338  10.863  17.607  0.00  0.00    +0.000 A 
ATOM     11  C   UNL     1       8.849  12.154  17.777  0.00  0.00    +0.000 A 
BRANCH   6  13
ATOM     12  O   UNL     1      10.189  14.680  18.245  0.00  0.00    +0.000 OA
ATOM     13  C   UNL     1      10.266  13.783  19.069  0.00  0.00    +0.000 C 
BRANCH  13  14
ATOM     14  O   UNL     1      10.923  13.912  20.242  0.00  0.00    +0.000 OA
ATOM     15  H   UNL     1      10.579  13.370  20.970  0.00  0.00    +0.000 HD
ENDBRANCH  13  14
ENDBRANCH   6  13
ENDBRANCH   1   9
BRANCH   3  16
ATOM     16  C   UNL     1       6.545   5.819  16.582  0.00  0.00    +0.000 A 
ATOM     17  C   UNL     1       7.300   5.324  15.517  0.00  0.00    +0.000 A 
ATOM     18  N   UNL     1       6.888   4.337  14.693  0.00  0.00    +0.000 NA
ATOM     19  C   UNL     1       5.662   3.838  14.924  0.00  0.00    +0.000 A 
ATOM     20  C   UNL     1       4.813   4.309  15.917  0.00  0.00    +0.000 A 
ATOM     21  C   UNL     1       5.221   5.351  16.775  0.00  0.00    +0.000 A 
BRANCH  21  22
ATOM     22  C   UNL     1       4.217   5.949  17.710  0.00  0.00    +0.000 A 
ATOM     23  C   UNL     1       3.835   5.311  18.906  0.00  0.00    +0.000 A 
ATOM     24  C   UNL     1       2.899   5.883  19.779  0.00  0.00    +0.000 A 
ATOM     25  C   UNL     1       2.360   7.135  19.506  0.00  0.00    +0.000 A 
ATOM     26  C   UNL     1       2.703   7.785  18.331  0.00  0.00    +0.000 A 
ATOM     27  C   UNL     1       3.567   7.168  17.423  0.00  0.00    +0.000 A 
ENDBRANCH  21  22
ENDBRANCH   3  16
TORSDOF 5
ENDMDL
MODEL 5
REMARK VINA RESULT:      -8.1      4.986      7.428
REMARK  Name = 
REMARK  5 active torsions:
REMARK  status: ('A' for Active; 'I' for Inactive)
REMARK    1  A    between atoms: C_2  and  O_3
REMARK    2  A    between atoms: C_2  and  C_4
REMARK    3  A    between atoms: C_7  and  C_8
REMARK    4  A    between atoms: N_10  and  C_11
REMARK    5  A    between atoms: C_16  and  C_17
REMARK                            x       y       z     vdW  Elec       q    Type
REMARK                         _______ _______ _______ _____ _____    ______ ____
ROOT
ATOM      1  C   UNL     1       8.142   8.581  18.191  0.00  0.00    +0.000 A 
ATOM      2  C   UNL     1       7.215   8.133  17.282  0.00  0.00    +0.000 A 
ATOM      3  N   UNL     1       7.160   6.773  17.474  0.00  0.00    +0.000 N 
ATOM      4  N   UNL     1       7.877   6.448  18.577  0.00  0.00    +0.000 NA
ATOM      5  N   UNL     1       8.534   7.530  18.976  0.00  0.00    +0.000 NA
ENDROOT
BRANCH   1   9
ATOM      6  C   UNL     1       9.603  12.569  18.527  0.00  0.00    +0.000 A 
ATOM      7  C   UNL     1      10.149  11.563  19.327  0.00  0.00    +0.000 A 
ATOM      8  C   UNL     1       9.674  10.256  19.232  0.00  0.00    +0.000 A 
ATOM      9  C   UNL     1       8.644   9.936  18.326  0.00  0.00    +0.000 A 
ATOM     10  C   UNL     1       8.108  10.950  17.523  0.00  0.00    +0.000 A 
ATOM     11  C   UNL     1       8.594  12.258  17.610  0.00  0.00    +0.000 A 
BRANCH   6  13
ATOM     12  O   UNL     1      10.707  14.346  19.658  0.00  0.00    +0.000 OA
ATOM     13  C   UNL     1      10.151  13.939  18.651  0.00  0.00    +0.000 C 
BRANCH  13  14
ATOM     14  O   UNL     1       9.929  14.711  17.565  0.00  0.00    +0.000 OA
ATOM     15  H   UNL     1      10.381  15.571  17.570  0.00  0.00    +0.000 HD
ENDBRANCH  13  14
ENDBRANCH   6  13
ENDBRANCH   1   9
BRANCH   3  16
ATOM     16  C   UNL     1       6.502   5.795  16.701  0.00  0.00    +0.000 A 
ATOM     17  C   UNL     1       7.246   5.218  15.670  0.00  0.00    +0.000 A 
ATOM     18  N   UNL     1       6.819   4.179  14.921  0.00  0.00    +0.000 NA
ATOM     19  C   UNL     1       5.589   3.711  15.193  0.00  0.00    +0.000 A 
ATOM     20  C   UNL     1       4.751   4.259  16.155  0.00  0.00    +0.000 A 
ATOM     21  C   UNL     1       5.175   5.355  16.935  0.00  0.00    +0.000 A 
BRANCH  21  22
ATOM     22  C   UNL     1       4.182   6.028  17.830  0.00  0.00    +0.000 A 
ATOM     23  C   UNL     1       3.575   7.252  17.487  0.00  0.00    +0.000 A 
ATOM     24  C   UNL     1       2.641   7.871  18.329  0.00  0.00    +0.000 A 
ATOM     25  C   UNL     1       2.247   7.256  19.512  0.00  0.00    +0.000 A 
ATOM     26  C   UNL     1       2.834   6.058  19.887  0.00  0.00    +0.000 A 
ATOM     27  C   UNL     1       3.831   5.492  19.086  0.00  0.00    +0.000 A 
ENDBRANCH  21  22
ENDBRANCH   3  16
TORSDOF 5
ENDMDL
MODEL 6
REMARK VINA RESULT:      -8.1      4.954      7.284
REMARK  Name = 
REMARK  5 active torsions:
REMARK  status: ('A' for Active; 'I' for Inactive)
REMARK    1  A    between atoms: C_2  and  O_3
REMARK    2  A    between atoms: C_2  and  C_4
REMARK    3  A    between atoms: C_7  and  C_8
REMARK    4  A    between atoms: N_10  and  C_11
REMARK    5  A    between atoms: C_16  and  C_17
REMARK                            x       y       z     vdW  Elec       q    Type
REMARK                         _______ _______ _______ _____ _____    ______ ____
ROOT
ATOM      1  C   UNL     1       8.129   8.559  18.182  0.00  0.00    +0.000 A 
ATOM      2  C   UNL     1       7.212   8.103  17.267  0.00  0.00    +0.000 A 
ATOM      3  N   UNL     1       7.158   6.744  17.468  0.00  0.00    +0.000 N 
ATOM      4  N   UNL     1       7.866   6.428  18.580  0.00  0.00    +0.000 NA
ATOM      5  N   UNL     1       8.516   7.515  18.977  0.00  0.00    +0.000 NA
ENDROOT
BRANCH   1   9
ATOM      6  C   UNL     1       9.597  12.535  18.625  0.00  0.00    +0.000 A 
ATOM      7  C   UNL     1       8.638  12.257  17.647  0.00  0.00    +0.000 A 
ATOM      8  C   UNL     1       8.156  10.959  17.488  0.00  0.00    +0.000 A 
ATOM      9  C   UNL     1       8.626   9.916  18.312  0.00  0.00    +0.000 A 
ATOM     10  C   UNL     1       9.582  10.207  19.293  0.00  0.00    +0.000 A 
ATOM     11  C   UNL     1      10.055  11.512  19.461  0.00  0.00    +0.000 A 
BRANCH   6  13
ATOM     12  O   UNL     1      10.509  14.383  19.812  0.00  0.00    +0.000 OA
ATOM     13  C   UNL     1      10.067  13.931  18.768  0.00  0.00    +0.000 C 
BRANCH  13  14
ATOM     14  O   UNL     1       9.910  14.673  17.650  0.00  0.00    +0.000 OA
ATOM     15  H   UNL     1       9.065  15.147  17.584  0.00  0.00    +0.000 HD
ENDBRANCH  13  14
ENDBRANCH   6  13
ENDBRANCH   1   9
BRANCH   3  16
ATOM     16  C   UNL     1       6.509   5.759  16.695  0.00  0.00    +0.000 A 
ATOM     17  C   UNL     1       7.265   5.177  15.675  0.00  0.00    +0.000 A 
ATOM     18  N   UNL     1       6.847   4.132  14.929  0.00  0.00    +0.000 NA
ATOM     19  C   UNL     1       5.616   3.663  15.193  0.00  0.00    +0.000 A 
ATOM     20  C   UNL     1       4.768   4.216  16.143  0.00  0.00    +0.000 A 
ATOM     21  C   UNL     1       5.182   5.318  16.919  0.00  0.00    +0.000 A 
BRANCH  21  22
ATOM     22  C   UNL     1       4.179   5.995  17.801  0.00  0.00    +0.000 A 
ATOM     23  C   UNL     1       3.776   5.447  19.033  0.00  0.00    +0.000 A 
ATOM     24  C   UNL     1       2.841   6.091  19.855  0.00  0.00    +0.000 A 
ATOM     25  C   UNL     1       2.325   7.331  19.492  0.00  0.00    +0.000 A 
ATOM     26  C   UNL     1       2.690   7.893  18.279  0.00  0.00    +0.000 A 
ATOM     27  C   UNL     1       3.552   7.201  17.424  0.00  0.00    +0.000 A 
ENDBRANCH  21  22
ENDBRANCH   3  16
TORSDOF 5
ENDMDL
MODEL 7
REMARK VINA RESULT:      -8.0      0.790      1.280
REMARK  Name = 
REMARK  5 active torsions:
REMARK  status: ('A' for Active; 'I' for Inactive)
REMARK    1  A    between atoms: C_2  and  O_3
REMARK    2  A    between atoms: C_2  and  C_4
REMARK    3  A    between atoms: C_7  and  C_8
REMARK    4  A    between atoms: N_10  and  C_11
REMARK    5  A    between atoms: C_16  and  C_17
REMARK                            x       y       z     vdW  Elec       q    Type
REMARK                         _______ _______ _______ _____ _____    ______ ____
ROOT
ATOM      1  C   UNL     1       1.900   8.618  18.954  0.00  0.00    +0.000 A 
ATOM      2  C   UNL     1       2.124   7.313  19.317  0.00  0.00    +0.000 A 
ATOM      3  N   UNL     1       2.641   6.717  18.192  0.00  0.00    +0.000 N 
ATOM      4  N   UNL     1       2.894   7.667  17.259  0.00  0.00    +0.000 NA
ATOM      5  N   UNL     1       2.381   8.813  17.689  0.00  0.00    +0.000 NA
ENDROOT
BRANCH   1   9
ATOM      6  C   UNL     1      -0.010  11.594  21.331  0.00  0.00    +0.000 A 
ATOM      7  C   UNL     1       0.539  11.944  20.095  0.00  0.00    +0.000 A 
ATOM      8  C   UNL     1       1.173  10.981  19.312  0.00  0.00    +0.000 A 
ATOM      9  C   UNL     1       1.263   9.646  19.756  0.00  0.00    +0.000 A 
ATOM     10  C   UNL     1       0.704   9.305  20.993  0.00  0.00    +0.000 A 
ATOM     11  C   UNL     1       0.056  10.269  21.773  0.00  0.00    +0.000 A 
BRANCH   6  13
ATOM     12  O   UNL     1      -0.981  12.515  23.298  0.00  0.00    +0.000 OA
ATOM     13  C   UNL     1      -0.687  12.648  22.121  0.00  0.00    +0.000 C 
BRANCH  13  14
ATOM     14  O   UNL     1      -0.999  13.748  21.401  0.00  0.00    +0.000 OA
ATOM     15  H   UNL     1      -0.249  14.179  20.961  0.00  0.00    +0.000 HD
ENDBRANCH  13  14
ENDBRANCH   6  13
ENDBRANCH   1   9
BRANCH   3  16
ATOM     16  C   UNL     1       2.893   5.351  17.948  0.00  0.00    +0.000 A 
ATOM     17  C   UNL     1       1.777   4.512  17.917  0.00  0.00    +0.000 A 
ATOM     18  N   UNL     1       1.822   3.209  17.569  0.00  0.00    +0.000 NA
ATOM     19  C   UNL     1       3.032   2.713  17.263  0.00  0.00    +0.000 A 
ATOM     20  C   UNL     1       4.206   3.451  17.327  0.00  0.00    +0.000 A 
ATOM     21  C   UNL     1       4.180   4.809  17.705  0.00  0.00    +0.000 A 
BRANCH  21  22
ATOM     22  C   UNL     1       5.478   5.518  17.936  0.00  0.00    +0.000 A 
ATOM     23  C   UNL     1       5.944   6.526  17.070  0.00  0.00    +0.000 A 
ATOM     24  C   UNL     1       7.158   7.189  17.298  0.00  0.00    +0.000 A 
ATOM     25  C   UNL     1       7.912   6.901  18.430  0.00  0.00    +0.000 A 
ATOM     26  C   UNL     1       7.490   5.905  19.296  0.00  0.00    +0.000 A 
ATOM     27  C   UNL     1       6.325   5.186  19.013  0.00  0.00    +0.000 A 
ENDBRANCH  21  22
ENDBRANCH   3  16
TORSDOF 5
ENDMDL
MODEL 8
REMARK VINA RESULT:      -7.9      0.886      1.428
REMARK  Name = 
REMARK  5 active torsions:
REMARK  status: ('A' for Active; 'I' for Inactive)
REMARK    1  A    between atoms: C_2  and  O_3
REMARK    2  A    between atoms: C_2  and  C_4
REMARK    3  A    between atoms: C_7  and  C_8
REMARK    4  A    between atoms: N_10  and  C_11
REMARK    5  A    between atoms: C_16  and  C_17
REMARK                            x       y       z     vdW  Elec       q    Type
REMARK                         _______ _______ _______ _____ _____    ______ ____
ROOT
ATOM      1  C   UNL     1       1.846   8.747  18.857  0.00  0.00    +0.000 A 
ATOM      2  C   UNL     1       2.084   7.454  19.252  0.00  0.00    +0.000 A 
ATOM      3  N   UNL     1       2.585   6.830  18.134  0.00  0.00    +0.000 N 
ATOM      4  N   UNL     1       2.816   7.755  17.171  0.00  0.00    +0.000 NA
ATOM      5  N   UNL     1       2.304   8.910  17.578  0.00  0.00    +0.000 NA
ENDROOT
BRANCH   1   9
ATOM      6  C   UNL     1       0.039  11.862  21.135  0.00  0.00    +0.000 A 
ATOM      7  C   UNL     1       0.071  10.561  21.645  0.00  0.00    +0.000 A 
ATOM      8  C   UNL     1       0.653   9.533  20.906  0.00  0.00    +0.000 A 
ATOM      9  C   UNL     1       1.218   9.794  19.641  0.00  0.00    +0.000 A 
ATOM     10  C   UNL     1       1.186  11.101  19.142  0.00  0.00    +0.000 A 
ATOM     11  C   UNL     1       0.614  12.136  19.891  0.00  0.00    +0.000 A 
BRANCH   6  13
ATOM     12  O   UNL     1      -0.339  13.063  23.153  0.00  0.00    +0.000 OA
ATOM     13  C   UNL     1      -0.574  12.924  21.964  0.00  0.00    +0.000 C 
BRANCH  13  14
ATOM     14  O   UNL     1      -1.460  13.691  21.291  0.00  0.00    +0.000 OA
ATOM     15  H   UNL     1      -1.234  13.867  20.364  0.00  0.00    +0.000 HD
ENDBRANCH  13  14
ENDBRANCH   6  13
ENDBRANCH   1   9
BRANCH   3  16
ATOM     16  C   UNL     1       2.841   5.459  17.924  0.00  0.00    +0.000 A 
ATOM     17  C   UNL     1       1.724   4.621  17.884  0.00  0.00    +0.000 A 
ATOM     18  N   UNL     1       1.775   3.311  17.563  0.00  0.00    +0.000 NA
ATOM     19  C   UNL     1       2.992   2.807  17.296  0.00  0.00    +0.000 A 
ATOM     20  C   UNL     1       4.165   3.546  17.373  0.00  0.00    +0.000 A 
ATOM     21  C   UNL     1       4.132   4.911  17.723  0.00  0.00    +0.000 A 
BRANCH  21  22
ATOM     22  C   UNL     1       5.425   5.623  17.970  0.00  0.00    +0.000 A 
ATOM     23  C   UNL     1       6.267   5.293  19.049  0.00  0.00    +0.000 A 
ATOM     24  C   UNL     1       7.480   5.960  19.268  0.00  0.00    +0.000 A 
ATOM     25  C   UNL     1       7.911   6.940  18.381  0.00  0.00    +0.000 A 
ATOM     26  C   UNL     1       7.101   7.300  17.315  0.00  0.00    +0.000 A 
ATOM     27  C   UNL     1       5.852   6.693  17.156  0.00  0.00    +0.000 A 
ENDBRANCH  21  22
ENDBRANCH   3  16
TORSDOF 5
ENDMDL
MODEL 9
REMARK VINA RESULT:      -7.9      4.328      8.619
REMARK  Name = 
REMARK  5 active torsions:
REMARK  status: ('A' for Active; 'I' for Inactive)
REMARK    1  A    between atoms: C_2  and  O_3
REMARK    2  A    between atoms: C_2  and  C_4
REMARK    3  A    between atoms: C_7  and  C_8
REMARK    4  A    between atoms: N_10  and  C_11
REMARK    5  A    between atoms: C_16  and  C_17
REMARK                            x       y       z     vdW  Elec       q    Type
REMARK                         _______ _______ _______ _____ _____    ______ ____
ROOT
ATOM      1  C   UNL     1       2.107   8.094  18.589  0.00  0.00    +0.000 A 
ATOM      2  C   UNL     1       1.309   8.771  19.478  0.00  0.00    +0.000 A 
ATOM      3  N   UNL     1       1.197  10.039  18.958  0.00  0.00    +0.000 N 
ATOM      4  N   UNL     1       1.743  10.063  17.718  0.00  0.00    +0.000 NA
ATOM      5  N   UNL     1       2.359   8.905  17.516  0.00  0.00    +0.000 NA
ENDROOT
BRANCH   1   9
ATOM      6  C   UNL     1       3.597   4.118  18.944  0.00  0.00    +0.000 A 
ATOM      7  C   UNL     1       2.745   4.628  19.928  0.00  0.00    +0.000 A 
ATOM      8  C   UNL     1       2.257   5.929  19.826  0.00  0.00    +0.000 A 
ATOM      9  C   UNL     1       2.614   6.742  18.731  0.00  0.00    +0.000 A 
ATOM     10  C   UNL     1       3.463   6.220  17.748  0.00  0.00    +0.000 A 
ATOM     11  C   UNL     1       3.941   4.909  17.844  0.00  0.00    +0.000 A 
BRANCH   6  13
ATOM     12  O   UNL     1       3.473   1.762  18.640  0.00  0.00    +0.000 OA
ATOM     13  C   UNL     1       4.077   2.725  19.086  0.00  0.00    +0.000 C 
BRANCH  13  14
ATOM     14  O   UNL     1       5.217   2.615  19.802  0.00  0.00    +0.000 OA
ATOM     15  H   UNL     1       5.500   3.425  20.255  0.00  0.00    +0.000 HD
ENDBRANCH  13  14
ENDBRANCH   6  13
ENDBRANCH   1   9
BRANCH   3  16
ATOM     16  C   UNL     1       0.634  11.191  19.545  0.00  0.00    +0.000 A 
ATOM     17  C   UNL     1       1.347  11.757  20.604  0.00  0.00    +0.000 A 
ATOM     18  N   UNL     1       1.024  12.929  21.190  0.00  0.00    +0.000 NA
ATOM     19  C   UNL     1      -0.070  13.552  20.720  0.00  0.00    +0.000 A 
ATOM     20  C   UNL     1      -0.878  13.036  19.715  0.00  0.00    +0.000 A 
ATOM     21  C   UNL     1      -0.564  11.805  19.103  0.00  0.00    +0.000 A 
BRANCH  21  22
ATOM     22  C   UNL     1      -1.552  11.200  18.156  0.00  0.00    +0.000 A 
ATOM     23  C   UNL     1      -2.293  10.048  18.483  0.00  0.00    +0.000 A 
ATOM     24  C   UNL     1      -3.221   9.492  17.593  0.00  0.00    +0.000 A 
ATOM     25  C   UNL     1      -3.475  10.106  16.370  0.00  0.00    +0.000 A 
ATOM     26  C   UNL     1      -2.754  11.233  16.011  0.00  0.00    +0.000 A 
ATOM     27  C   UNL     1      -1.765  11.728  16.866  0.00  0.00    +0.000 A 
ENDBRANCH  21  22
ENDBRANCH   3  16
TORSDOF 5
ENDMDL
