MODEL 1
REMARK VINA RESULT:      -6.7      0.000      0.000
REMARK  Name = 
REMARK  4 active torsions:
REMARK  status: ('A' for Active; 'I' for Inactive)
REMARK    1  A    between atoms: C_1  and  N_2
REMARK    2  A    between atoms: N_9  and  C_10
REMARK    3  A    between atoms: C_11  and  C_12
REMARK    4  A    between atoms: C_15  and  O_16
REMARK                            x       y       z     vdW  Elec       q    Type
REMARK                         _______ _______ _______ _____ _____    ______ ____
ROOT
ATOM      1  C   UNL     1       5.367   3.285  15.824  0.00  0.00    +0.000 C 
ATOM      2  N   UNL     1       4.653   3.960  16.874  0.00  0.00    +0.000 N 
ATOM      3  C   UNL     1       3.552   3.459  17.559  0.00  0.00    +0.000 A 
ATOM      4  C   UNL     1       3.198   2.141  17.788  0.00  0.00    +0.000 A 
ATOM      5  C   UNL     1       2.110   1.876  18.625  0.00  0.00    +0.000 A 
ATOM      6  C   UNL     1       1.394   2.925  19.217  0.00  0.00    +0.000 A 
ATOM      7  C   UNL     1       1.740   4.254  18.963  0.00  0.00    +0.000 A 
ATOM      8  C   UNL     1       2.814   4.511  18.131  0.00  0.00    +0.000 A 
ATOM      9  N   UNL     1       3.344   5.722  17.740  0.00  0.00    +0.000 N 
ATOM     10  C   UNL     1       2.936   7.047  18.112  0.00  0.00    +0.000 C 
ATOM     11  C   UNL     1       4.494   5.422  16.882  0.00  0.00    +0.000 C 
ENDROOT
BRANCH  11  12
ATOM     12  C   UNL     1       5.753   6.075  17.430  0.00  0.00    +0.000 A 
ATOM     13  C   UNL     1       6.442   5.496  18.512  0.00  0.00    +0.000 A 
ATOM     14  C   UNL     1       7.556   6.119  19.071  0.00  0.00    +0.000 A 
ATOM     15  C   UNL     1       7.992   7.327  18.543  0.00  0.00    +0.000 A 
ATOM     16  C   UNL     1       7.342   7.911  17.460  0.00  0.00    +0.000 A 
ATOM     17  C   UNL     1       6.223   7.288  16.903  0.00  0.00    +0.000 A 
BRANCH  15  18
ATOM     18  O   UNL     1       9.061   7.983  19.074  0.00  0.00    +0.000 OA
ATOM     19  H   UNL     1       9.733   8.088  18.379  0.00  0.00    +0.000 HD
ENDBRANCH  15  18
ENDBRANCH  11  12
TORSDOF 2
ENDMDL
MODEL 2
REMARK VINA RESULT:      -6.6      2.765      5.821
REMARK  Name = 
REMARK  4 active torsions:
REMARK  status: ('A' for Active; 'I' for Inactive)
REMARK    1  A    between atoms: C_1  and  N_2
REMARK    2  A    between atoms: N_9  and  C_10
REMARK    3  A    between atoms: C_11  and  C_12
REMARK    4  A    between atoms: C_15  and  O_16
REMARK                            x       y       z     vdW  Elec       q    Type
REMARK                         _______ _______ _______ _____ _____    ______ ____
ROOT
ATOM      1  C   UNL     1       2.669   7.400  18.099  0.00  0.00    +0.000 C 
ATOM      2  N   UNL     1       3.511   6.236  18.032  0.00  0.00    +0.000 N 
ATOM      3  C   UNL     1       4.826   6.211  17.583  0.00  0.00    +0.000 A 
ATOM      4  C   UNL     1       5.763   7.229  17.580  0.00  0.00    +0.000 A 
ATOM      5  C   UNL     1       7.074   6.932  17.199  0.00  0.00    +0.000 A 
ATOM      6  C   UNL     1       7.430   5.629  16.828  0.00  0.00    +0.000 A 
ATOM      7  C   UNL     1       6.476   4.609  16.808  0.00  0.00    +0.000 A 
ATOM      8  C   UNL     1       5.178   4.910  17.181  0.00  0.00    +0.000 A 
ATOM      9  N   UNL     1       4.076   4.084  17.248  0.00  0.00    +0.000 N 
ATOM     10  C   UNL     1       3.984   2.679  16.969  0.00  0.00    +0.000 C 
ATOM     11  C   UNL     1       2.963   4.904  17.734  0.00  0.00    +0.000 C 
ENDROOT
BRANCH  11  12
ATOM     12  C   UNL     1       2.365   4.299  18.994  0.00  0.00    +0.000 A 
ATOM     13  C   UNL     1       2.987   4.491  20.242  0.00  0.00    +0.000 A 
ATOM     14  C   UNL     1       2.491   3.884  21.393  0.00  0.00    +0.000 A 
ATOM     15  C   UNL     1       1.360   3.083  21.303  0.00  0.00    +0.000 A 
ATOM     16  C   UNL     1       0.714   2.892  20.085  0.00  0.00    +0.000 A 
ATOM     17  C   UNL     1       1.214   3.498  18.931  0.00  0.00    +0.000 A 
BRANCH  15  18
ATOM     18  O   UNL     1       0.856   2.450  22.399  0.00  0.00    +0.000 OA
ATOM     19  H   UNL     1       1.553   1.884  22.773  0.00  0.00    +0.000 HD
ENDBRANCH  15  18
ENDBRANCH  11  12
TORSDOF 2
ENDMDL
MODEL 3
REMARK VINA RESULT:      -6.5      2.601      4.859
REMARK  Name = 
REMARK  4 active torsions:
REMARK  status: ('A' for Active; 'I' for Inactive)
REMARK    1  A    between atoms: C_1  and  N_2
REMARK    2  A    between atoms: N_9  and  C_10
REMARK    3  A    between atoms: C_11  and  C_12
REMARK    4  A    between atoms: C_15  and  O_16
REMARK                            x       y       z     vdW  Elec       q    Type
REMARK                         _______ _______ _______ _____ _____    ______ ____
ROOT
ATOM      1  C   UNL     1       2.715   3.091  16.950  0.00  0.00    +0.000 C 
ATOM      2  N   UNL     1       3.799   4.019  17.120  0.00  0.00    +0.000 N 
ATOM      3  C   UNL     1       4.912   4.127  16.294  0.00  0.00    +0.000 A 
ATOM      4  C   UNL     1       5.035   3.802  14.955  0.00  0.00    +0.000 A 
ATOM      5  C   UNL     1       6.223   4.124  14.293  0.00  0.00    +0.000 A 
ATOM      6  C   UNL     1       7.268   4.761  14.976  0.00  0.00    +0.000 A 
ATOM      7  C   UNL     1       7.150   5.065  16.334  0.00  0.00    +0.000 A 
ATOM      8  C   UNL     1       5.973   4.740  16.985  0.00  0.00    +0.000 A 
ATOM      9  N   UNL     1       5.621   4.940  18.302  0.00  0.00    +0.000 N 
ATOM     10  C   UNL     1       6.375   5.565  19.352  0.00  0.00    +0.000 C 
ATOM     11  C   UNL     1       4.252   4.440  18.455  0.00  0.00    +0.000 C 
ENDROOT
BRANCH  11  12
ATOM     12  C   UNL     1       3.341   5.534  18.988  0.00  0.00    +0.000 A 
ATOM     13  C   UNL     1       3.181   6.738  18.276  0.00  0.00    +0.000 A 
ATOM     14  C   UNL     1       2.405   7.776  18.787  0.00  0.00    +0.000 A 
ATOM     15  C   UNL     1       1.777   7.613  20.014  0.00  0.00    +0.000 A 
ATOM     16  C   UNL     1       1.902   6.425  20.729  0.00  0.00    +0.000 A 
ATOM     17  C   UNL     1       2.682   5.385  20.219  0.00  0.00    +0.000 A 
BRANCH  15  18
ATOM     18  O   UNL     1       1.030   8.612  20.562  0.00  0.00    +0.000 OA
ATOM     19  H   UNL     1       0.903   9.303  19.890  0.00  0.00    +0.000 HD
ENDBRANCH  15  18
ENDBRANCH  11  12
TORSDOF 2
ENDMDL
MODEL 4
REMARK VINA RESULT:      -6.5      0.484      1.233
REMARK  Name = 
REMARK  4 active torsions:
REMARK  status: ('A' for Active; 'I' for Inactive)
REMARK    1  A    between atoms: C_1  and  N_2
REMARK    2  A    between atoms: N_9  and  C_10
REMARK    3  A    between atoms: C_11  and  C_12
REMARK    4  A    between atoms: C_15  and  O_16
REMARK                            x       y       z     vdW  Elec       q    Type
REMARK                         _______ _______ _______ _____ _____    ______ ____
ROOT
ATOM      1  C   UNL     1       4.986   3.052  16.154  0.00  0.00    +0.000 C 
ATOM      2  N   UNL     1       4.267   3.773  17.168  0.00  0.00    +0.000 N 
ATOM      3  C   UNL     1       3.147   3.312  17.851  0.00  0.00    +0.000 A 
ATOM      4  C   UNL     1       2.768   2.009  18.119  0.00  0.00    +0.000 A 
ATOM      5  C   UNL     1       1.663   1.789  18.946  0.00  0.00    +0.000 A 
ATOM      6  C   UNL     1       0.955   2.868  19.491  0.00  0.00    +0.000 A 
ATOM      7  C   UNL     1       1.326   4.183  19.198  0.00  0.00    +0.000 A 
ATOM      8  C   UNL     1       2.418   4.395  18.375  0.00  0.00    +0.000 A 
ATOM      9  N   UNL     1       2.973   5.583  17.952  0.00  0.00    +0.000 N 
ATOM     10  C   UNL     1       2.580   6.926  18.273  0.00  0.00    +0.000 C 
ATOM     11  C   UNL     1       4.132   5.237  17.124  0.00  0.00    +0.000 C 
ENDROOT
BRANCH  11  12
ATOM     12  C   UNL     1       5.392   5.888  17.671  0.00  0.00    +0.000 A 
ATOM     13  C   UNL     1       5.987   6.969  16.992  0.00  0.00    +0.000 A 
ATOM     14  C   UNL     1       7.180   7.529  17.442  0.00  0.00    +0.000 A 
ATOM     15  C   UNL     1       7.784   7.014  18.582  0.00  0.00    +0.000 A 
ATOM     16  C   UNL     1       7.206   5.960  19.283  0.00  0.00    +0.000 A 
ATOM     17  C   UNL     1       6.012   5.395  18.829  0.00  0.00    +0.000 A 
BRANCH  15  18
ATOM     18  O   UNL     1       8.964   7.516  19.042  0.00  0.00    +0.000 OA
ATOM     19  H   UNL     1       9.670   6.881  18.830  0.00  0.00    +0.000 HD
ENDBRANCH  15  18
ENDBRANCH  11  12
TORSDOF 2
ENDMDL
MODEL 5
REMARK VINA RESULT:      -6.4      2.629      4.782
REMARK  Name = 
REMARK  4 active torsions:
REMARK  status: ('A' for Active; 'I' for Inactive)
REMARK    1  A    between atoms: C_1  and  N_2
REMARK    2  A    between atoms: N_9  and  C_10
REMARK    3  A    between atoms: C_11  and  C_12
REMARK    4  A    between atoms: C_15  and  O_16
REMARK                            x       y       z     vdW  Elec       q    Type
REMARK                         _______ _______ _______ _____ _____    ______ ____
ROOT
ATOM      1  C   UNL     1       2.732   3.056  17.065  0.00  0.00    +0.000 C 
ATOM      2  N   UNL     1       3.821   3.981  17.223  0.00  0.00    +0.000 N 
ATOM      3  C   UNL     1       4.895   4.126  16.352  0.00  0.00    +0.000 A 
ATOM      4  C   UNL     1       4.957   3.857  14.997  0.00  0.00    +0.000 A 
ATOM      5  C   UNL     1       6.114   4.210  14.296  0.00  0.00    +0.000 A 
ATOM      6  C   UNL     1       7.187   4.824  14.955  0.00  0.00    +0.000 A 
ATOM      7  C   UNL     1       7.130   5.072  16.329  0.00  0.00    +0.000 A 
ATOM      8  C   UNL     1       5.985   4.715  17.019  0.00  0.00    +0.000 A 
ATOM      9  N   UNL     1       5.693   4.861  18.358  0.00  0.00    +0.000 N 
ATOM     10  C   UNL     1       6.493   5.446  19.396  0.00  0.00    +0.000 C 
ATOM     11  C   UNL     1       4.333   4.350  18.552  0.00  0.00    +0.000 C 
ENDROOT
BRANCH  11  12
ATOM     12  C   UNL     1       3.445   5.417  19.169  0.00  0.00    +0.000 A 
ATOM     13  C   UNL     1       2.732   5.152  20.354  0.00  0.00    +0.000 A 
ATOM     14  C   UNL     1       1.860   6.095  20.893  0.00  0.00    +0.000 A 
ATOM     15  C   UNL     1       1.699   7.315  20.250  0.00  0.00    +0.000 A 
ATOM     16  C   UNL     1       2.407   7.610  19.088  0.00  0.00    +0.000 A 
ATOM     17  C   UNL     1       3.278   6.664  18.546  0.00  0.00    +0.000 A 
BRANCH  15  18
ATOM     18  O   UNL     1       0.837   8.256  20.729  0.00  0.00    +0.000 OA
ATOM     19  H   UNL     1       1.006   8.370  21.679  0.00  0.00    +0.000 HD
ENDBRANCH  15  18
ENDBRANCH  11  12
TORSDOF 2
ENDMDL
MODEL 6
REMARK VINA RESULT:      -6.4      2.769      5.837
REMARK  Name = 
REMARK  4 active torsions:
REMARK  status: ('A' for Active; 'I' for Inactive)
REMARK    1  A    between atoms: C_1  and  N_2
REMARK    2  A    between atoms: N_9  and  C_10
REMARK    3  A    between atoms: C_11  and  C_12
REMARK    4  A    between atoms: C_15  and  O_16
REMARK                            x       y       z     vdW  Elec       q    Type
REMARK                         _______ _______ _______ _____ _____    ______ ____
ROOT
ATOM      1  C   UNL     1       2.765   7.247  18.196  0.00  0.00    +0.000 C 
ATOM      2  N   UNL     1       3.582   6.075  18.027  0.00  0.00    +0.000 N 
ATOM      3  C   UNL     1       4.874   6.054  17.515  0.00  0.00    +0.000 A 
ATOM      4  C   UNL     1       5.828   7.056  17.523  0.00  0.00    +0.000 A 
ATOM      5  C   UNL     1       7.114   6.759  17.064  0.00  0.00    +0.000 A 
ATOM      6  C   UNL     1       7.429   5.473  16.607  0.00  0.00    +0.000 A 
ATOM      7  C   UNL     1       6.456   4.471  16.578  0.00  0.00    +0.000 A 
ATOM      8  C   UNL     1       5.183   4.771  17.028  0.00  0.00    +0.000 A 
ATOM      9  N   UNL     1       4.070   3.961  17.102  0.00  0.00    +0.000 N 
ATOM     10  C   UNL     1       3.940   2.574  16.753  0.00  0.00    +0.000 C 
ATOM     11  C   UNL     1       2.996   4.770  17.685  0.00  0.00    +0.000 C 
ENDROOT
BRANCH  11  12
ATOM     12  C   UNL     1       2.446   4.106  18.937  0.00  0.00    +0.000 A 
ATOM     13  C   UNL     1       1.187   3.478  18.916  0.00  0.00    +0.000 A 
ATOM     14  C   UNL     1       0.640   2.928  20.073  0.00  0.00    +0.000 A 
ATOM     15  C   UNL     1       1.355   2.998  21.261  0.00  0.00    +0.000 A 
ATOM     16  C   UNL     1       2.611   3.595  21.305  0.00  0.00    +0.000 A 
ATOM     17  C   UNL     1       3.158   4.150  20.146  0.00  0.00    +0.000 A 
BRANCH  15  18
ATOM     18  O   UNL     1       0.846   2.495  22.420  0.00  0.00    +0.000 OA
ATOM     19  H   UNL     1       0.034   2.985  22.636  0.00  0.00    +0.000 HD
ENDBRANCH  15  18
ENDBRANCH  11  12
TORSDOF 2
ENDMDL
MODEL 7
REMARK VINA RESULT:      -6.1      2.508      4.712
REMARK  Name = 
REMARK  4 active torsions:
REMARK  status: ('A' for Active; 'I' for Inactive)
REMARK    1  A    between atoms: C_1  and  N_2
REMARK    2  A    between atoms: N_9  and  C_10
REMARK    3  A    between atoms: C_11  and  C_12
REMARK    4  A    between atoms: C_15  and  O_16
REMARK                            x       y       z     vdW  Elec       q    Type
REMARK                         _______ _______ _______ _____ _____    ______ ____
ROOT
ATOM      1  C   UNL     1       3.096   3.288  16.985  0.00  0.00    +0.000 C 
ATOM      2  N   UNL     1       4.129   4.276  16.836  0.00  0.00    +0.000 N 
ATOM      3  C   UNL     1       5.127   4.268  15.868  0.00  0.00    +0.000 A 
ATOM      4  C   UNL     1       5.112   3.694  14.610  0.00  0.00    +0.000 A 
ATOM      5  C   UNL     1       6.190   3.931  13.752  0.00  0.00    +0.000 A 
ATOM      6  C   UNL     1       7.264   4.733  14.162  0.00  0.00    +0.000 A 
ATOM      7  C   UNL     1       7.286   5.290  15.443  0.00  0.00    +0.000 A 
ATOM      8  C   UNL     1       6.219   5.049  16.289  0.00  0.00    +0.000 A 
ATOM      9  N   UNL     1       6.013   5.487  17.579  0.00  0.00    +0.000 N 
ATOM     10  C   UNL     1       6.843   6.336  18.387  0.00  0.00    +0.000 C 
ATOM     11  C   UNL     1       4.708   4.968  17.998  0.00  0.00    +0.000 C 
ENDROOT
BRANCH  11  12
ATOM     12  C   UNL     1       3.795   6.105  18.429  0.00  0.00    +0.000 A 
ATOM     13  C   UNL     1       3.093   6.033  19.647  0.00  0.00    +0.000 A 
ATOM     14  C   UNL     1       2.200   7.034  20.021  0.00  0.00    +0.000 A 
ATOM     15  C   UNL     1       2.006   8.120  19.178  0.00  0.00    +0.000 A 
ATOM     16  C   UNL     1       2.702   8.226  17.977  0.00  0.00    +0.000 A 
ATOM     17  C   UNL     1       3.595   7.221  17.601  0.00  0.00    +0.000 A 
BRANCH  15  18
ATOM     18  O   UNL     1       1.123   9.108  19.493  0.00  0.00    +0.000 OA
ATOM     19  H   UNL     1       0.920   9.607  18.684  0.00  0.00    +0.000 HD
ENDBRANCH  15  18
ENDBRANCH  11  12
TORSDOF 2
ENDMDL
MODEL 8
REMARK VINA RESULT:      -6.1      2.100      2.858
REMARK  Name = 
REMARK  4 active torsions:
REMARK  status: ('A' for Active; 'I' for Inactive)
REMARK    1  A    between atoms: C_1  and  N_2
REMARK    2  A    between atoms: N_9  and  C_10
REMARK    3  A    between atoms: C_11  and  C_12
REMARK    4  A    between atoms: C_15  and  O_16
REMARK                            x       y       z     vdW  Elec       q    Type
REMARK                         _______ _______ _______ _____ _____    ______ ____
ROOT
ATOM      1  C   UNL     1       3.553   1.375  17.687  0.00  0.00    +0.000 C 
ATOM      2  N   UNL     1       3.496   2.719  18.194  0.00  0.00    +0.000 N 
ATOM      3  C   UNL     1       2.990   3.099  19.432  0.00  0.00    +0.000 A 
ATOM      4  C   UNL     1       2.906   2.360  20.599  0.00  0.00    +0.000 A 
ATOM      5  C   UNL     1       2.479   3.000  21.767  0.00  0.00    +0.000 A 
ATOM      6  C   UNL     1       2.144   4.360  21.753  0.00  0.00    +0.000 A 
ATOM      7  C   UNL     1       2.208   5.096  20.567  0.00  0.00    +0.000 A 
ATOM      8  C   UNL     1       2.626   4.458  19.413  0.00  0.00    +0.000 A 
ATOM      9  N   UNL     1       2.774   4.965  18.140  0.00  0.00    +0.000 N 
ATOM     10  C   UNL     1       2.556   6.305  17.673  0.00  0.00    +0.000 C 
ATOM     11  C   UNL     1       3.276   3.870  17.305  0.00  0.00    +0.000 C 
ENDROOT
BRANCH  11  12
ATOM     12  C   UNL     1       4.584   4.265  16.638  0.00  0.00    +0.000 A 
ATOM     13  C   UNL     1       5.712   4.586  17.417  0.00  0.00    +0.000 A 
ATOM     14  C   UNL     1       6.895   5.017  16.822  0.00  0.00    +0.000 A 
ATOM     15  C   UNL     1       6.960   5.124  15.439  0.00  0.00    +0.000 A 
ATOM     16  C   UNL     1       5.866   4.792  14.645  0.00  0.00    +0.000 A 
ATOM     17  C   UNL     1       4.678   4.364  15.241  0.00  0.00    +0.000 A 
BRANCH  15  18
ATOM     18  O   UNL     1       8.089   5.565  14.818  0.00  0.00    +0.000 OA
ATOM     19  H   UNL     1       8.708   4.818  14.741  0.00  0.00    +0.000 HD
ENDBRANCH  15  18
ENDBRANCH  11  12
TORSDOF 2
ENDMDL
MODEL 9
REMARK VINA RESULT:      -5.9      2.068      2.964
REMARK  Name = 
REMARK  4 active torsions:
REMARK  status: ('A' for Active; 'I' for Inactive)
REMARK    1  A    between atoms: C_1  and  N_2
REMARK    2  A    between atoms: N_9  and  C_10
REMARK    3  A    between atoms: C_11  and  C_12
REMARK    4  A    between atoms: C_15  and  O_16
REMARK                            x       y       z     vdW  Elec       q    Type
REMARK                         _______ _______ _______ _____ _____    ______ ____
ROOT
ATOM      1  C   UNL     1       3.508   1.507  17.583  0.00  0.00    +0.000 C 
ATOM      2  N   UNL     1       3.450   2.828  18.146  0.00  0.00    +0.000 N 
ATOM      3  C   UNL     1       2.959   3.153  19.406  0.00  0.00    +0.000 A 
ATOM      4  C   UNL     1       2.896   2.366  20.542  0.00  0.00    +0.000 A 
ATOM      5  C   UNL     1       2.482   2.953  21.741  0.00  0.00    +0.000 A 
ATOM      6  C   UNL     1       2.139   4.310  21.789  0.00  0.00    +0.000 A 
ATOM      7  C   UNL     1       2.182   5.096  20.633  0.00  0.00    +0.000 A 
ATOM      8  C   UNL     1       2.587   4.508  19.448  0.00  0.00    +0.000 A 
ATOM      9  N   UNL     1       2.714   5.069  18.196  0.00  0.00    +0.000 N 
ATOM     10  C   UNL     1       2.482   6.426  17.788  0.00  0.00    +0.000 C 
ATOM     11  C   UNL     1       3.211   4.014  17.309  0.00  0.00    +0.000 C 
ENDROOT
BRANCH  11  12
ATOM     12  C   UNL     1       4.507   4.444  16.641  0.00  0.00    +0.000 A 
ATOM     13  C   UNL     1       4.623   4.432  15.238  0.00  0.00    +0.000 A 
ATOM     14  C   UNL     1       5.827   4.756  14.615  0.00  0.00    +0.000 A 
ATOM     15  C   UNL     1       6.923   5.100  15.395  0.00  0.00    +0.000 A 
ATOM     16  C   UNL     1       6.828   5.140  16.783  0.00  0.00    +0.000 A 
ATOM     17  C   UNL     1       5.623   4.812  17.408  0.00  0.00    +0.000 A 
BRANCH  15  18
ATOM     18  O   UNL     1       8.125   5.399  14.828  0.00  0.00    +0.000 OA
ATOM     19  H   UNL     1       8.687   5.814  15.504  0.00  0.00    +0.000 HD
ENDBRANCH  15  18
ENDBRANCH  11  12
TORSDOF 2
ENDMDL
