MODEL 1
REMARK VINA RESULT:      -7.8      0.000      0.000
REMARK  Name = 
REMARK  10 active torsions:
REMARK  status: ('A' for Active; 'I' for Inactive)
REMARK    1  A    between atoms: C_1  and  O_2
REMARK    2  A    between atoms: O_2  and  C_3
REMARK    3  A    between atoms: C_6  and  C_7
REMARK    4  A    between atoms: C_10  and  C_11
REMARK    5  A    between atoms: C_11  and  O_12
REMARK    6  A    between atoms: O_12  and  C_13
REMARK    7  A    between atoms: C_15  and  C_16
REMARK    8  A    between atoms: C_19  and  C_20
REMARK    9  A    between atoms: C_24  and  O_25
REMARK   10  A    between atoms: O_25  and  C_26
REMARK                            x       y       z     vdW  Elec       q    Type
REMARK                         _______ _______ _______ _____ _____    ______ ____
ROOT
ATOM      1  C   UNL     1       2.503   6.710  19.172  0.00  0.00    +0.000 A 
ATOM      2  N   UNL     1       2.083   6.216  20.348  0.00  0.00    +0.000 NA
ATOM      3  O   UNL     1       1.414   7.284  20.937  0.00  0.00    +0.000 OA
ATOM      4  C   UNL     1       1.478   8.317  20.054  0.00  0.00    +0.000 A 
ATOM      5  N   UNL     1       2.141   8.024  18.956  0.00  0.00    +0.000 NA
ENDROOT
BRANCH   1   9
ATOM      6  C   UNL     1       5.019   4.453  16.561  0.00  0.00    +0.000 A 
ATOM      7  C   UNL     1       5.016   5.858  16.515  0.00  0.00    +0.000 A 
ATOM      8  C   UNL     1       4.175   6.602  17.347  0.00  0.00    +0.000 A 
ATOM      9  C   UNL     1       3.303   5.953  18.220  0.00  0.00    +0.000 A 
ATOM     10  C   UNL     1       3.226   4.555  18.182  0.00  0.00    +0.000 A 
ATOM     11  C   UNL     1       4.064   3.795  17.352  0.00  0.00    +0.000 A 
BRANCH   6  13
ATOM     12  C   UNL     1       6.681   4.504  14.891  0.00  0.00    +0.000 C 
ATOM     13  O   UNL     1       5.920   3.736  15.826  0.00  0.00    +0.000 OA
ENDBRANCH   6  13
BRANCH  11  14
ATOM     14  O   UNL     1       3.819   2.456  17.480  0.00  0.00    +0.000 OA
ATOM     15  C   UNL     1       3.013   1.996  18.551  0.00  0.00    +0.000 C 
ENDBRANCH  11  14
ENDBRANCH   1   9
BRANCH   4  16
ATOM     16  C   UNL     1       0.784   9.565  20.439  0.00  0.00    +0.000 C 
BRANCH  16  17
ATOM     17  O   UNL     1       0.663  10.354  19.257  0.00  0.00    +0.000 OA
BRANCH  17  18
ATOM     18  C   UNL     1      -0.609  10.731  18.914  0.00  0.00    +0.000 A 
ATOM     19  C   UNL     1      -1.092  10.163  17.737  0.00  0.00    +0.000 A 
ATOM     20  C   UNL     1      -2.382  10.447  17.268  0.00  0.00    +0.000 A 
ATOM     21  C   UNL     1      -2.812   9.842  15.958  0.00  0.00    +0.000 C 
ATOM     22  C   UNL     1      -3.213  11.295  18.025  0.00  0.00    +0.000 A 
ATOM     23 BR   UNL     1      -4.993  11.638  17.417  0.00  0.00    +0.000 Br
ATOM     24  C   UNL     1      -2.741  11.877  19.219  0.00  0.00    +0.000 A 
ATOM     25  C   UNL     1      -3.531  12.831  20.079  0.00  0.00    +0.000 C 
ATOM     26  C   UNL     1      -1.430  11.579  19.651  0.00  0.00    +0.000 A 
ENDBRANCH  17  18
ENDBRANCH  16  17
ENDBRANCH   4  16
TORSDOF 6
ENDMDL
MODEL 2
REMARK VINA RESULT:      -7.8      5.791      8.712
REMARK  Name = 
REMARK  10 active torsions:
REMARK  status: ('A' for Active; 'I' for Inactive)
REMARK    1  A    between atoms: C_1  and  O_2
REMARK    2  A    between atoms: O_2  and  C_3
REMARK    3  A    between atoms: C_6  and  C_7
REMARK    4  A    between atoms: C_10  and  C_11
REMARK    5  A    between atoms: C_11  and  O_12
REMARK    6  A    between atoms: O_12  and  C_13
REMARK    7  A    between atoms: C_15  and  C_16
REMARK    8  A    between atoms: C_19  and  C_20
REMARK    9  A    between atoms: C_24  and  O_25
REMARK   10  A    between atoms: O_25  and  C_26
REMARK                            x       y       z     vdW  Elec       q    Type
REMARK                         _______ _______ _______ _____ _____    ______ ____
ROOT
ATOM      1  C   UNL     1       8.201   8.427  18.138  0.00  0.00    +0.000 A 
ATOM      2  N   UNL     1       8.495   7.426  18.984  0.00  0.00    +0.000 NA
ATOM      3  O   UNL     1       7.884   6.316  18.410  0.00  0.00    +0.000 OA
ATOM      4  C   UNL     1       7.292   6.747  17.264  0.00  0.00    +0.000 A 
ATOM      5  N   UNL     1       7.449   8.036  17.049  0.00  0.00    +0.000 NA
ENDROOT
BRANCH   1   9
ATOM      6  C   UNL     1       9.152  12.518  18.910  0.00  0.00    +0.000 A 
ATOM      7  C   UNL     1       8.623  12.128  17.667  0.00  0.00    +0.000 A 
ATOM      8  C   UNL     1       8.335  10.788  17.398  0.00  0.00    +0.000 A 
ATOM      9  C   UNL     1       8.598   9.810  18.357  0.00  0.00    +0.000 A 
ATOM     10  C   UNL     1       9.230  10.187  19.549  0.00  0.00    +0.000 A 
ATOM     11  C   UNL     1       9.524  11.529  19.833  0.00  0.00    +0.000 A 
BRANCH   6  13
ATOM     12  C   UNL     1       9.181  14.730  18.097  0.00  0.00    +0.000 C 
ATOM     13  O   UNL     1       9.327  13.841  19.207  0.00  0.00    +0.000 OA
ENDBRANCH   6  13
BRANCH  11  14
ATOM     14  O   UNL     1      10.136  11.664  21.049  0.00  0.00    +0.000 OA
ATOM     15  C   UNL     1       9.448  12.312  22.104  0.00  0.00    +0.000 C 
ENDBRANCH  11  14
ENDBRANCH   1   9
BRANCH   4  16
ATOM     16  C   UNL     1       6.612   5.724  16.440  0.00  0.00    +0.000 C 
BRANCH  16  17
ATOM     17  O   UNL     1       5.255   6.138  16.300  0.00  0.00    +0.000 OA
BRANCH  17  18
ATOM     18  C   UNL     1       4.351   5.525  17.126  0.00  0.00    +0.000 A 
ATOM     19  C   UNL     1       3.730   6.367  18.045  0.00  0.00    +0.000 A 
ATOM     20  C   UNL     1       2.773   5.880  18.947  0.00  0.00    +0.000 A 
ATOM     21  C   UNL     1       2.189   6.840  19.950  0.00  0.00    +0.000 C 
ATOM     22  C   UNL     1       2.411   4.521  18.892  0.00  0.00    +0.000 A 
ATOM     23 BR   UNL     1       1.065   3.868  20.083  0.00  0.00    +0.000 Br
ATOM     24  C   UNL     1       3.028   3.655  17.967  0.00  0.00    +0.000 A 
ATOM     25  C   UNL     1       2.748   2.178  17.856  0.00  0.00    +0.000 C 
ATOM     26  C   UNL     1       3.999   4.179  17.086  0.00  0.00    +0.000 A 
ENDBRANCH  17  18
ENDBRANCH  16  17
ENDBRANCH   4  16
TORSDOF 6
ENDMDL
MODEL 3
REMARK VINA RESULT:      -7.7      6.452      8.712
REMARK  Name = 
REMARK  10 active torsions:
REMARK  status: ('A' for Active; 'I' for Inactive)
REMARK    1  A    between atoms: C_1  and  O_2
REMARK    2  A    between atoms: O_2  and  C_3
REMARK    3  A    between atoms: C_6  and  C_7
REMARK    4  A    between atoms: C_10  and  C_11
REMARK    5  A    between atoms: C_11  and  O_12
REMARK    6  A    between atoms: O_12  and  C_13
REMARK    7  A    between atoms: C_15  and  C_16
REMARK    8  A    between atoms: C_19  and  C_20
REMARK    9  A    between atoms: C_24  and  O_25
REMARK   10  A    between atoms: O_25  and  C_26
REMARK                            x       y       z     vdW  Elec       q    Type
REMARK                         _______ _______ _______ _____ _____    ______ ____
ROOT
ATOM      1  C   UNL     1       6.355   6.325  18.023  0.00  0.00    +0.000 A 
ATOM      2  N   UNL     1       7.417   5.909  18.730  0.00  0.00    +0.000 NA
ATOM      3  O   UNL     1       8.296   6.985  18.674  0.00  0.00    +0.000 OA
ATOM      4  C   UNL     1       7.676   7.956  17.952  0.00  0.00    +0.000 A 
ATOM      5  N   UNL     1       6.483   7.604  17.521  0.00  0.00    +0.000 NA
ENDROOT
BRANCH   1   9
ATOM      6  C   UNL     1       2.978   3.768  17.474  0.00  0.00    +0.000 A 
ATOM      7  C   UNL     1       4.147   3.583  16.715  0.00  0.00    +0.000 A 
ATOM      8  C   UNL     1       5.245   4.433  16.869  0.00  0.00    +0.000 A 
ATOM      9  C   UNL     1       5.183   5.499  17.766  0.00  0.00    +0.000 A 
ATOM     10  C   UNL     1       3.979   5.749  18.435  0.00  0.00    +0.000 A 
ATOM     11  C   UNL     1       2.868   4.904  18.290  0.00  0.00    +0.000 A 
BRANCH   6  13
ATOM     12  C   UNL     1       1.765   2.069  18.568  0.00  0.00    +0.000 C 
ATOM     13  O   UNL     1       1.952   2.869  17.398  0.00  0.00    +0.000 OA
ENDBRANCH   6  13
BRANCH  11  14
ATOM     14  O   UNL     1       1.806   5.335  19.036  0.00  0.00    +0.000 OA
ATOM     15  C   UNL     1       1.902   5.329  20.450  0.00  0.00    +0.000 C 
ENDBRANCH  11  14
ENDBRANCH   1   9
BRANCH   4  16
ATOM     16  C   UNL     1       8.401   9.235  17.795  0.00  0.00    +0.000 C 
BRANCH  16  17
ATOM     17  O   UNL     1       9.056   9.497  19.034  0.00  0.00    +0.000 OA
BRANCH  17  18
ATOM     18  C   UNL     1       9.530  10.770  19.207  0.00  0.00    +0.000 A 
ATOM     19  C   UNL     1      10.156  11.320  18.091  0.00  0.00    +0.000 A 
ATOM     20  C   UNL     1      10.679  12.621  18.117  0.00  0.00    +0.000 A 
ATOM     21  C   UNL     1      11.394  13.124  16.891  0.00  0.00    +0.000 C 
ATOM     22  C   UNL     1      10.533  13.393  19.285  0.00  0.00    +0.000 A 
ATOM     23 BR   UNL     1      11.194  15.186  19.303  0.00  0.00    +0.000 Br
ATOM     24  C   UNL     1       9.900  12.853  20.423  0.00  0.00    +0.000 A 
ATOM     25  C   UNL     1       9.732  13.576  21.735  0.00  0.00    +0.000 C 
ATOM     26  C   UNL     1       9.400  11.533  20.363  0.00  0.00    +0.000 A 
ENDBRANCH  17  18
ENDBRANCH  16  17
ENDBRANCH   4  16
TORSDOF 6
ENDMDL
MODEL 4
REMARK VINA RESULT:      -7.7      0.481      1.779
REMARK  Name = 
REMARK  10 active torsions:
REMARK  status: ('A' for Active; 'I' for Inactive)
REMARK    1  A    between atoms: C_1  and  O_2
REMARK    2  A    between atoms: O_2  and  C_3
REMARK    3  A    between atoms: C_6  and  C_7
REMARK    4  A    between atoms: C_10  and  C_11
REMARK    5  A    between atoms: C_11  and  O_12
REMARK    6  A    between atoms: O_12  and  C_13
REMARK    7  A    between atoms: C_15  and  C_16
REMARK    8  A    between atoms: C_19  and  C_20
REMARK    9  A    between atoms: C_24  and  O_25
REMARK   10  A    between atoms: O_25  and  C_26
REMARK                            x       y       z     vdW  Elec       q    Type
REMARK                         _______ _______ _______ _____ _____    ______ ____
ROOT
ATOM      1  C   UNL     1       2.406   7.133  19.180  0.00  0.00    +0.000 A 
ATOM      2  N   UNL     1       2.037   6.675  20.387  0.00  0.00    +0.000 NA
ATOM      3  O   UNL     1       1.346   7.742  20.950  0.00  0.00    +0.000 OA
ATOM      4  C   UNL     1       1.348   8.739  20.025  0.00  0.00    +0.000 A 
ATOM      5  N   UNL     1       1.990   8.423  18.920  0.00  0.00    +0.000 NA
ENDROOT
BRANCH   1   9
ATOM      6  C   UNL     1       4.927   4.858  16.590  0.00  0.00    +0.000 A 
ATOM      7  C   UNL     1       4.876   6.259  16.489  0.00  0.00    +0.000 A 
ATOM      8  C   UNL     1       4.033   7.008  17.314  0.00  0.00    +0.000 A 
ATOM      9  C   UNL     1       3.206   6.366  18.235  0.00  0.00    +0.000 A 
ATOM     10  C   UNL     1       3.176   4.966  18.254  0.00  0.00    +0.000 A 
ATOM     11  C   UNL     1       4.017   4.201  17.431  0.00  0.00    +0.000 A 
BRANCH   6  13
ATOM     12  C   UNL     1       5.733   4.312  14.443  0.00  0.00    +0.000 C 
ATOM     13  O   UNL     1       5.833   4.142  15.859  0.00  0.00    +0.000 OA
ENDBRANCH   6  13
BRANCH  11  14
ATOM     14  O   UNL     1       3.820   2.860  17.618  0.00  0.00    +0.000 OA
ATOM     15  C   UNL     1       2.499   2.347  17.632  0.00  0.00    +0.000 C 
ENDBRANCH  11  14
ENDBRANCH   1   9
BRANCH   4  16
ATOM     16  C   UNL     1       0.621   9.977  20.378  0.00  0.00    +0.000 C 
BRANCH  16  17
ATOM     17  O   UNL     1       0.484  10.736  19.178  0.00  0.00    +0.000 OA
BRANCH  17  18
ATOM     18  C   UNL     1      -0.787  10.851  18.681  0.00  0.00    +0.000 A 
ATOM     19  C   UNL     1      -1.649  11.631  19.449  0.00  0.00    +0.000 A 
ATOM     20  C   UNL     1      -2.978  11.847  19.057  0.00  0.00    +0.000 A 
ATOM     21  C   UNL     1      -3.865  12.652  19.969  0.00  0.00    +0.000 C 
ATOM     22  C   UNL     1      -3.432  11.293  17.845  0.00  0.00    +0.000 A 
ATOM     23 BR   UNL     1      -5.226  11.635  17.282  0.00  0.00    +0.000 Br
ATOM     24  C   UNL     1      -2.573  10.503  17.055  0.00  0.00    +0.000 A 
ATOM     25  C   UNL     1      -2.971   9.828  15.768  0.00  0.00    +0.000 C 
ATOM     26  C   UNL     1      -1.246  10.294  17.491  0.00  0.00    +0.000 A 
ENDBRANCH  17  18
ENDBRANCH  16  17
ENDBRANCH   4  16
TORSDOF 6
ENDMDL
MODEL 5
REMARK VINA RESULT:      -7.7      6.316      9.199
REMARK  Name = 
REMARK  10 active torsions:
REMARK  status: ('A' for Active; 'I' for Inactive)
REMARK    1  A    between atoms: C_1  and  O_2
REMARK    2  A    between atoms: O_2  and  C_3
REMARK    3  A    between atoms: C_6  and  C_7
REMARK    4  A    between atoms: C_10  and  C_11
REMARK    5  A    between atoms: C_11  and  O_12
REMARK    6  A    between atoms: O_12  and  C_13
REMARK    7  A    between atoms: C_15  and  C_16
REMARK    8  A    between atoms: C_19  and  C_20
REMARK    9  A    between atoms: C_24  and  O_25
REMARK   10  A    between atoms: O_25  and  C_26
REMARK                            x       y       z     vdW  Elec       q    Type
REMARK                         _______ _______ _______ _____ _____    ______ ____
ROOT
ATOM      1  C   UNL     1       8.460   9.163  18.276  0.00  0.00    +0.000 A 
ATOM      2  N   UNL     1       7.567   9.283  17.280  0.00  0.00    +0.000 NA
ATOM      3  O   UNL     1       7.093   7.988  17.102  0.00  0.00    +0.000 OA
ATOM      4  C   UNL     1       7.732   7.211  18.017  0.00  0.00    +0.000 A 
ATOM      5  N   UNL     1       8.588   7.878  18.761  0.00  0.00    +0.000 NA
ENDROOT
BRANCH   1   9
ATOM      6  C   UNL     1      10.599  12.564  19.726  0.00  0.00    +0.000 A 
ATOM      7  C   UNL     1      10.778  12.115  18.405  0.00  0.00    +0.000 A 
ATOM      8  C   UNL     1      10.103  10.987  17.933  0.00  0.00    +0.000 A 
ATOM      9  C   UNL     1       9.258  10.272  18.781  0.00  0.00    +0.000 A 
ATOM     10  C   UNL     1       9.171  10.654  20.126  0.00  0.00    +0.000 A 
ATOM     11  C   UNL     1       9.843  11.784  20.614  0.00  0.00    +0.000 A 
BRANCH   6  13
ATOM     12  C   UNL     1      12.155  14.272  19.258  0.00  0.00    +0.000 C 
ATOM     13  O   UNL     1      11.176  13.729  20.147  0.00  0.00    +0.000 OA
ENDBRANCH   6  13
BRANCH  11  14
ATOM     14  O   UNL     1       9.613  11.969  21.949  0.00  0.00    +0.000 OA
ATOM     15  C   UNL     1       8.288  11.878  22.445  0.00  0.00    +0.000 C 
ENDBRANCH  11  14
ENDBRANCH   1   9
BRANCH   4  16
ATOM     16  C   UNL     1       7.353   5.782  18.058  0.00  0.00    +0.000 C 
BRANCH  16  17
ATOM     17  O   UNL     1       6.213   5.630  17.213  0.00  0.00    +0.000 OA
BRANCH  17  18
ATOM     18  C   UNL     1       5.103   5.079  17.796  0.00  0.00    +0.000 A 
ATOM     19  C   UNL     1       4.281   5.984  18.464  0.00  0.00    +0.000 A 
ATOM     20  C   UNL     1       3.103   5.566  19.098  0.00  0.00    +0.000 A 
ATOM     21  C   UNL     1       2.297   6.592  19.851  0.00  0.00    +0.000 C 
ATOM     22  C   UNL     1       2.730   4.210  19.023  0.00  0.00    +0.000 A 
ATOM     23 BR   UNL     1       1.095   3.649  19.838  0.00  0.00    +0.000 Br
ATOM     24  C   UNL     1       3.549   3.281  18.349  0.00  0.00    +0.000 A 
ATOM     25  C   UNL     1       3.266   1.804  18.248  0.00  0.00    +0.000 C 
ATOM     26  C   UNL     1       4.737   3.738  17.736  0.00  0.00    +0.000 A 
ENDBRANCH  17  18
ENDBRANCH  16  17
ENDBRANCH   4  16
TORSDOF 6
ENDMDL
MODEL 6
REMARK VINA RESULT:      -7.6      3.084      4.626
REMARK  Name = 
REMARK  10 active torsions:
REMARK  status: ('A' for Active; 'I' for Inactive)
REMARK    1  A    between atoms: C_1  and  O_2
REMARK    2  A    between atoms: O_2  and  C_3
REMARK    3  A    between atoms: C_6  and  C_7
REMARK    4  A    between atoms: C_10  and  C_11
REMARK    5  A    between atoms: C_11  and  O_12
REMARK    6  A    between atoms: O_12  and  C_13
REMARK    7  A    between atoms: C_15  and  C_16
REMARK    8  A    between atoms: C_19  and  C_20
REMARK    9  A    between atoms: C_24  and  O_25
REMARK   10  A    between atoms: O_25  and  C_26
REMARK                            x       y       z     vdW  Elec       q    Type
REMARK                         _______ _______ _______ _____ _____    ______ ____
ROOT
ATOM      1  C   UNL     1       3.598   4.313  17.323  0.00  0.00    +0.000 A 
ATOM      2  N   UNL     1       2.540   3.580  16.941  0.00  0.00    +0.000 NA
ATOM      3  O   UNL     1       1.673   3.657  18.026  0.00  0.00    +0.000 OA
ATOM      4  C   UNL     1       2.282   4.442  18.955  0.00  0.00    +0.000 A 
ATOM      5  N   UNL     1       3.469   4.868  18.580  0.00  0.00    +0.000 NA
ENDROOT
BRANCH   1   9
ATOM      6  C   UNL     1       6.996   5.000  14.829  0.00  0.00    +0.000 A 
ATOM      7  C   UNL     1       6.106   3.946  14.553  0.00  0.00    +0.000 A 
ATOM      8  C   UNL     1       5.009   3.699  15.381  0.00  0.00    +0.000 A 
ATOM      9  C   UNL     1       4.796   4.483  16.514  0.00  0.00    +0.000 A 
ATOM     10  C   UNL     1       5.746   5.457  16.848  0.00  0.00    +0.000 A 
ATOM     11  C   UNL     1       6.853   5.716  16.026  0.00  0.00    +0.000 A 
BRANCH   6  13
ATOM     12  C   UNL     1       7.718   5.018  12.585  0.00  0.00    +0.000 C 
ATOM     13  O   UNL     1       8.002   5.305  13.956  0.00  0.00    +0.000 OA
ENDBRANCH   6  13
BRANCH  11  14
ATOM     14  O   UNL     1       7.643   6.706  16.544  0.00  0.00    +0.000 OA
ATOM     15  C   UNL     1       7.324   7.260  17.808  0.00  0.00    +0.000 C 
ENDBRANCH  11  14
ENDBRANCH   1   9
BRANCH   4  16
ATOM     16  C   UNL     1       1.523   4.717  20.194  0.00  0.00    +0.000 C 
BRANCH  16  17
ATOM     17  O   UNL     1       2.181   5.798  20.853  0.00  0.00    +0.000 OA
BRANCH  17  18
ATOM     18  C   UNL     1       1.707   7.052  20.571  0.00  0.00    +0.000 A 
ATOM     19  C   UNL     1       0.925   7.622  21.573  0.00  0.00    +0.000 A 
ATOM     20  C   UNL     1       0.382   8.907  21.429  0.00  0.00    +0.000 A 
ATOM     21  C   UNL     1      -0.502   9.433  22.529  0.00  0.00    +0.000 C 
ATOM     22  C   UNL     1       0.667   9.643  20.262  0.00  0.00    +0.000 A 
ATOM     23 BR   UNL     1      -0.025  11.416  20.090  0.00  0.00    +0.000 Br
ATOM     24  C   UNL     1       1.458   9.081  19.240  0.00  0.00    +0.000 A 
ATOM     25  C   UNL     1       1.785   9.763  17.936  0.00  0.00    +0.000 C 
ATOM     26  C   UNL     1       1.974   7.778  19.415  0.00  0.00    +0.000 A 
ENDBRANCH  17  18
ENDBRANCH  16  17
ENDBRANCH   4  16
TORSDOF 6
ENDMDL
MODEL 7
REMARK VINA RESULT:      -7.6      6.313      9.092
REMARK  Name = 
REMARK  10 active torsions:
REMARK  status: ('A' for Active; 'I' for Inactive)
REMARK    1  A    between atoms: C_1  and  O_2
REMARK    2  A    between atoms: O_2  and  C_3
REMARK    3  A    between atoms: C_6  and  C_7
REMARK    4  A    between atoms: C_10  and  C_11
REMARK    5  A    between atoms: C_11  and  O_12
REMARK    6  A    between atoms: O_12  and  C_13
REMARK    7  A    between atoms: C_15  and  C_16
REMARK    8  A    between atoms: C_19  and  C_20
REMARK    9  A    between atoms: C_24  and  O_25
REMARK   10  A    between atoms: O_25  and  C_26
REMARK                            x       y       z     vdW  Elec       q    Type
REMARK                         _______ _______ _______ _____ _____    ______ ____
ROOT
ATOM      1  C   UNL     1       8.457   9.112  18.273  0.00  0.00    +0.000 A 
ATOM      2  N   UNL     1       7.575   9.182  17.262  0.00  0.00    +0.000 NA
ATOM      3  O   UNL     1       7.113   7.877  17.134  0.00  0.00    +0.000 OA
ATOM      4  C   UNL     1       7.746   7.144  18.089  0.00  0.00    +0.000 A 
ATOM      5  N   UNL     1       8.588   7.849  18.814  0.00  0.00    +0.000 NA
ENDROOT
BRANCH   1   9
ATOM      6  C   UNL     1      10.546  12.583  19.624  0.00  0.00    +0.000 A 
ATOM      7  C   UNL     1      10.666  12.148  18.292  0.00  0.00    +0.000 A 
ATOM      8  C   UNL     1      10.008  10.998  17.851  0.00  0.00    +0.000 A 
ATOM      9  C   UNL     1       9.240  10.247  18.740  0.00  0.00    +0.000 A 
ATOM     10  C   UNL     1       9.216  10.618  20.091  0.00  0.00    +0.000 A 
ATOM     11  C   UNL     1       9.872  11.771  20.548  0.00  0.00    +0.000 A 
BRANCH   6  13
ATOM     12  C   UNL     1      10.697  14.907  19.259  0.00  0.00    +0.000 C 
ATOM     13  O   UNL     1      11.101  13.767  20.021  0.00  0.00    +0.000 OA
ENDBRANCH   6  13
BRANCH  11  14
ATOM     14  O   UNL     1       9.711  11.940  21.896  0.00  0.00    +0.000 OA
ATOM     15  C   UNL     1       8.665  12.768  22.373  0.00  0.00    +0.000 C 
ENDBRANCH  11  14
ENDBRANCH   1   9
BRANCH   4  16
ATOM     16  C   UNL     1       7.377   5.715  18.186  0.00  0.00    +0.000 C 
BRANCH  16  17
ATOM     17  O   UNL     1       6.279   5.509  17.299  0.00  0.00    +0.000 OA
BRANCH  17  18
ATOM     18  C   UNL     1       5.089   5.169  17.886  0.00  0.00    +0.000 A 
ATOM     19  C   UNL     1       4.743   3.824  17.776  0.00  0.00    +0.000 A 
ATOM     20  C   UNL     1       3.558   3.329  18.339  0.00  0.00    +0.000 A 
ATOM     21  C   UNL     1       3.223   1.876  18.127  0.00  0.00    +0.000 C 
ATOM     22  C   UNL     1       2.725   4.206  19.059  0.00  0.00    +0.000 A 
ATOM     23 BR   UNL     1       1.138   3.521  19.876  0.00  0.00    +0.000 Br
ATOM     24  C   UNL     1       3.061   5.570  19.182  0.00  0.00    +0.000 A 
ATOM     25  C   UNL     1       2.218   6.600  19.890  0.00  0.00    +0.000 C 
ATOM     26  C   UNL     1       4.255   6.034  18.587  0.00  0.00    +0.000 A 
ENDBRANCH  17  18
ENDBRANCH  16  17
ENDBRANCH   4  16
TORSDOF 6
ENDMDL
MODEL 8
REMARK VINA RESULT:      -7.6      1.327      2.816
REMARK  Name = 
REMARK  10 active torsions:
REMARK  status: ('A' for Active; 'I' for Inactive)
REMARK    1  A    between atoms: C_1  and  O_2
REMARK    2  A    between atoms: O_2  and  C_3
REMARK    3  A    between atoms: C_6  and  C_7
REMARK    4  A    between atoms: C_10  and  C_11
REMARK    5  A    between atoms: C_11  and  O_12
REMARK    6  A    between atoms: O_12  and  C_13
REMARK    7  A    between atoms: C_15  and  C_16
REMARK    8  A    between atoms: C_19  and  C_20
REMARK    9  A    between atoms: C_24  and  O_25
REMARK   10  A    between atoms: O_25  and  C_26
REMARK                            x       y       z     vdW  Elec       q    Type
REMARK                         _______ _______ _______ _____ _____    ______ ____
ROOT
ATOM      1  C   UNL     1       2.753   7.539  18.285  0.00  0.00    +0.000 A 
ATOM      2  N   UNL     1       2.169   7.465  19.492  0.00  0.00    +0.000 NA
ATOM      3  O   UNL     1       1.441   8.647  19.582  0.00  0.00    +0.000 OA
ATOM      4  C   UNL     1       1.642   9.316  18.415  0.00  0.00    +0.000 A 
ATOM      5  N   UNL     1       2.444   8.686  17.584  0.00  0.00    +0.000 NA
ENDROOT
BRANCH   1   9
ATOM      6  C   UNL     1       5.361   4.646  16.533  0.00  0.00    +0.000 A 
ATOM      7  C   UNL     1       4.098   4.267  17.025  0.00  0.00    +0.000 A 
ATOM      8  C   UNL     1       3.252   5.203  17.624  0.00  0.00    +0.000 A 
ATOM      9  C   UNL     1       3.664   6.528  17.767  0.00  0.00    +0.000 A 
ATOM     10  C   UNL     1       4.964   6.875  17.381  0.00  0.00    +0.000 A 
ATOM     11  C   UNL     1       5.825   5.946  16.777  0.00  0.00    +0.000 A 
BRANCH   6  13
ATOM     12  C   UNL     1       6.259   4.008  14.449  0.00  0.00    +0.000 C 
ATOM     13  O   UNL     1       6.136   3.751  15.850  0.00  0.00    +0.000 OA
ENDBRANCH   6  13
BRANCH  11  14
ATOM     14  O   UNL     1       7.039   6.504  16.481  0.00  0.00    +0.000 OA
ATOM     15  C   UNL     1       7.747   7.203  17.490  0.00  0.00    +0.000 C 
ENDBRANCH  11  14
ENDBRANCH   1   9
BRANCH   4  16
ATOM     16  C   UNL     1       0.922  10.597  18.250  0.00  0.00    +0.000 C 
BRANCH  16  17
ATOM     17  O   UNL     1      -0.160  10.589  19.180  0.00  0.00    +0.000 OA
BRANCH  17  18
ATOM     18  C   UNL     1      -1.398  10.871  18.665  0.00  0.00    +0.000 A 
ATOM     19  C   UNL     1      -2.232  11.598  19.509  0.00  0.00    +0.000 A 
ATOM     20  C   UNL     1      -3.525  11.970  19.111  0.00  0.00    +0.000 A 
ATOM     21  C   UNL     1      -4.390  12.704  20.101  0.00  0.00    +0.000 C 
ATOM     22  C   UNL     1      -3.967  11.629  17.819  0.00  0.00    +0.000 A 
ATOM     23 BR   UNL     1      -5.706  12.184  17.254  0.00  0.00    +0.000 Br
ATOM     24  C   UNL     1      -3.134  10.894  16.951  0.00  0.00    +0.000 A 
ATOM     25  C   UNL     1      -3.525  10.440  15.568  0.00  0.00    +0.000 C 
ATOM     26  C   UNL     1      -1.845  10.524  17.393  0.00  0.00    +0.000 A 
ENDBRANCH  17  18
ENDBRANCH  16  17
ENDBRANCH   4  16
TORSDOF 6
ENDMDL
MODEL 9
REMARK VINA RESULT:      -7.5      6.367      9.123
REMARK  Name = 
REMARK  10 active torsions:
REMARK  status: ('A' for Active; 'I' for Inactive)
REMARK    1  A    between atoms: C_1  and  O_2
REMARK    2  A    between atoms: O_2  and  C_3
REMARK    3  A    between atoms: C_6  and  C_7
REMARK    4  A    between atoms: C_10  and  C_11
REMARK    5  A    between atoms: C_11  and  O_12
REMARK    6  A    between atoms: O_12  and  C_13
REMARK    7  A    between atoms: C_15  and  C_16
REMARK    8  A    between atoms: C_19  and  C_20
REMARK    9  A    between atoms: C_24  and  O_25
REMARK   10  A    between atoms: O_25  and  C_26
REMARK                            x       y       z     vdW  Elec       q    Type
REMARK                         _______ _______ _______ _____ _____    ______ ____
ROOT
ATOM      1  C   UNL     1       8.451   8.894  18.445  0.00  0.00    +0.000 A 
ATOM      2  N   UNL     1       8.725   7.708  19.013  0.00  0.00    +0.000 NA
ATOM      3  O   UNL     1       7.859   6.827  18.374  0.00  0.00    +0.000 OA
ATOM      4  C   UNL     1       7.155   7.559  17.470  0.00  0.00    +0.000 A 
ATOM      5  N   UNL     1       7.472   8.836  17.474  0.00  0.00    +0.000 NA
ENDROOT
BRANCH   1   9
ATOM      6  C   UNL     1      10.551  12.447  19.543  0.00  0.00    +0.000 A 
ATOM      7  C   UNL     1      10.067  11.568  20.528  0.00  0.00    +0.000 A 
ATOM      8  C   UNL     1       9.356  10.418  20.177  0.00  0.00    +0.000 A 
ATOM      9  C   UNL     1       9.091  10.142  18.836  0.00  0.00    +0.000 A 
ATOM     10  C   UNL     1       9.473  11.078  17.867  0.00  0.00    +0.000 A 
ATOM     11  C   UNL     1      10.189  12.236  18.205  0.00  0.00    +0.000 A 
BRANCH   6  13
ATOM     12  C   UNL     1      10.678  14.532  20.635  0.00  0.00    +0.000 C 
ATOM     13  O   UNL     1      11.339  13.509  19.887  0.00  0.00    +0.000 OA
ENDBRANCH   6  13
BRANCH  11  14
ATOM     14  O   UNL     1      10.458  13.000  17.103  0.00  0.00    +0.000 OA
ATOM     15  C   UNL     1      11.806  13.220  16.722  0.00  0.00    +0.000 C 
ENDBRANCH  11  14
ENDBRANCH   1   9
BRANCH   4  16
ATOM     16  C   UNL     1       6.193   6.824  16.621  0.00  0.00    +0.000 C 
BRANCH  16  17
ATOM     17  O   UNL     1       6.119   5.494  17.134  0.00  0.00    +0.000 OA
BRANCH  17  18
ATOM     18  C   UNL     1       4.949   5.157  17.762  0.00  0.00    +0.000 A 
ATOM     19  C   UNL     1       4.574   3.823  17.626  0.00  0.00    +0.000 A 
ATOM     20  C   UNL     1       3.406   3.331  18.226  0.00  0.00    +0.000 A 
ATOM     21  C   UNL     1       3.036   1.891  17.985  0.00  0.00    +0.000 C 
ATOM     22  C   UNL     1       2.620   4.200  19.007  0.00  0.00    +0.000 A 
ATOM     23 BR   UNL     1       1.058   3.517  19.871  0.00  0.00    +0.000 Br
ATOM     24  C   UNL     1       2.986   5.553  19.155  0.00  0.00    +0.000 A 
ATOM     25  C   UNL     1       2.193   6.575  19.930  0.00  0.00    +0.000 C 
ATOM     26  C   UNL     1       4.161   6.015  18.524  0.00  0.00    +0.000 A 
ENDBRANCH  17  18
ENDBRANCH  16  17
ENDBRANCH   4  16
TORSDOF 6
ENDMDL
