MODEL 1
REMARK VINA RESULT:      -6.9      0.000      0.000
REMARK  Name = 
REMARK  8 active torsions:
REMARK  status: ('A' for Active; 'I' for Inactive)
REMARK    1  A    between atoms: C_1  and  C_2
REMARK    2  A    between atoms: C_7  and  C_8
REMARK    3  A    between atoms: C_8  and  C_9
REMARK    4  A    between atoms: C_8  and  N_10
REMARK    5  A    between atoms: N_10  and  C_11
REMARK    6  A    between atoms: C_17  and  C_18
REMARK    7  A    between atoms: C_20  and  O_21
REMARK    8  A    between atoms: N_26  and  C_27
REMARK                            x       y       z     vdW  Elec       q    Type
REMARK                         _______ _______ _______ _____ _____    ______ ____
ROOT
ATOM      1  N   UNL     1      -3.756  13.135  19.959  0.00  0.00    +0.000 N 
ATOM      2  H   UNL     1      -4.101  13.475  19.058  0.00  0.00    +0.000 HD
ENDROOT
BRANCH   1   3
ATOM      3  C   UNL     1      -4.862  12.827  20.793  0.00  0.00    +0.000 A 
ATOM      4  N   UNL     1      -5.792  11.950  20.378  0.00  0.00    +0.000 NA
ATOM      5  C   UNL     1      -6.847  11.757  21.194  0.00  0.00    +0.000 A 
ATOM      6  N   UNL     1      -7.033  12.278  22.421  0.00  0.00    +0.000 NA
ATOM      7  C   UNL     1      -6.076  13.105  22.859  0.00  0.00    +0.000 A 
ATOM      8  N   UNL     1      -6.321  13.662  24.120  0.00  0.00    +0.000 N 
ATOM      9  C   UNL     1      -4.966  13.444  22.078  0.00  0.00    +0.000 A 
ATOM     10  H   UNL     1      -7.156  13.224  24.509  0.00  0.00    +0.000 HD
ATOM     11  H   UNL     1      -5.524  13.593  24.740  0.00  0.00    +0.000 HD
BRANCH   9  12
ATOM     12  C   UNL     1      -4.000  14.491  22.470  0.00  0.00    +0.000 A 
ATOM     13  C   UNL     1      -2.879  14.139  23.236  0.00  0.00    +0.000 A 
ATOM     14  C   UNL     1      -1.716  14.883  23.128  0.00  0.00    +0.000 A 
ATOM     15  C   UNL     1      -1.692  16.065  22.403  0.00  0.00    +0.000 A 
ATOM     16  C   UNL     1      -2.867  16.529  21.822  0.00  0.00    +0.000 A 
ATOM     17 CL   UNL     1      -2.866  18.012  20.951  0.00  0.00    +0.000 Cl
ATOM     18  C   UNL     1      -4.025  15.752  21.854  0.00  0.00    +0.000 A 
BRANCH  14  19
ATOM     19  O   UNL     1      -0.547  14.411  23.647  0.00  0.00    +0.000 OA
ATOM     20  H   UNL     1      -0.006  15.174  23.918  0.00  0.00    +0.000 HD
ENDBRANCH  14  19
ENDBRANCH   9  12
ENDBRANCH   1   3
BRANCH   1  21
ATOM     21  C   UNL     1      -2.577  12.254  19.702  0.00  0.00    +0.000 C 
ATOM     22  C   UNL     1      -2.597  11.775  18.257  0.00  0.00    +0.000 C 
BRANCH  21  29
ATOM     23  C   UNL     1       3.261  15.953  20.866  0.00  0.00    +0.000 C 
ATOM     24  C   UNL     1       1.947  15.743  20.181  0.00  0.00    +0.000 A 
ATOM     25  C   UNL     1       1.326  16.754  19.390  0.00  0.00    +0.000 A 
ATOM     26  C   UNL     1       0.099  16.277  18.997  0.00  0.00    +0.000 A 
ATOM     27  N   UNL     1      -0.072  15.026  19.512  0.00  0.00    +0.000 N 
ATOM     28  N   UNL     1      -1.214  14.310  19.388  0.00  0.00    +0.000 NA
ATOM     29  C   UNL     1      -1.223  13.120  19.930  0.00  0.00    +0.000 A 
ATOM     30  N   UNL     1      -0.089  12.576  20.570  0.00  0.00    +0.000 N 
ATOM     31  C   UNL     1       1.127  13.308  20.705  0.00  0.00    +0.000 A 
ATOM     32  O   UNL     1       2.143  12.866  21.254  0.00  0.00    +0.000 OA
ATOM     33  C   UNL     1       1.068  14.645  20.164  0.00  0.00    +0.000 A 
BRANCH  30  34
ATOM     34  C   UNL     1      -0.161  11.321  21.249  0.00  0.00    +0.000 A 
ATOM     35  C   UNL     1       0.269  10.166  20.579  0.00  0.00    +0.000 A 
ATOM     36  C   UNL     1       0.254   8.928  21.222  0.00  0.00    +0.000 A 
ATOM     37  C   UNL     1      -0.204   8.831  22.531  0.00  0.00    +0.000 A 
ATOM     38  C   UNL     1      -0.692   9.971  23.185  0.00  0.00    +0.000 A 
ATOM     39  C   UNL     1      -0.688  11.208  22.538  0.00  0.00    +0.000 A 
ENDBRANCH  30  34
ENDBRANCH  21  29
ENDBRANCH   1  21
TORSDOF 6
ENDMDL
MODEL 2
REMARK VINA RESULT:      -6.8      1.066      1.369
REMARK  Name = 
REMARK  8 active torsions:
REMARK  status: ('A' for Active; 'I' for Inactive)
REMARK    1  A    between atoms: C_1  and  C_2
REMARK    2  A    between atoms: C_7  and  C_8
REMARK    3  A    between atoms: C_8  and  C_9
REMARK    4  A    between atoms: C_8  and  N_10
REMARK    5  A    between atoms: N_10  and  C_11
REMARK    6  A    between atoms: C_17  and  C_18
REMARK    7  A    between atoms: C_20  and  O_21
REMARK    8  A    between atoms: N_26  and  C_27
REMARK                            x       y       z     vdW  Elec       q    Type
REMARK                         _______ _______ _______ _____ _____    ______ ____
ROOT
ATOM      1  N   UNL     1      -3.503  12.285  18.850  0.00  0.00    +0.000 N 
ATOM      2  H   UNL     1      -3.561  12.594  17.878  0.00  0.00    +0.000 HD
ENDROOT
BRANCH   1   3
ATOM      3  C   UNL     1      -4.787  11.859  19.279  0.00  0.00    +0.000 A 
ATOM      4  N   UNL     1      -5.499  11.005  18.524  0.00  0.00    +0.000 NA
ATOM      5  C   UNL     1      -6.735  10.697  18.962  0.00  0.00    +0.000 A 
ATOM      6  N   UNL     1      -7.307  11.079  20.118  0.00  0.00    +0.000 NA
ATOM      7  C   UNL     1      -6.574  11.881  20.900  0.00  0.00    +0.000 A 
ATOM      8  N   UNL     1      -7.215  12.294  22.074  0.00  0.00    +0.000 N 
ATOM      9  C   UNL     1      -5.304  12.333  20.525  0.00  0.00    +0.000 A 
ATOM     10  H   UNL     1      -8.101  11.793  22.151  0.00  0.00    +0.000 HD
ATOM     11  H   UNL     1      -6.636  12.182  22.896  0.00  0.00    +0.000 HD
BRANCH   9  12
ATOM     12  C   UNL     1      -4.562  13.358  21.286  0.00  0.00    +0.000 A 
ATOM     13  C   UNL     1      -3.706  12.958  22.323  0.00  0.00    +0.000 A 
ATOM     14  C   UNL     1      -2.608  13.740  22.643  0.00  0.00    +0.000 A 
ATOM     15  C   UNL     1      -2.433  14.990  22.069  0.00  0.00    +0.000 A 
ATOM     16  C   UNL     1      -3.402  15.481  21.201  0.00  0.00    +0.000 A 
ATOM     17 CL   UNL     1      -3.221  17.045  20.509  0.00  0.00    +0.000 Cl
ATOM     18  C   UNL     1      -4.470  14.675  20.808  0.00  0.00    +0.000 A 
BRANCH  14  19
ATOM     19  O   UNL     1      -1.626  13.248  23.450  0.00  0.00    +0.000 OA
ATOM     20  H   UNL     1      -1.704  12.277  23.466  0.00  0.00    +0.000 HD
ENDBRANCH  14  19
ENDBRANCH   9  12
ENDBRANCH   1   3
BRANCH   1  21
ATOM     21  C   UNL     1      -2.225  11.532  19.023  0.00  0.00    +0.000 C 
ATOM     22  C   UNL     1      -1.823  10.889  17.702  0.00  0.00    +0.000 C 
BRANCH  21  29
ATOM     23  C   UNL     1       2.778  16.002  21.050  0.00  0.00    +0.000 C 
ATOM     24  C   UNL     1       1.610  15.631  20.192  0.00  0.00    +0.000 A 
ATOM     25  C   UNL     1       0.943  16.576  19.356  0.00  0.00    +0.000 A 
ATOM     26  C   UNL     1      -0.135  15.939  18.792  0.00  0.00    +0.000 A 
ATOM     27  N   UNL     1      -0.175  14.654  19.244  0.00  0.00    +0.000 N 
ATOM     28  N   UNL     1      -1.167  13.782  18.950  0.00  0.00    +0.000 NA
ATOM     29  C   UNL     1      -1.060  12.579  19.452  0.00  0.00    +0.000 A 
ATOM     30  N   UNL     1       0.055  12.180  20.220  0.00  0.00    +0.000 N 
ATOM     31  C   UNL     1       1.116  13.079  20.534  0.00  0.00    +0.000 A 
ATOM     32  O   UNL     1       2.112  12.767  21.200  0.00  0.00    +0.000 OA
ATOM     33  C   UNL     1       0.920  14.417  20.029  0.00  0.00    +0.000 A 
BRANCH  30  34
ATOM     34  C   UNL     1       0.093  10.898  20.848  0.00  0.00    +0.000 A 
ATOM     35  C   UNL     1       0.730   9.840  20.181  0.00  0.00    +0.000 A 
ATOM     36  C   UNL     1       0.825   8.582  20.779  0.00  0.00    +0.000 A 
ATOM     37  C   UNL     1       0.273   8.367  22.036  0.00  0.00    +0.000 A 
ATOM     38  C   UNL     1      -0.417   9.404  22.680  0.00  0.00    +0.000 A 
ATOM     39  C   UNL     1      -0.523  10.659  22.078  0.00  0.00    +0.000 A 
ENDBRANCH  30  34
ENDBRANCH  21  29
ENDBRANCH   1  21
TORSDOF 6
ENDMDL
MODEL 3
REMARK VINA RESULT:      -6.8      1.768      2.402
REMARK  Name = 
REMARK  8 active torsions:
REMARK  status: ('A' for Active; 'I' for Inactive)
REMARK    1  A    between atoms: C_1  and  C_2
REMARK    2  A    between atoms: C_7  and  C_8
REMARK    3  A    between atoms: C_8  and  C_9
REMARK    4  A    between atoms: C_8  and  N_10
REMARK    5  A    between atoms: N_10  and  C_11
REMARK    6  A    between atoms: C_17  and  C_18
REMARK    7  A    between atoms: C_20  and  O_21
REMARK    8  A    between atoms: N_26  and  C_27
REMARK                            x       y       z     vdW  Elec       q    Type
REMARK                         _______ _______ _______ _____ _____    ______ ____
ROOT
ATOM      1  N   UNL     1      -3.368  12.315  18.681  0.00  0.00    +0.000 N 
ATOM      2  H   UNL     1      -3.314  12.514  17.681  0.00  0.00    +0.000 HD
ENDROOT
BRANCH   1   3
ATOM      3  C   UNL     1      -4.680  11.874  18.996  0.00  0.00    +0.000 A 
ATOM      4  N   UNL     1      -5.290  10.967  18.214  0.00  0.00    +0.000 NA
ATOM      5  C   UNL     1      -6.557  10.646  18.537  0.00  0.00    +0.000 A 
ATOM      6  N   UNL     1      -7.256  11.064  19.609  0.00  0.00    +0.000 NA
ATOM      7  C   UNL     1      -6.625  11.921  20.422  0.00  0.00    +0.000 A 
ATOM      8  N   UNL     1      -7.394  12.369  21.503  0.00  0.00    +0.000 N 
ATOM      9  C   UNL     1      -5.334  12.390  20.159  0.00  0.00    +0.000 A 
ATOM     10  H   UNL     1      -8.271  11.849  21.513  0.00  0.00    +0.000 HD
ATOM     11  H   UNL     1      -6.901  12.311  22.385  0.00  0.00    +0.000 HD
BRANCH   9  12
ATOM     12  C   UNL     1      -4.698  13.469  20.941  0.00  0.00    +0.000 A 
ATOM     13  C   UNL     1      -4.984  14.806  20.626  0.00  0.00    +0.000 A 
ATOM     14  C   UNL     1      -4.918  15.771  21.618  0.00  0.00    +0.000 A 
ATOM     15  C   UNL     1      -4.415  15.467  22.874  0.00  0.00    +0.000 A 
ATOM     16  C   UNL     1      -3.926  14.189  23.119  0.00  0.00    +0.000 A 
ATOM     17 CL   UNL     1      -3.264  13.805  24.660  0.00  0.00    +0.000 Cl
ATOM     18  C   UNL     1      -4.059  13.187  22.159  0.00  0.00    +0.000 A 
BRANCH  14  19
ATOM     19  O   UNL     1      -5.443  17.011  21.406  0.00  0.00    +0.000 OA
ATOM     20  H   UNL     1      -5.148  17.320  20.531  0.00  0.00    +0.000 HD
ENDBRANCH  14  19
ENDBRANCH   9  12
ENDBRANCH   1   3
BRANCH   1  21
ATOM     21  C   UNL     1      -2.096  11.649  19.092  0.00  0.00    +0.000 C 
ATOM     22  C   UNL     1      -1.526  10.860  17.921  0.00  0.00    +0.000 C 
BRANCH  21  29
ATOM     23  C   UNL     1       2.502  16.568  21.036  0.00  0.00    +0.000 C 
ATOM     24  C   UNL     1       1.463  16.029  20.105  0.00  0.00    +0.000 A 
ATOM     25  C   UNL     1       0.889  16.814  19.061  0.00  0.00    +0.000 A 
ATOM     26  C   UNL     1      -0.093  16.059  18.468  0.00  0.00    +0.000 A 
ATOM     27  N   UNL     1      -0.162  14.852  19.098  0.00  0.00    +0.000 N 
ATOM     28  N   UNL     1      -1.088  13.906  18.816  0.00  0.00    +0.000 NA
ATOM     29  C   UNL     1      -1.020  12.794  19.502  0.00  0.00    +0.000 A 
ATOM     30  N   UNL     1      -0.004  12.557  20.453  0.00  0.00    +0.000 N 
ATOM     31  C   UNL     1       0.987  13.535  20.759  0.00  0.00    +0.000 A 
ATOM     32  O   UNL     1       1.895  13.365  21.582  0.00  0.00    +0.000 OA
ATOM     33  C   UNL     1       0.828  14.777  20.039  0.00  0.00    +0.000 A 
BRANCH  30  34
ATOM     34  C   UNL     1      -0.019  11.382  21.265  0.00  0.00    +0.000 A 
ATOM     35  C   UNL     1      -0.761  11.394  22.456  0.00  0.00    +0.000 A 
ATOM     36  C   UNL     1      -0.834  10.253  23.255  0.00  0.00    +0.000 A 
ATOM     37  C   UNL     1      -0.157   9.098  22.880  0.00  0.00    +0.000 A 
ATOM     38  C   UNL     1       0.635   9.099  21.724  0.00  0.00    +0.000 A 
ATOM     39  C   UNL     1       0.719  10.245  20.930  0.00  0.00    +0.000 A 
ENDBRANCH  30  34
ENDBRANCH  21  29
ENDBRANCH   1  21
TORSDOF 6
ENDMDL
MODEL 4
REMARK VINA RESULT:      -6.4      5.518      7.932
REMARK  Name = 
REMARK  8 active torsions:
REMARK  status: ('A' for Active; 'I' for Inactive)
REMARK    1  A    between atoms: C_1  and  C_2
REMARK    2  A    between atoms: C_7  and  C_8
REMARK    3  A    between atoms: C_8  and  C_9
REMARK    4  A    between atoms: C_8  and  N_10
REMARK    5  A    between atoms: N_10  and  C_11
REMARK    6  A    between atoms: C_17  and  C_18
REMARK    7  A    between atoms: C_20  and  O_21
REMARK    8  A    between atoms: N_26  and  C_27
REMARK                            x       y       z     vdW  Elec       q    Type
REMARK                         _______ _______ _______ _____ _____    ______ ____
ROOT
ATOM      1  N   UNL     1       2.002   8.641  19.780  0.00  0.00    +0.000 N 
ATOM      2  H   UNL     1       2.324   9.511  19.351  0.00  0.00    +0.000 HD
ENDROOT
BRANCH   1   3
ATOM      3  C   UNL     1       1.069   8.946  20.804  0.00  0.00    +0.000 A 
ATOM      4  N   UNL     1       0.677   7.989  21.663  0.00  0.00    +0.000 NA
ATOM      5  C   UNL     1      -0.260   8.335  22.567  0.00  0.00    +0.000 A 
ATOM      6  N   UNL     1      -0.787   9.557  22.765  0.00  0.00    +0.000 NA
ATOM      7  C   UNL     1      -0.351  10.525  21.949  0.00  0.00    +0.000 A 
ATOM      8  N   UNL     1      -0.951  11.773  22.155  0.00  0.00    +0.000 N 
ATOM      9  C   UNL     1       0.566  10.279  20.922  0.00  0.00    +0.000 A 
ATOM     10  H   UNL     1      -1.539  11.715  22.987  0.00  0.00    +0.000 HD
ATOM     11  H   UNL     1      -0.278  12.526  22.209  0.00  0.00    +0.000 HD
BRANCH   9  12
ATOM     12  C   UNL     1       0.915  11.289  19.902  0.00  0.00    +0.000 A 
ATOM     13  C   UNL     1       0.051  11.496  18.816  0.00  0.00    +0.000 A 
ATOM     14  C   UNL     1       0.004  12.739  18.207  0.00  0.00    +0.000 A 
ATOM     15  C   UNL     1       0.912  13.731  18.544  0.00  0.00    +0.000 A 
ATOM     16  C   UNL     1       1.912  13.452  19.470  0.00  0.00    +0.000 A 
ATOM     17 CL   UNL     1       3.070  14.658  19.873  0.00  0.00    +0.000 Cl
ATOM     18  C   UNL     1       1.923  12.234  20.149  0.00  0.00    +0.000 A 
BRANCH  14  19
ATOM     19  O   UNL     1      -1.002  13.042  17.339  0.00  0.00    +0.000 OA
ATOM     20  H   UNL     1      -1.677  13.551  17.823  0.00  0.00    +0.000 HD
ENDBRANCH  14  19
ENDBRANCH   9  12
ENDBRANCH   1   3
BRANCH   1  21
ATOM     21  C   UNL     1       1.818   7.629  18.696  0.00  0.00    +0.000 C 
ATOM     22  C   UNL     1       1.362   8.321  17.418  0.00  0.00    +0.000 C 
BRANCH  21  29
ATOM     23  C   UNL     1       7.976   4.468  17.597  0.00  0.00    +0.000 C 
ATOM     24  C   UNL     1       7.063   5.649  17.495  0.00  0.00    +0.000 A 
ATOM     25  C   UNL     1       7.520   6.938  17.087  0.00  0.00    +0.000 A 
ATOM     26  C   UNL     1       6.463   7.807  17.200  0.00  0.00    +0.000 A 
ATOM     27  N   UNL     1       5.379   7.124  17.666  0.00  0.00    +0.000 N 
ATOM     28  N   UNL     1       4.197   7.706  17.975  0.00  0.00    +0.000 NA
ATOM     29  C   UNL     1       3.246   6.916  18.403  0.00  0.00    +0.000 A 
ATOM     30  N   UNL     1       3.414   5.517  18.493  0.00  0.00    +0.000 N 
ATOM     31  C   UNL     1       4.646   4.881  18.164  0.00  0.00    +0.000 A 
ATOM     32  O   UNL     1       4.832   3.659  18.224  0.00  0.00    +0.000 OA
ATOM     33  C   UNL     1       5.693   5.797  17.773  0.00  0.00    +0.000 A 
BRANCH  30  34
ATOM     34  C   UNL     1       2.399   4.692  19.067  0.00  0.00    +0.000 A 
ATOM     35  C   UNL     1       1.582   3.936  18.213  0.00  0.00    +0.000 A 
ATOM     36  C   UNL     1       0.607   3.086  18.737  0.00  0.00    +0.000 A 
ATOM     37  C   UNL     1       0.431   2.996  20.113  0.00  0.00    +0.000 A 
ATOM     38  C   UNL     1       1.203   3.794  20.968  0.00  0.00    +0.000 A 
ATOM     39  C   UNL     1       2.170   4.654  20.444  0.00  0.00    +0.000 A 
ENDBRANCH  30  34
ENDBRANCH  21  29
ENDBRANCH   1  21
TORSDOF 6
ENDMDL
MODEL 5
REMARK VINA RESULT:      -6.3      1.886      2.098
REMARK  Name = 
REMARK  8 active torsions:
REMARK  status: ('A' for Active; 'I' for Inactive)
REMARK    1  A    between atoms: C_1  and  C_2
REMARK    2  A    between atoms: C_7  and  C_8
REMARK    3  A    between atoms: C_8  and  C_9
REMARK    4  A    between atoms: C_8  and  N_10
REMARK    5  A    between atoms: N_10  and  C_11
REMARK    6  A    between atoms: C_17  and  C_18
REMARK    7  A    between atoms: C_20  and  O_21
REMARK    8  A    between atoms: N_26  and  C_27
REMARK                            x       y       z     vdW  Elec       q    Type
REMARK                         _______ _______ _______ _____ _____    ______ ____
ROOT
ATOM      1  N   UNL     1      -4.228  13.308  20.816  0.00  0.00    +0.000 N 
ATOM      2  H   UNL     1      -4.532  13.843  20.000  0.00  0.00    +0.000 HD
ENDROOT
BRANCH   1   3
ATOM      3  C   UNL     1      -5.371  12.842  21.517  0.00  0.00    +0.000 A 
ATOM      4  N   UNL     1      -6.108  11.839  21.009  0.00  0.00    +0.000 NA
ATOM      5  C   UNL     1      -7.215  11.495  21.696  0.00  0.00    +0.000 A 
ATOM      6  N   UNL     1      -7.621  11.983  22.883  0.00  0.00    +0.000 NA
ATOM      7  C   UNL     1      -6.853  12.939  23.419  0.00  0.00    +0.000 A 
ATOM      8  N   UNL     1      -7.327  13.454  24.631  0.00  0.00    +0.000 N 
ATOM      9  C   UNL     1      -5.717  13.437  22.770  0.00  0.00    +0.000 A 
ATOM     10  H   UNL     1      -8.130  12.899  24.925  0.00  0.00    +0.000 HD
ATOM     11  H   UNL     1      -6.609  13.501  25.343  0.00  0.00    +0.000 HD
BRANCH   9  12
ATOM     12  C   UNL     1      -4.967  14.612  23.258  0.00  0.00    +0.000 A 
ATOM     13  C   UNL     1      -5.560  15.882  23.190  0.00  0.00    +0.000 A 
ATOM     14  C   UNL     1      -5.202  16.854  24.109  0.00  0.00    +0.000 A 
ATOM     15  C   UNL     1      -4.150  16.648  24.989  0.00  0.00    +0.000 A 
ATOM     16  C   UNL     1      -3.418  15.468  24.909  0.00  0.00    +0.000 A 
ATOM     17 CL   UNL     1      -2.087  15.211  25.968  0.00  0.00    +0.000 Cl
ATOM     18  C   UNL     1      -3.816  14.449  24.045  0.00  0.00    +0.000 A 
BRANCH  14  19
ATOM     19  O   UNL     1      -5.944  17.990  24.233  0.00  0.00    +0.000 OA
ATOM     20  H   UNL     1      -6.321  18.203  23.360  0.00  0.00    +0.000 HD
ENDBRANCH  14  19
ENDBRANCH   9  12
ENDBRANCH   1   3
BRANCH   1  21
ATOM     21  C   UNL     1      -3.046  12.486  20.419  0.00  0.00    +0.000 C 
ATOM     22  C   UNL     1      -3.161  12.093  18.952  0.00  0.00    +0.000 C 
BRANCH  21  29
ATOM     23  C   UNL     1       2.760  16.295  21.366  0.00  0.00    +0.000 C 
ATOM     24  C   UNL     1       1.370  16.118  20.842  0.00  0.00    +0.000 A 
ATOM     25  C   UNL     1       0.604  17.203  20.322  0.00  0.00    +0.000 A 
ATOM     26  C   UNL     1      -0.649  16.721  20.028  0.00  0.00    +0.000 A 
ATOM     27  N   UNL     1      -0.698  15.397  20.348  0.00  0.00    +0.000 N 
ATOM     28  N   UNL     1      -1.818  14.643  20.264  0.00  0.00    +0.000 NA
ATOM     29  C   UNL     1      -1.705  13.383  20.599  0.00  0.00    +0.000 A 
ATOM     30  N   UNL     1      -0.471  12.814  20.979  0.00  0.00    +0.000 N 
ATOM     31  C   UNL     1       0.723  13.586  21.064  0.00  0.00    +0.000 A 
ATOM     32  O   UNL     1       1.824  13.124  21.389  0.00  0.00    +0.000 OA
ATOM     33  C   UNL     1       0.538  14.987  20.765  0.00  0.00    +0.000 A 
BRANCH  30  34
ATOM     34  C   UNL     1      -0.398  11.465  21.445  0.00  0.00    +0.000 A 
ATOM     35  C   UNL     1      -0.027  10.459  20.540  0.00  0.00    +0.000 A 
ATOM     36  C   UNL     1       0.096   9.136  20.967  0.00  0.00    +0.000 A 
ATOM     37  C   UNL     1      -0.164   8.805  22.291  0.00  0.00    +0.000 A 
ATOM     38  C   UNL     1      -0.594   9.796  23.184  0.00  0.00    +0.000 A 
ATOM     39  C   UNL     1      -0.730  11.118  22.756  0.00  0.00    +0.000 A 
ENDBRANCH  30  34
ENDBRANCH  21  29
ENDBRANCH   1  21
TORSDOF 6
ENDMDL
MODEL 6
REMARK VINA RESULT:      -6.3      1.556      1.849
REMARK  Name = 
REMARK  8 active torsions:
REMARK  status: ('A' for Active; 'I' for Inactive)
REMARK    1  A    between atoms: C_1  and  C_2
REMARK    2  A    between atoms: C_7  and  C_8
REMARK    3  A    between atoms: C_8  and  C_9
REMARK    4  A    between atoms: C_8  and  N_10
REMARK    5  A    between atoms: N_10  and  C_11
REMARK    6  A    between atoms: C_17  and  C_18
REMARK    7  A    between atoms: C_20  and  O_21
REMARK    8  A    between atoms: N_26  and  C_27
REMARK                            x       y       z     vdW  Elec       q    Type
REMARK                         _______ _______ _______ _____ _____    ______ ____
ROOT
ATOM      1  N   UNL     1      -3.630  12.907  19.524  0.00  0.00    +0.000 N 
ATOM      2  H   UNL     1      -3.828  13.392  18.647  0.00  0.00    +0.000 HD
ENDROOT
BRANCH   1   3
ATOM      3  C   UNL     1      -4.848  12.437  20.080  0.00  0.00    +0.000 A 
ATOM      4  N   UNL     1      -5.545  11.473  19.455  0.00  0.00    +0.000 NA
ATOM      5  C   UNL     1      -6.723  11.125  20.007  0.00  0.00    +0.000 A 
ATOM      6  N   UNL     1      -7.244  11.572  21.165  0.00  0.00    +0.000 NA
ATOM      7  C   UNL     1      -6.520  12.488  21.819  0.00  0.00    +0.000 A 
ATOM      8  N   UNL     1      -7.110  12.963  22.997  0.00  0.00    +0.000 N 
ATOM      9  C   UNL     1      -5.314  12.987  21.315  0.00  0.00    +0.000 A 
ATOM     10  H   UNL     1      -7.950  12.414  23.181  0.00  0.00    +0.000 HD
ATOM     11  H   UNL     1      -6.471  12.965  23.781  0.00  0.00    +0.000 HD
BRANCH   9  12
ATOM     12  C   UNL     1      -4.599  14.125  21.929  0.00  0.00    +0.000 A 
ATOM     13  C   UNL     1      -4.939  15.433  21.553  0.00  0.00    +0.000 A 
ATOM     14  C   UNL     1      -4.763  16.471  22.454  0.00  0.00    +0.000 A 
ATOM     15  C   UNL     1      -4.103  16.265  23.656  0.00  0.00    +0.000 A 
ATOM     16  C   UNL     1      -3.570  15.010  23.933  0.00  0.00    +0.000 A 
ATOM     17 CL   UNL     1      -2.716  14.746  25.402  0.00  0.00    +0.000 Cl
ATOM     18  C   UNL     1      -3.810  13.938  23.075  0.00  0.00    +0.000 A 
BRANCH  14  19
ATOM     19  O   UNL     1      -5.325  17.689  22.217  0.00  0.00    +0.000 OA
ATOM     20  H   UNL     1      -5.922  17.897  22.959  0.00  0.00    +0.000 HD
ENDBRANCH  14  19
ENDBRANCH   9  12
ENDBRANCH   1   3
BRANCH   1  21
ATOM     21  C   UNL     1      -2.382  12.106  19.340  0.00  0.00    +0.000 C 
ATOM     22  C   UNL     1      -2.273  11.648  17.892  0.00  0.00    +0.000 C 
BRANCH  21  29
ATOM     23  C   UNL     1       3.103  16.165  20.940  0.00  0.00    +0.000 C 
ATOM     24  C   UNL     1       1.896  15.843  20.116  0.00  0.00    +0.000 A 
ATOM     25  C   UNL     1       1.335  16.769  19.186  0.00  0.00    +0.000 A 
ATOM     26  C   UNL     1       0.189  16.204  18.681  0.00  0.00    +0.000 A 
ATOM     27  N   UNL     1       0.007  14.983  19.259  0.00  0.00    +0.000 N 
ATOM     28  N   UNL     1      -1.078  14.204  19.048  0.00  0.00    +0.000 NA
ATOM     29  C   UNL     1      -1.105  13.052  19.669  0.00  0.00    +0.000 A 
ATOM     30  N   UNL     1      -0.038  12.610  20.480  0.00  0.00    +0.000 N 
ATOM     31  C   UNL     1       1.119  13.410  20.709  0.00  0.00    +0.000 A 
ATOM     32  O   UNL     1       2.077  13.057  21.409  0.00  0.00    +0.000 OA
ATOM     33  C   UNL     1       1.073  14.704  20.071  0.00  0.00    +0.000 A 
BRANCH  30  34
ATOM     34  C   UNL     1      -0.141  11.401  21.233  0.00  0.00    +0.000 A 
ATOM     35  C   UNL     1       0.343  10.211  20.667  0.00  0.00    +0.000 A 
ATOM     36  C   UNL     1       0.298   9.016  21.388  0.00  0.00    +0.000 A 
ATOM     37  C   UNL     1      -0.243   8.997  22.668  0.00  0.00    +0.000 A 
ATOM     38  C   UNL     1      -0.783  10.170  23.214  0.00  0.00    +0.000 A 
ATOM     39  C   UNL     1      -0.750  11.363  22.489  0.00  0.00    +0.000 A 
ENDBRANCH  30  34
ENDBRANCH  21  29
ENDBRANCH   1  21
TORSDOF 6
ENDMDL
MODEL 7
REMARK VINA RESULT:      -6.3      1.235      1.721
REMARK  Name = 
REMARK  8 active torsions:
REMARK  status: ('A' for Active; 'I' for Inactive)
REMARK    1  A    between atoms: C_1  and  C_2
REMARK    2  A    between atoms: C_7  and  C_8
REMARK    3  A    between atoms: C_8  and  C_9
REMARK    4  A    between atoms: C_8  and  N_10
REMARK    5  A    between atoms: N_10  and  C_11
REMARK    6  A    between atoms: C_17  and  C_18
REMARK    7  A    between atoms: C_20  and  O_21
REMARK    8  A    between atoms: N_26  and  C_27
REMARK                            x       y       z     vdW  Elec       q    Type
REMARK                         _______ _______ _______ _____ _____    ______ ____
ROOT
ATOM      1  N   UNL     1      -3.556  12.737  19.258  0.00  0.00    +0.000 N 
ATOM      2  H   UNL     1      -3.555  13.379  18.463  0.00  0.00    +0.000 HD
ENDROOT
BRANCH   1   3
ATOM      3  C   UNL     1      -4.847  12.161  19.389  0.00  0.00    +0.000 A 
ATOM      4  N   UNL     1      -5.360  11.429  18.385  0.00  0.00    +0.000 NA
ATOM      5  C   UNL     1      -6.615  10.970  18.554  0.00  0.00    +0.000 A 
ATOM      6  N   UNL     1      -7.385  11.087  19.652  0.00  0.00    +0.000 NA
ATOM      7  C   UNL     1      -6.849  11.764  20.675  0.00  0.00    +0.000 A 
ATOM      8  N   UNL     1      -7.691  11.904  21.784  0.00  0.00    +0.000 N 
ATOM      9  C   UNL     1      -5.583  12.354  20.599  0.00  0.00    +0.000 A 
ATOM     10  H   UNL     1      -8.531  11.347  21.624  0.00  0.00    +0.000 HD
ATOM     11  H   UNL     1      -7.233  11.670  22.655  0.00  0.00    +0.000 HD
BRANCH   9  12
ATOM     12  C   UNL     1      -5.055  13.255  21.644  0.00  0.00    +0.000 A 
ATOM     13  C   UNL     1      -5.148  12.873  22.991  0.00  0.00    +0.000 A 
ATOM     14  C   UNL     1      -4.209  13.335  23.899  0.00  0.00    +0.000 A 
ATOM     15  C   UNL     1      -3.280  14.297  23.533  0.00  0.00    +0.000 A 
ATOM     16  C   UNL     1      -3.328  14.838  22.253  0.00  0.00    +0.000 A 
ATOM     17 CL   UNL     1      -2.207  16.059  21.794  0.00  0.00    +0.000 Cl
ATOM     18  C   UNL     1      -4.214  14.327  21.305  0.00  0.00    +0.000 A 
BRANCH  14  19
ATOM     19  O   UNL     1      -4.117  12.776  25.138  0.00  0.00    +0.000 OA
ATOM     20  H   UNL     1      -4.745  12.032  25.182  0.00  0.00    +0.000 HD
ENDBRANCH  14  19
ENDBRANCH   9  12
ENDBRANCH   1   3
BRANCH   1  21
ATOM     21  C   UNL     1      -2.259  11.995  19.259  0.00  0.00    +0.000 C 
ATOM     22  C   UNL     1      -1.981  11.445  17.866  0.00  0.00    +0.000 C 
BRANCH  21  29
ATOM     23  C   UNL     1       2.839  16.443  21.089  0.00  0.00    +0.000 C 
ATOM     24  C   UNL     1       1.713  16.022  20.198  0.00  0.00    +0.000 A 
ATOM     25  C   UNL     1       1.160  16.884  19.204  0.00  0.00    +0.000 A 
ATOM     26  C   UNL     1       0.087  16.233  18.643  0.00  0.00    +0.000 A 
ATOM     27  N   UNL     1      -0.055  15.018  19.246  0.00  0.00    +0.000 N 
ATOM     28  N   UNL     1      -1.073  14.165  18.988  0.00  0.00    +0.000 NA
ATOM     29  C   UNL     1      -1.069  13.031  19.642  0.00  0.00    +0.000 A 
ATOM     30  N   UNL     1      -0.034  12.681  20.534  0.00  0.00    +0.000 N 
ATOM     31  C   UNL     1       1.053  13.560  20.814  0.00  0.00    +0.000 A 
ATOM     32  O   UNL     1       1.981  13.289  21.585  0.00  0.00    +0.000 OA
ATOM     33  C   UNL     1       0.968  14.831  20.134  0.00  0.00    +0.000 A 
BRANCH  30  34
ATOM     34  C   UNL     1      -0.111  11.488  21.316  0.00  0.00    +0.000 A 
ATOM     35  C   UNL     1       0.523  10.329  20.842  0.00  0.00    +0.000 A 
ATOM     36  C   UNL     1       0.505   9.155  21.596  0.00  0.00    +0.000 A 
ATOM     37  C   UNL     1      -0.157   9.124  22.818  0.00  0.00    +0.000 A 
ATOM     38  C   UNL     1      -0.843  10.261  23.268  0.00  0.00    +0.000 A 
ATOM     39  C   UNL     1      -0.836  11.432  22.508  0.00  0.00    +0.000 A 
ENDBRANCH  30  34
ENDBRANCH  21  29
ENDBRANCH   1  21
TORSDOF 6
ENDMDL
MODEL 8
REMARK VINA RESULT:      -6.2      7.118     11.741
REMARK  Name = 
REMARK  8 active torsions:
REMARK  status: ('A' for Active; 'I' for Inactive)
REMARK    1  A    between atoms: C_1  and  C_2
REMARK    2  A    between atoms: C_7  and  C_8
REMARK    3  A    between atoms: C_8  and  C_9
REMARK    4  A    between atoms: C_8  and  N_10
REMARK    5  A    between atoms: N_10  and  C_11
REMARK    6  A    between atoms: C_17  and  C_18
REMARK    7  A    between atoms: C_20  and  O_21
REMARK    8  A    between atoms: N_26  and  C_27
REMARK                            x       y       z     vdW  Elec       q    Type
REMARK                         _______ _______ _______ _____ _____    ______ ____
ROOT
ATOM      1  N   UNL     1       8.139  15.087  17.892  0.00  0.00    +0.000 N 
ATOM      2  H   UNL     1       8.609  15.756  17.279  0.00  0.00    +0.000 HD
ENDROOT
BRANCH   1   3
ATOM      3  C   UNL     1       8.863  13.866  17.886  0.00  0.00    +0.000 A 
ATOM      4  N   UNL     1       8.211  12.700  17.738  0.00  0.00    +0.000 NA
ATOM      5  C   UNL     1       8.955  11.579  17.808  0.00  0.00    +0.000 A 
ATOM      6  N   UNL     1      10.293  11.496  17.924  0.00  0.00    +0.000 NA
ATOM      7  C   UNL     1      10.948  12.660  18.010  0.00  0.00    +0.000 A 
ATOM      8  N   UNL     1      12.333  12.536  18.173  0.00  0.00    +0.000 N 
ATOM      9  C   UNL     1      10.286  13.892  18.023  0.00  0.00    +0.000 A 
ATOM     10  H   UNL     1      12.583  11.552  18.078  0.00  0.00    +0.000 HD
ATOM     11  H   UNL     1      12.855  13.130  17.540  0.00  0.00    +0.000 HD
BRANCH   9  12
ATOM     12  C   UNL     1      10.974  15.169  18.301  0.00  0.00    +0.000 A 
ATOM     13  C   UNL     1      11.040  16.146  17.297  0.00  0.00    +0.000 A 
ATOM     14  C   UNL     1      11.118  17.484  17.649  0.00  0.00    +0.000 A 
ATOM     15  C   UNL     1      11.299  17.862  18.970  0.00  0.00    +0.000 A 
ATOM     16  C   UNL     1      11.452  16.881  19.944  0.00  0.00    +0.000 A 
ATOM     17 CL   UNL     1      11.714  17.332  21.583  0.00  0.00    +0.000 Cl
ATOM     18  C   UNL     1      11.296  15.534  19.618  0.00  0.00    +0.000 A 
BRANCH  14  19
ATOM     19  O   UNL     1      10.916  18.453  16.713  0.00  0.00    +0.000 OA
ATOM     20  H   UNL     1       9.982  18.726  16.755  0.00  0.00    +0.000 HD
ENDBRANCH  14  19
ENDBRANCH   9  12
ENDBRANCH   1   3
BRANCH   1  21
ATOM     21  C   UNL     1       7.664  15.820  19.103  0.00  0.00    +0.000 C 
ATOM     22  C   UNL     1       7.533  17.305  18.788  0.00  0.00    +0.000 C 
BRANCH  21  29
ATOM     23  C   UNL     1       1.406  13.241  20.921  0.00  0.00    +0.000 C 
ATOM     24  C   UNL     1       2.309  13.964  19.972  0.00  0.00    +0.000 A 
ATOM     25  C   UNL     1       1.915  14.296  18.642  0.00  0.00    +0.000 A 
ATOM     26  C   UNL     1       3.002  14.855  18.016  0.00  0.00    +0.000 A 
ATOM     27  N   UNL     1       4.050  14.878  18.888  0.00  0.00    +0.000 N 
ATOM     28  N   UNL     1       5.297  15.285  18.557  0.00  0.00    +0.000 NA
ATOM     29  C   UNL     1       6.196  15.257  19.508  0.00  0.00    +0.000 A 
ATOM     30  N   UNL     1       5.881  14.875  20.830  0.00  0.00    +0.000 N 
ATOM     31  C   UNL     1       4.572  14.452  21.203  0.00  0.00    +0.000 A 
ATOM     32  O   UNL     1       4.256  14.114  22.350  0.00  0.00    +0.000 OA
ATOM     33  C   UNL     1       3.632  14.421  20.108  0.00  0.00    +0.000 A 
BRANCH  30  34
ATOM     34  C   UNL     1       6.903  14.748  21.819  0.00  0.00    +0.000 A 
ATOM     35  C   UNL     1       7.163  15.838  22.664  0.00  0.00    +0.000 A 
ATOM     36  C   UNL     1       8.124  15.739  23.671  0.00  0.00    +0.000 A 
ATOM     37  C   UNL     1       8.844  14.561  23.831  0.00  0.00    +0.000 A 
ATOM     38  C   UNL     1       8.632  13.491  22.951  0.00  0.00    +0.000 A 
ATOM     39  C   UNL     1       7.678  13.592  21.936  0.00  0.00    +0.000 A 
ENDBRANCH  30  34
ENDBRANCH  21  29
ENDBRANCH   1  21
TORSDOF 6
ENDMDL
MODEL 9
REMARK VINA RESULT:      -6.1      1.649      2.381
REMARK  Name = 
REMARK  8 active torsions:
REMARK  status: ('A' for Active; 'I' for Inactive)
REMARK    1  A    between atoms: C_1  and  C_2
REMARK    2  A    between atoms: C_7  and  C_8
REMARK    3  A    between atoms: C_8  and  C_9
REMARK    4  A    between atoms: C_8  and  N_10
REMARK    5  A    between atoms: N_10  and  C_11
REMARK    6  A    between atoms: C_17  and  C_18
REMARK    7  A    between atoms: C_20  and  O_21
REMARK    8  A    between atoms: N_26  and  C_27
REMARK                            x       y       z     vdW  Elec       q    Type
REMARK                         _______ _______ _______ _____ _____    ______ ____
ROOT
ATOM      1  N   UNL     1      -2.996  11.657  19.531  0.00  0.00    +0.000 N 
ATOM      2  H   UNL     1      -2.914  12.127  20.434  0.00  0.00    +0.000 HD
ENDROOT
BRANCH   1   3
ATOM      3  C   UNL     1      -4.200  12.067  18.900  0.00  0.00    +0.000 A 
ATOM      4  N   UNL     1      -4.489  11.636  17.661  0.00  0.00    +0.000 NA
ATOM      5  C   UNL     1      -5.616  12.119  17.102  0.00  0.00    +0.000 A 
ATOM      6  N   UNL     1      -6.533  12.917  17.678  0.00  0.00    +0.000 NA
ATOM      7  C   UNL     1      -6.275  13.296  18.935  0.00  0.00    +0.000 A 
ATOM      8  N   UNL     1      -7.227  14.160  19.489  0.00  0.00    +0.000 N 
ATOM      9  C   UNL     1      -5.103  12.924  19.603  0.00  0.00    +0.000 A 
ATOM     10  H   UNL     1      -8.008  14.239  18.838  0.00  0.00    +0.000 HD
ATOM     11  H   UNL     1      -7.523  13.874  20.414  0.00  0.00    +0.000 HD
BRANCH   9  12
ATOM     12  C   UNL     1      -4.718  13.480  20.916  0.00  0.00    +0.000 A 
ATOM     13  C   UNL     1      -4.966  12.734  22.078  0.00  0.00    +0.000 A 
ATOM     14  C   UNL     1      -4.149  12.900  23.184  0.00  0.00    +0.000 A 
ATOM     15  C   UNL     1      -3.196  13.906  23.220  0.00  0.00    +0.000 A 
ATOM     16  C   UNL     1      -3.098  14.789  22.150  0.00  0.00    +0.000 A 
ATOM     17 CL   UNL     1      -1.947  16.066  22.193  0.00  0.00    +0.000 Cl
ATOM     18  C   UNL     1      -3.856  14.586  20.997  0.00  0.00    +0.000 A 
BRANCH  14  19
ATOM     19  O   UNL     1      -4.200  12.010  24.215  0.00  0.00    +0.000 OA
ATOM     20  H   UNL     1      -3.764  12.414  24.986  0.00  0.00    +0.000 HD
ENDBRANCH  14  19
ENDBRANCH   9  12
ENDBRANCH   1   3
BRANCH   1  21
ATOM     21  C   UNL     1      -1.641  11.625  18.900  0.00  0.00    +0.000 C 
ATOM     22  C   UNL     1      -1.772  11.777  17.391  0.00  0.00    +0.000 C 
BRANCH  21  29
ATOM     23  C   UNL     1       2.017  17.012  21.493  0.00  0.00    +0.000 C 
ATOM     24  C   UNL     1       1.208  16.365  20.413  0.00  0.00    +0.000 A 
ATOM     25  C   UNL     1       0.729  17.086  19.279  0.00  0.00    +0.000 A 
ATOM     26  C   UNL     1      -0.056  16.229  18.545  0.00  0.00    +0.000 A 
ATOM     27  N   UNL     1      -0.094  15.020  19.173  0.00  0.00    +0.000 N 
ATOM     28  N   UNL     1      -0.853  13.980  18.759  0.00  0.00    +0.000 NA
ATOM     29  C   UNL     1      -0.777  12.879  19.463  0.00  0.00    +0.000 A 
ATOM     30  N   UNL     1       0.089  12.752  20.569  0.00  0.00    +0.000 N 
ATOM     31  C   UNL     1       0.905  13.831  21.018  0.00  0.00    +0.000 A 
ATOM     32  O   UNL     1       1.680  13.759  21.979  0.00  0.00    +0.000 OA
ATOM     33  C   UNL     1       0.731  15.051  20.264  0.00  0.00    +0.000 A 
BRANCH  30  34
ATOM     34  C   UNL     1       0.071  11.580  21.384  0.00  0.00    +0.000 A 
ATOM     35  C   UNL     1      -0.816  11.528  22.471  0.00  0.00    +0.000 A 
ATOM     36  C   UNL     1      -0.894  10.384  23.266  0.00  0.00    +0.000 A 
ATOM     37  C   UNL     1      -0.079   9.291  22.993  0.00  0.00    +0.000 A 
ATOM     38  C   UNL     1       0.851   9.361  21.947  0.00  0.00    +0.000 A 
ATOM     39  C   UNL     1       0.939  10.509  21.158  0.00  0.00    +0.000 A 
ENDBRANCH  30  34
ENDBRANCH  21  29
ENDBRANCH   1  21
TORSDOF 6
ENDMDL
