MODEL 1
REMARK VINA RESULT:      -7.7      0.000      0.000
REMARK  Name = 
REMARK  4 active torsions:
REMARK  status: ('A' for Active; 'I' for Inactive)
REMARK    1  A    between atoms: C_1  and  O_2
REMARK    2  A    between atoms: O_2  and  C_3
REMARK    3  A    between atoms: C_3  and  C_4
REMARK    4  A    between atoms: C_12  and  C_14
REMARK                            x       y       z     vdW  Elec       q    Type
REMARK                         _______ _______ _______ _____ _____    ______ ____
ROOT
ATOM      1  C   UNL     1       6.621   5.045  15.422  0.00  0.00    +0.000 C 
ATOM      2  C   UNL     1       7.076   4.267  16.662  0.00  0.00    +0.000 C 
ATOM      3  C   UNL     1       7.231   5.172  17.875  0.00  0.00    +0.000 C 
ATOM      4  C   UNL     1       6.001   6.049  18.101  0.00  0.00    +0.000 C 
ATOM      5  C   UNL     1       5.643   6.762  16.782  0.00  0.00    +0.000 C 
ATOM      6  C   UNL     1       4.279   7.351  17.084  0.00  0.00    +0.000 C 
ATOM      7  C   UNL     1       3.631   6.295  17.976  0.00  0.00    +0.000 C 
ATOM      8  N   UNL     1       4.710   5.450  18.494  0.00  0.00    +0.000 N 
ATOM      9  C   UNL     1       4.574   4.245  19.180  0.00  0.00    +0.000 C 
ATOM     10  O   UNL     1       5.536   3.575  19.548  0.00  0.00    +0.000 OA
ATOM     11  O   UNL     1       5.456   5.826  15.714  0.00  0.00    +0.000 OA
ENDROOT
BRANCH   9  12
ATOM     12  C   UNL     1       3.225   3.702  19.497  0.00  0.00    +0.000 A 
ATOM     13  C   UNL     1       2.540   4.055  20.662  0.00  0.00    +0.000 A 
ATOM     14  C   UNL     1       1.284   3.515  20.895  0.00  0.00    +0.000 A 
ATOM     15  N   UNL     1       0.703   2.608  20.085  0.00  0.00    +0.000 NA
ATOM     16  C   UNL     1       1.413   2.227  18.996  0.00  0.00    +0.000 A 
ATOM     17  C   UNL     1       2.655   2.742  18.660  0.00  0.00    +0.000 A 
ATOM     18  F   UNL     1       3.254   2.315  17.538  0.00  0.00    +0.000 F 
ENDBRANCH   9  12
BRANCH   1  19
ATOM     19  C   UNL     1       6.253   4.049  14.310  0.00  0.00    +0.000 C 
BRANCH  19  21
ATOM     20  C   UNL     1       6.594   3.477  12.054  0.00  0.00    +0.000 C 
ATOM     21  O   UNL     1       6.957   4.365  13.103  0.00  0.00    +0.000 OA
ENDBRANCH  19  21
ENDBRANCH   1  19
TORSDOF 3
ENDMDL
MODEL 2
REMARK VINA RESULT:      -7.5      1.152      1.541
REMARK  Name = 
REMARK  4 active torsions:
REMARK  status: ('A' for Active; 'I' for Inactive)
REMARK    1  A    between atoms: C_1  and  O_2
REMARK    2  A    between atoms: O_2  and  C_3
REMARK    3  A    between atoms: C_3  and  C_4
REMARK    4  A    between atoms: C_12  and  C_14
REMARK                            x       y       z     vdW  Elec       q    Type
REMARK                         _______ _______ _______ _____ _____    ______ ____
ROOT
ATOM      1  C   UNL     1       6.943   5.189  15.554  0.00  0.00    +0.000 C 
ATOM      2  C   UNL     1       7.285   4.392  16.817  0.00  0.00    +0.000 C 
ATOM      3  C   UNL     1       7.271   5.267  18.062  0.00  0.00    +0.000 C 
ATOM      4  C   UNL     1       5.992   6.094  18.170  0.00  0.00    +0.000 C 
ATOM      5  C   UNL     1       5.757   6.833  16.837  0.00  0.00    +0.000 C 
ATOM      6  C   UNL     1       4.347   7.367  16.998  0.00  0.00    +0.000 C 
ATOM      7  C   UNL     1       3.643   6.264  17.785  0.00  0.00    +0.000 C 
ATOM      8  N   UNL     1       4.688   5.442  18.400  0.00  0.00    +0.000 N 
ATOM      9  C   UNL     1       4.521   4.213  19.037  0.00  0.00    +0.000 C 
ATOM     10  O   UNL     1       5.459   3.566  19.494  0.00  0.00    +0.000 OA
ATOM     11  O   UNL     1       5.725   5.923  15.732  0.00  0.00    +0.000 OA
ENDROOT
BRANCH   9  12
ATOM     12  C   UNL     1       3.165   3.616  19.186  0.00  0.00    +0.000 A 
ATOM     13  C   UNL     1       2.650   2.708  18.259  0.00  0.00    +0.000 A 
ATOM     14  C   UNL     1       1.381   2.187  18.459  0.00  0.00    +0.000 A 
ATOM     15  N   UNL     1       0.578   2.557  19.476  0.00  0.00    +0.000 NA
ATOM     16  C   UNL     1       1.069   3.491  20.326  0.00  0.00    +0.000 A 
ATOM     17  C   UNL     1       2.339   4.036  20.229  0.00  0.00    +0.000 A 
ATOM     18  F   UNL     1       2.734   4.931  21.148  0.00  0.00    +0.000 F 
ENDBRANCH   9  12
BRANCH   1  19
ATOM     19  C   UNL     1       6.738   4.215  14.383  0.00  0.00    +0.000 C 
BRANCH  19  21
ATOM     20  C   UNL     1       5.238   3.603  12.678  0.00  0.00    +0.000 C 
ATOM     21  O   UNL     1       5.377   4.245  13.939  0.00  0.00    +0.000 OA
ENDBRANCH  19  21
ENDBRANCH   1  19
TORSDOF 3
ENDMDL
MODEL 3
REMARK VINA RESULT:      -6.4      1.120      1.189
REMARK  Name = 
REMARK  4 active torsions:
REMARK  status: ('A' for Active; 'I' for Inactive)
REMARK    1  A    between atoms: C_1  and  O_2
REMARK    2  A    between atoms: O_2  and  C_3
REMARK    3  A    between atoms: C_3  and  C_4
REMARK    4  A    between atoms: C_12  and  C_14
REMARK                            x       y       z     vdW  Elec       q    Type
REMARK                         _______ _______ _______ _____ _____    ______ ____
ROOT
ATOM      1  C   UNL     1       6.166   5.071  15.183  0.00  0.00    +0.000 C 
ATOM      2  C   UNL     1       6.752   4.234  16.326  0.00  0.00    +0.000 C 
ATOM      3  C   UNL     1       7.137   5.095  17.520  0.00  0.00    +0.000 C 
ATOM      4  C   UNL     1       6.008   6.032  17.944  0.00  0.00    +0.000 C 
ATOM      5  C   UNL     1       5.503   6.801  16.707  0.00  0.00    +0.000 C 
ATOM      6  C   UNL     1       4.235   7.456  17.220  0.00  0.00    +0.000 C 
ATOM      7  C   UNL     1       3.665   6.413  18.177  0.00  0.00    +0.000 C 
ATOM      8  N   UNL     1       4.756   5.495  18.512  0.00  0.00    +0.000 N 
ATOM      9  C   UNL     1       4.651   4.281  19.187  0.00  0.00    +0.000 C 
ATOM     10  O   UNL     1       5.615   3.548  19.395  0.00  0.00    +0.000 OA
ATOM     11  O   UNL     1       5.106   5.908  15.660  0.00  0.00    +0.000 OA
ENDROOT
BRANCH   9  12
ATOM     12  C   UNL     1       3.333   3.805  19.690  0.00  0.00    +0.000 A 
ATOM     13  C   UNL     1       2.133   4.410  19.309  0.00  0.00    +0.000 A 
ATOM     14  C   UNL     1       0.940   3.915  19.812  0.00  0.00    +0.000 A 
ATOM     15  N   UNL     1       0.870   2.912  20.709  0.00  0.00    +0.000 NA
ATOM     16  C   UNL     1       2.049   2.384  21.119  0.00  0.00    +0.000 A 
ATOM     17  C   UNL     1       3.286   2.784  20.641  0.00  0.00    +0.000 A 
ATOM     18  F   UNL     1       4.389   2.168  21.093  0.00  0.00    +0.000 F 
ENDBRANCH   9  12
BRANCH   1  19
ATOM     19  C   UNL     1       5.581   4.130  14.118  0.00  0.00    +0.000 C 
BRANCH  19  21
ATOM     20  C   UNL     1       5.988   3.069  12.060  0.00  0.00    +0.000 C 
ATOM     21  O   UNL     1       6.502   3.966  13.035  0.00  0.00    +0.000 OA
ENDBRANCH  19  21
ENDBRANCH   1  19
TORSDOF 3
ENDMDL
MODEL 4
REMARK VINA RESULT:      -6.4      2.546      6.071
REMARK  Name = 
REMARK  4 active torsions:
REMARK  status: ('A' for Active; 'I' for Inactive)
REMARK    1  A    between atoms: C_1  and  O_2
REMARK    2  A    between atoms: O_2  and  C_3
REMARK    3  A    between atoms: C_3  and  C_4
REMARK    4  A    between atoms: C_12  and  C_14
REMARK                            x       y       z     vdW  Elec       q    Type
REMARK                         _______ _______ _______ _____ _____    ______ ____
ROOT
ATOM      1  C   UNL     1       1.366   4.955  20.705  0.00  0.00    +0.000 C 
ATOM      2  C   UNL     1       2.660   4.306  21.209  0.00  0.00    +0.000 C 
ATOM      3  C   UNL     1       2.877   2.927  20.604  0.00  0.00    +0.000 C 
ATOM      4  C   UNL     1       2.730   2.934  19.084  0.00  0.00    +0.000 C 
ATOM      5  C   UNL     1       1.401   3.621  18.712  0.00  0.00    +0.000 C 
ATOM      6  C   UNL     1       1.530   3.800  17.212  0.00  0.00    +0.000 C 
ATOM      7  C   UNL     1       3.015   4.097  17.021  0.00  0.00    +0.000 C 
ATOM      8  N   UNL     1       3.701   3.651  18.236  0.00  0.00    +0.000 N 
ATOM      9  C   UNL     1       5.025   3.905  18.591  0.00  0.00    +0.000 C 
ATOM     10  O   UNL     1       5.515   3.526  19.652  0.00  0.00    +0.000 OA
ATOM     11  O   UNL     1       1.314   4.935  19.273  0.00  0.00    +0.000 OA
ENDROOT
BRANCH   9  12
ATOM     12  C   UNL     1       5.919   4.673  17.682  0.00  0.00    +0.000 A 
ATOM     13  C   UNL     1       6.387   5.948  18.008  0.00  0.00    +0.000 A 
ATOM     14  C   UNL     1       7.219   6.608  17.118  0.00  0.00    +0.000 A 
ATOM     15  N   UNL     1       7.559   6.113  15.911  0.00  0.00    +0.000 NA
ATOM     16  C   UNL     1       7.040   4.905  15.585  0.00  0.00    +0.000 A 
ATOM     17  C   UNL     1       6.234   4.154  16.426  0.00  0.00    +0.000 A 
ATOM     18  F   UNL     1       5.802   2.953  16.012  0.00  0.00    +0.000 F 
ENDBRANCH   9  12
BRANCH   1  19
ATOM     19  C   UNL     1       1.330   6.424  21.157  0.00  0.00    +0.000 C 
BRANCH  19  21
ATOM     20  C   UNL     1       1.411   8.576  20.213  0.00  0.00    +0.000 C 
ATOM     21  O   UNL     1       1.955   7.263  20.180  0.00  0.00    +0.000 OA
ENDBRANCH  19  21
ENDBRANCH   1  19
TORSDOF 3
ENDMDL
MODEL 5
REMARK VINA RESULT:      -6.3      2.690      6.198
REMARK  Name = 
REMARK  4 active torsions:
REMARK  status: ('A' for Active; 'I' for Inactive)
REMARK    1  A    between atoms: C_1  and  O_2
REMARK    2  A    between atoms: O_2  and  C_3
REMARK    3  A    between atoms: C_3  and  C_4
REMARK    4  A    between atoms: C_12  and  C_14
REMARK                            x       y       z     vdW  Elec       q    Type
REMARK                         _______ _______ _______ _____ _____    ______ ____
ROOT
ATOM      1  C   UNL     1       1.404   4.988  20.739  0.00  0.00    +0.000 C 
ATOM      2  C   UNL     1       2.709   4.339  21.215  0.00  0.00    +0.000 C 
ATOM      3  C   UNL     1       2.864   2.922  20.684  0.00  0.00    +0.000 C 
ATOM      4  C   UNL     1       2.637   2.842  19.176  0.00  0.00    +0.000 C 
ATOM      5  C   UNL     1       1.306   3.539  18.831  0.00  0.00    +0.000 C 
ATOM      6  C   UNL     1       1.360   3.625  17.318  0.00  0.00    +0.000 C 
ATOM      7  C   UNL     1       2.839   3.874  17.035  0.00  0.00    +0.000 C 
ATOM      8  N   UNL     1       3.578   3.484  18.237  0.00  0.00    +0.000 N 
ATOM      9  C   UNL     1       4.924   3.726  18.509  0.00  0.00    +0.000 C 
ATOM     10  O   UNL     1       5.461   3.399  19.564  0.00  0.00    +0.000 OA
ATOM     11  O   UNL     1       1.277   4.885  19.316  0.00  0.00    +0.000 OA
ENDROOT
BRANCH   9  12
ATOM     12  C   UNL     1       5.785   4.417  17.511  0.00  0.00    +0.000 A 
ATOM     13  C   UNL     1       6.042   3.872  16.251  0.00  0.00    +0.000 A 
ATOM     14  C   UNL     1       6.851   4.569  15.367  0.00  0.00    +0.000 A 
ATOM     15  N   UNL     1       7.466   5.728  15.678  0.00  0.00    +0.000 NA
ATOM     16  C   UNL     1       7.260   6.206  16.929  0.00  0.00    +0.000 A 
ATOM     17  C   UNL     1       6.435   5.601  17.864  0.00  0.00    +0.000 A 
ATOM     18  F   UNL     1       6.278   6.181  19.064  0.00  0.00    +0.000 F 
ENDBRANCH   9  12
BRANCH   1  19
ATOM     19  C   UNL     1       1.422   6.482  21.103  0.00  0.00    +0.000 C 
BRANCH  19  21
ATOM     20  C   UNL     1       1.503   8.572  20.029  0.00  0.00    +0.000 C 
ATOM     21  O   UNL     1       2.015   7.246  20.047  0.00  0.00    +0.000 OA
ENDBRANCH  19  21
ENDBRANCH   1  19
TORSDOF 3
ENDMDL
MODEL 6
REMARK VINA RESULT:      -6.3      2.393      5.995
REMARK  Name = 
REMARK  4 active torsions:
REMARK  status: ('A' for Active; 'I' for Inactive)
REMARK    1  A    between atoms: C_1  and  O_2
REMARK    2  A    between atoms: O_2  and  C_3
REMARK    3  A    between atoms: C_3  and  C_4
REMARK    4  A    between atoms: C_12  and  C_14
REMARK                            x       y       z     vdW  Elec       q    Type
REMARK                         _______ _______ _______ _____ _____    ______ ____
ROOT
ATOM      1  C   UNL     1       1.858   2.876  20.817  0.00  0.00    +0.000 C 
ATOM      2  C   UNL     1       1.735   2.258  19.420  0.00  0.00    +0.000 C 
ATOM      3  C   UNL     1       0.995   3.174  18.457  0.00  0.00    +0.000 C 
ATOM      4  C   UNL     1       1.555   4.594  18.467  0.00  0.00    +0.000 C 
ATOM      5  C   UNL     1       1.638   5.091  19.924  0.00  0.00    +0.000 C 
ATOM      6  C   UNL     1       2.452   6.364  19.794  0.00  0.00    +0.000 C 
ATOM      7  C   UNL     1       3.448   6.030  18.685  0.00  0.00    +0.000 C 
ATOM      8  N   UNL     1       2.914   4.873  17.963  0.00  0.00    +0.000 N 
ATOM      9  C   UNL     1       3.577   4.102  17.010  0.00  0.00    +0.000 C 
ATOM     10  O   UNL     1       3.070   3.118  16.477  0.00  0.00    +0.000 OA
ATOM     11  O   UNL     1       2.404   4.199  20.740  0.00  0.00    +0.000 OA
ENDROOT
BRANCH   9  12
ATOM     12  C   UNL     1       4.966   4.441  16.594  0.00  0.00    +0.000 A 
ATOM     13  C   UNL     1       5.273   4.832  15.289  0.00  0.00    +0.000 A 
ATOM     14  C   UNL     1       6.587   5.137  14.969  0.00  0.00    +0.000 A 
ATOM     15  N   UNL     1       7.611   5.017  15.837  0.00  0.00    +0.000 NA
ATOM     16  C   UNL     1       7.303   4.570  17.078  0.00  0.00    +0.000 A 
ATOM     17  C   UNL     1       6.015   4.281  17.501  0.00  0.00    +0.000 A 
ATOM     18  F   UNL     1       5.821   3.876  18.765  0.00  0.00    +0.000 F 
ENDBRANCH   9  12
BRANCH   1  19
ATOM     19  C   UNL     1       2.814   2.021  21.665  0.00  0.00    +0.000 C 
BRANCH  19  21
ATOM     20  C   UNL     1       4.860   1.315  20.745  0.00  0.00    +0.000 C 
ATOM     21  O   UNL     1       4.174   2.377  21.396  0.00  0.00    +0.000 OA
ENDBRANCH  19  21
ENDBRANCH   1  19
TORSDOF 3
ENDMDL
MODEL 7
REMARK VINA RESULT:      -6.2      2.017      3.560
REMARK  Name = 
REMARK  4 active torsions:
REMARK  status: ('A' for Active; 'I' for Inactive)
REMARK    1  A    between atoms: C_1  and  O_2
REMARK    2  A    between atoms: O_2  and  C_3
REMARK    3  A    between atoms: C_3  and  C_4
REMARK    4  A    between atoms: C_12  and  C_14
REMARK                            x       y       z     vdW  Elec       q    Type
REMARK                         _______ _______ _______ _____ _____    ______ ____
ROOT
ATOM      1  C   UNL     1       7.255   6.371  17.362  0.00  0.00    +0.000 C 
ATOM      2  C   UNL     1       6.018   7.274  17.437  0.00  0.00    +0.000 C 
ATOM      3  C   UNL     1       5.047   7.002  16.298  0.00  0.00    +0.000 C 
ATOM      4  C   UNL     1       4.730   5.516  16.151  0.00  0.00    +0.000 C 
ATOM      5  C   UNL     1       6.052   4.723  16.100  0.00  0.00    +0.000 C 
ATOM      6  C   UNL     1       5.583   3.288  16.237  0.00  0.00    +0.000 C 
ATOM      7  C   UNL     1       4.400   3.397  17.196  0.00  0.00    +0.000 C 
ATOM      8  N   UNL     1       3.976   4.799  17.197  0.00  0.00    +0.000 N 
ATOM      9  C   UNL     1       3.071   5.399  18.071  0.00  0.00    +0.000 C 
ATOM     10  O   UNL     1       2.797   6.596  18.029  0.00  0.00    +0.000 OA
ATOM     11  O   UNL     1       6.871   4.995  17.242  0.00  0.00    +0.000 OA
ENDROOT
BRANCH   9  12
ATOM     12  C   UNL     1       2.387   4.597  19.122  0.00  0.00    +0.000 A 
ATOM     13  C   UNL     1       2.811   4.604  20.452  0.00  0.00    +0.000 A 
ATOM     14  C   UNL     1       2.128   3.837  21.382  0.00  0.00    +0.000 A 
ATOM     15  N   UNL     1       1.102   3.022  21.064  0.00  0.00    +0.000 NA
ATOM     16  C   UNL     1       0.749   2.976  19.757  0.00  0.00    +0.000 A 
ATOM     17  C   UNL     1       1.346   3.738  18.765  0.00  0.00    +0.000 A 
ATOM     18  F   UNL     1       0.893   3.637  17.506  0.00  0.00    +0.000 F 
ENDBRANCH   9  12
BRANCH   1  19
ATOM     19  C   UNL     1       8.068   6.522  18.658  0.00  0.00    +0.000 C 
BRANCH  19  21
ATOM     20  C   UNL     1       8.587   5.199  20.532  0.00  0.00    +0.000 C 
ATOM     21  O   UNL     1       7.549   5.660  19.677  0.00  0.00    +0.000 OA
ENDBRANCH  19  21
ENDBRANCH   1  19
TORSDOF 3
ENDMDL
MODEL 8
REMARK VINA RESULT:      -6.2      2.592      3.870
REMARK  Name = 
REMARK  4 active torsions:
REMARK  status: ('A' for Active; 'I' for Inactive)
REMARK    1  A    between atoms: C_1  and  O_2
REMARK    2  A    between atoms: O_2  and  C_3
REMARK    3  A    between atoms: C_3  and  C_4
REMARK    4  A    between atoms: C_12  and  C_14
REMARK                            x       y       z     vdW  Elec       q    Type
REMARK                         _______ _______ _______ _____ _____    ______ ____
ROOT
ATOM      1  C   UNL     1       5.965   3.939  15.862  0.00  0.00    +0.000 C 
ATOM      2  C   UNL     1       4.495   3.544  16.040  0.00  0.00    +0.000 C 
ATOM      3  C   UNL     1       4.215   3.016  17.439  0.00  0.00    +0.000 C 
ATOM      4  C   UNL     1       4.750   3.947  18.525  0.00  0.00    +0.000 C 
ATOM      5  C   UNL     1       6.226   4.276  18.222  0.00  0.00    +0.000 C 
ATOM      6  C   UNL     1       6.522   5.398  19.197  0.00  0.00    +0.000 C 
ATOM      7  C   UNL     1       5.208   6.175  19.245  0.00  0.00    +0.000 C 
ATOM      8  N   UNL     1       4.166   5.288  18.724  0.00  0.00    +0.000 N 
ATOM      9  C   UNL     1       2.857   5.637  18.394  0.00  0.00    +0.000 C 
ATOM     10  O   UNL     1       2.053   4.837  17.923  0.00  0.00    +0.000 OA
ATOM     11  O   UNL     1       6.382   4.824  16.909  0.00  0.00    +0.000 OA
ENDROOT
BRANCH   9  12
ATOM     12  C   UNL     1       2.371   7.029  18.596  0.00  0.00    +0.000 A 
ATOM     13  C   UNL     1       2.509   8.011  17.613  0.00  0.00    +0.000 A 
ATOM     14  C   UNL     1       2.031   9.288  17.864  0.00  0.00    +0.000 A 
ATOM     15  N   UNL     1       1.490   9.661  19.041  0.00  0.00    +0.000 NA
ATOM     16  C   UNL     1       1.428   8.713  20.006  0.00  0.00    +0.000 A 
ATOM     17  C   UNL     1       1.842   7.401  19.833  0.00  0.00    +0.000 A 
ATOM     18  F   UNL     1       1.703   6.536  20.849  0.00  0.00    +0.000 F 
ENDBRANCH   9  12
BRANCH   1  19
ATOM     19  C   UNL     1       6.128   4.681  14.525  0.00  0.00    +0.000 C 
BRANCH  19  21
ATOM     20  C   UNL     1       6.351   3.527  12.489  0.00  0.00    +0.000 C 
ATOM     21  O   UNL     1       5.441   3.986  13.480  0.00  0.00    +0.000 OA
ENDBRANCH  19  21
ENDBRANCH   1  19
TORSDOF 3
ENDMDL
MODEL 9
REMARK VINA RESULT:      -6.0      1.940      3.678
REMARK  Name = 
REMARK  4 active torsions:
REMARK  status: ('A' for Active; 'I' for Inactive)
REMARK    1  A    between atoms: C_1  and  O_2
REMARK    2  A    between atoms: O_2  and  C_3
REMARK    3  A    between atoms: C_3  and  C_4
REMARK    4  A    between atoms: C_12  and  C_14
REMARK                            x       y       z     vdW  Elec       q    Type
REMARK                         _______ _______ _______ _____ _____    ______ ____
ROOT
ATOM      1  C   UNL     1       7.424   6.690  17.324  0.00  0.00    +0.000 C 
ATOM      2  C   UNL     1       6.082   7.413  17.486  0.00  0.00    +0.000 C 
ATOM      3  C   UNL     1       5.203   7.259  16.254  0.00  0.00    +0.000 C 
ATOM      4  C   UNL     1       5.081   5.803  15.810  0.00  0.00    +0.000 C 
ATOM      5  C   UNL     1       6.492   5.191  15.700  0.00  0.00    +0.000 C 
ATOM      6  C   UNL     1       6.200   3.713  15.534  0.00  0.00    +0.000 C 
ATOM      7  C   UNL     1       4.973   3.497  16.416  0.00  0.00    +0.000 C 
ATOM      8  N   UNL     1       4.377   4.814  16.652  0.00  0.00    +0.000 N 
ATOM      9  C   UNL     1       3.367   5.127  17.560  0.00  0.00    +0.000 C 
ATOM     10  O   UNL     1       2.949   6.270  17.726  0.00  0.00    +0.000 OA
ATOM     11  O   UNL     1       7.221   5.329  16.924  0.00  0.00    +0.000 OA
ENDROOT
BRANCH   9  12
ATOM     12  C   UNL     1       2.744   4.063  18.395  0.00  0.00    +0.000 A 
ATOM     13  C   UNL     1       1.452   3.593  18.152  0.00  0.00    +0.000 A 
ATOM     14  C   UNL     1       0.932   2.598  18.965  0.00  0.00    +0.000 A 
ATOM     15  N   UNL     1       1.584   2.094  20.031  0.00  0.00    +0.000 NA
ATOM     16  C   UNL     1       2.809   2.612  20.292  0.00  0.00    +0.000 A 
ATOM     17  C   UNL     1       3.425   3.577  19.512  0.00  0.00    +0.000 A 
ATOM     18  F   UNL     1       4.656   3.994  19.845  0.00  0.00    +0.000 F 
ENDBRANCH   9  12
BRANCH   1  19
ATOM     19  C   UNL     1       8.156   6.678  18.676  0.00  0.00    +0.000 C 
BRANCH  19  21
ATOM     20  C   UNL     1       8.553   5.198  20.460  0.00  0.00    +0.000 C 
ATOM     21  O   UNL     1       7.584   5.694  19.546  0.00  0.00    +0.000 OA
ENDBRANCH  19  21
ENDBRANCH   1  19
TORSDOF 3
ENDMDL
