MODEL 1
REMARK VINA RESULT:      -7.2      0.000      0.000
REMARK  Name = 
REMARK  13 active torsions:
REMARK  status: ('A' for Active; 'I' for Inactive)
REMARK    1  A    between atoms: C_1  and  C_2
REMARK    2  A    between atoms: C_2  and  O_3
REMARK    3  A    between atoms: O_3  and  C_4
REMARK    4  A    between atoms: C_4  and  C_5
REMARK    5  A    between atoms: C_4  and  C_27
REMARK    6  A    between atoms: C_5  and  C_6
REMARK    7  A    between atoms: C_9  and  O_10
REMARK    8  A    between atoms: O_10  and  C_11
REMARK    9  A    between atoms: C_11  and  C_12
REMARK   10  A    between atoms: C_12  and  C_13
REMARK   11  A    between atoms: C_15  and  C_16
REMARK   12  A    between atoms: C_23  and  C_24
REMARK   13  A    between atoms: C_27  and  O_29
REMARK                            x       y       z     vdW  Elec       q    Type
REMARK                         _______ _______ _______ _____ _____    ______ ____
ROOT
ATOM      1  C   UNL     1       5.575   4.907  18.832  0.00  0.00    +0.000 A 
ATOM      2  C   UNL     1       4.942   5.913  18.109  0.00  0.00    +0.000 A 
ATOM      3  C   UNL     1       5.701   6.942  17.555  0.00  0.00    +0.000 A 
ATOM      4  C   UNL     1       7.080   6.958  17.731  0.00  0.00    +0.000 A 
ATOM      5  C   UNL     1       7.625   5.929  18.488  0.00  0.00    +0.000 A 
ATOM      6  N   UNL     1       6.909   4.917  19.043  0.00  0.00    +0.000 NA
ENDROOT
BRANCH   1   7
ATOM      7  C   UNL     1       4.812   3.701  19.325  0.00  0.00    +0.000 C 
BRANCH   7   8
ATOM      8  C   UNL     1       3.327   3.667  18.957  0.00  0.00    +0.000 C 
BRANCH   8   9
ATOM      9  C   UNL     1       3.050   2.566  17.927  0.00  0.00    +0.000 C 
ATOM     10  O   UNL     1       3.626   1.489  17.881  0.00  0.00    +0.000 OA
BRANCH   9  11
ATOM     11  O   UNL     1       2.127   2.951  17.007  0.00  0.00    +0.000 OA
ATOM     12  H   UNL     1       1.451   3.496  17.471  0.00  0.00    +0.000 HD
ENDBRANCH   9  11
ENDBRANCH   8   9
BRANCH   8  13
ATOM     13  O   UNL     1       2.445   3.500  20.090  0.00  0.00    +0.000 OA
BRANCH  13  15
ATOM     14  C   UNL     1       1.896   5.790  20.529  0.00  0.00    +0.000 C 
ATOM     15  C   UNL     1       1.363   4.435  20.107  0.00  0.00    +0.000 C 
ENDBRANCH  13  15
ENDBRANCH   8  13
ENDBRANCH   7   8
ENDBRANCH   1   7
BRANCH   4  16
ATOM     16  O   UNL     1       7.944   7.869  17.189  0.00  0.00    +0.000 OA
BRANCH  16  17
ATOM     17  C   UNL     1       7.986   9.136  17.853  0.00  0.00    +0.000 C 
BRANCH  17  18
ATOM     18  C   UNL     1       9.078   9.138  18.918  0.00  0.00    +0.000 C 
BRANCH  18  19
ATOM     19  C   UNL     1       9.356  10.520  19.385  0.00  0.00    +0.000 A 
ATOM     20  N   UNL     1       8.956  10.945  20.639  0.00  0.00    +0.000 NA
ATOM     21  C   UNL     1       9.391  12.188  20.717  0.00  0.00    +0.000 A 
ATOM     22  O   UNL     1      10.061  12.611  19.602  0.00  0.00    +0.000 OA
ATOM     23  C   UNL     1      10.042  11.542  18.758  0.00  0.00    +0.000 A 
ATOM     24  C   UNL     1      10.727  11.708  17.467  0.00  0.00    +0.000 C 
BRANCH  21  25
ATOM     25  C   UNL     1       9.271  13.165  21.802  0.00  0.00    +0.000 A 
ATOM     26  C   UNL     1       8.530  12.866  22.953  0.00  0.00    +0.000 A 
ATOM     27  C   UNL     1       8.407  13.804  23.987  0.00  0.00    +0.000 A 
ATOM     28  C   UNL     1       9.024  15.049  23.879  0.00  0.00    +0.000 A 
ATOM     29  C   UNL     1       9.770  15.357  22.744  0.00  0.00    +0.000 A 
ATOM     30  C   UNL     1       9.896  14.421  21.716  0.00  0.00    +0.000 A 
ENDBRANCH  21  25
ENDBRANCH  18  19
ENDBRANCH  17  18
ENDBRANCH  16  17
ENDBRANCH   4  16
TORSDOF 11
ENDMDL
MODEL 2
REMARK VINA RESULT:      -7.0      2.222     10.347
REMARK  Name = 
REMARK  13 active torsions:
REMARK  status: ('A' for Active; 'I' for Inactive)
REMARK    1  A    between atoms: C_1  and  C_2
REMARK    2  A    between atoms: C_2  and  O_3
REMARK    3  A    between atoms: O_3  and  C_4
REMARK    4  A    between atoms: C_4  and  C_5
REMARK    5  A    between atoms: C_4  and  C_27
REMARK    6  A    between atoms: C_5  and  C_6
REMARK    7  A    between atoms: C_9  and  O_10
REMARK    8  A    between atoms: O_10  and  C_11
REMARK    9  A    between atoms: C_11  and  C_12
REMARK   10  A    between atoms: C_12  and  C_13
REMARK   11  A    between atoms: C_15  and  C_16
REMARK   12  A    between atoms: C_23  and  C_24
REMARK   13  A    between atoms: C_27  and  O_29
REMARK                            x       y       z     vdW  Elec       q    Type
REMARK                         _______ _______ _______ _____ _____    ______ ____
ROOT
ATOM      1  C   UNL     1       9.767  12.777  19.334  0.00  0.00    +0.000 A 
ATOM      2  C   UNL     1       9.797  11.906  20.418  0.00  0.00    +0.000 A 
ATOM      3  C   UNL     1       9.452  10.568  20.235  0.00  0.00    +0.000 A 
ATOM      4  C   UNL     1       9.077  10.117  18.975  0.00  0.00    +0.000 A 
ATOM      5  C   UNL     1       9.050  11.059  17.956  0.00  0.00    +0.000 A 
ATOM      6  N   UNL     1       9.377  12.368  18.107  0.00  0.00    +0.000 NA
ENDROOT
BRANCH   1   7
ATOM      7  C   UNL     1      10.270  14.195  19.456  0.00  0.00    +0.000 C 
BRANCH   7   8
ATOM      8  C   UNL     1       9.191  15.260  19.662  0.00  0.00    +0.000 C 
BRANCH   8   9
ATOM      9  C   UNL     1       9.018  16.107  18.396  0.00  0.00    +0.000 C 
ATOM     10  O   UNL     1       9.241  17.306  18.321  0.00  0.00    +0.000 OA
BRANCH   9  11
ATOM     11  O   UNL     1       8.510  15.383  17.365  0.00  0.00    +0.000 OA
ATOM     12  H   UNL     1       8.057  16.007  16.753  0.00  0.00    +0.000 HD
ENDBRANCH   9  11
ENDBRANCH   8   9
BRANCH   8  13
ATOM     13  O   UNL     1       7.910  14.728  20.065  0.00  0.00    +0.000 OA
BRANCH  13  15
ATOM     14  C   UNL     1       8.294  15.471  22.311  0.00  0.00    +0.000 C 
ATOM     15  C   UNL     1       7.316  15.444  21.152  0.00  0.00    +0.000 C 
ENDBRANCH  13  15
ENDBRANCH   8  13
ENDBRANCH   7   8
ENDBRANCH   1   7
BRANCH   4  16
ATOM     16  O   UNL     1       8.778   8.822  18.647  0.00  0.00    +0.000 OA
BRANCH  16  17
ATOM     17  C   UNL     1       7.609   8.656  17.839  0.00  0.00    +0.000 C 
BRANCH  17  18
ATOM     18  C   UNL     1       7.609   7.276  17.188  0.00  0.00    +0.000 C 
BRANCH  18  19
ATOM     19  C   UNL     1       6.773   6.327  17.966  0.00  0.00    +0.000 A 
ATOM     20  N   UNL     1       5.493   6.000  17.556  0.00  0.00    +0.000 NA
ATOM     21  C   UNL     1       5.075   5.128  18.454  0.00  0.00    +0.000 A 
ATOM     22  O   UNL     1       5.996   4.848  19.425  0.00  0.00    +0.000 OA
ATOM     23  C   UNL     1       7.080   5.610  19.107  0.00  0.00    +0.000 A 
ATOM     24  C   UNL     1       8.255   5.486  19.983  0.00  0.00    +0.000 C 
BRANCH  21  25
ATOM     25  C   UNL     1       3.797   4.422  18.561  0.00  0.00    +0.000 A 
ATOM     26  C   UNL     1       3.659   3.321  19.417  0.00  0.00    +0.000 A 
ATOM     27  C   UNL     1       2.438   2.638  19.513  0.00  0.00    +0.000 A 
ATOM     28  C   UNL     1       1.345   3.051  18.753  0.00  0.00    +0.000 A 
ATOM     29  C   UNL     1       1.464   4.148  17.905  0.00  0.00    +0.000 A 
ATOM     30  C   UNL     1       2.679   4.830  17.812  0.00  0.00    +0.000 A 
ENDBRANCH  21  25
ENDBRANCH  18  19
ENDBRANCH  17  18
ENDBRANCH  16  17
ENDBRANCH   4  16
TORSDOF 11
ENDMDL
MODEL 3
REMARK VINA RESULT:      -6.9      5.581      7.733
REMARK  Name = 
REMARK  13 active torsions:
REMARK  status: ('A' for Active; 'I' for Inactive)
REMARK    1  A    between atoms: C_1  and  C_2
REMARK    2  A    between atoms: C_2  and  O_3
REMARK    3  A    between atoms: O_3  and  C_4
REMARK    4  A    between atoms: C_4  and  C_5
REMARK    5  A    between atoms: C_4  and  C_27
REMARK    6  A    between atoms: C_5  and  C_6
REMARK    7  A    between atoms: C_9  and  O_10
REMARK    8  A    between atoms: O_10  and  C_11
REMARK    9  A    between atoms: C_11  and  C_12
REMARK   10  A    between atoms: C_12  and  C_13
REMARK   11  A    between atoms: C_15  and  C_16
REMARK   12  A    between atoms: C_23  and  C_24
REMARK   13  A    between atoms: C_27  and  O_29
REMARK                            x       y       z     vdW  Elec       q    Type
REMARK                         _______ _______ _______ _____ _____    ______ ____
ROOT
ATOM      1  C   UNL     1       3.853   5.667  18.303  0.00  0.00    +0.000 A 
ATOM      2  C   UNL     1       3.331   6.899  17.924  0.00  0.00    +0.000 A 
ATOM      3  C   UNL     1       2.437   7.556  18.768  0.00  0.00    +0.000 A 
ATOM      4  C   UNL     1       2.072   6.974  19.977  0.00  0.00    +0.000 A 
ATOM      5  C   UNL     1       2.620   5.732  20.263  0.00  0.00    +0.000 A 
ATOM      6  N   UNL     1       3.489   5.067  19.458  0.00  0.00    +0.000 NA
ENDROOT
BRANCH   1   7
ATOM      7  C   UNL     1       4.930   4.991  17.490  0.00  0.00    +0.000 C 
BRANCH   7   8
ATOM      8  C   UNL     1       6.361   5.445  17.787  0.00  0.00    +0.000 C 
BRANCH   8   9
ATOM      9  C   UNL     1       7.366   4.668  16.928  0.00  0.00    +0.000 C 
ATOM     10  O   UNL     1       7.352   4.622  15.707  0.00  0.00    +0.000 OA
BRANCH   9  11
ATOM     11  O   UNL     1       8.246   3.965  17.686  0.00  0.00    +0.000 OA
ATOM     12  H   UNL     1       8.919   3.577  17.082  0.00  0.00    +0.000 HD
ENDBRANCH   9  11
ENDBRANCH   8   9
BRANCH   8  13
ATOM     13  O   UNL     1       6.575   6.864  17.615  0.00  0.00    +0.000 OA
BRANCH  13  15
ATOM     14  C   UNL     1       8.043   8.754  17.731  0.00  0.00    +0.000 C 
ATOM     15  C   UNL     1       7.810   7.321  18.171  0.00  0.00    +0.000 C 
ENDBRANCH  13  15
ENDBRANCH   8  13
ENDBRANCH   7   8
ENDBRANCH   1   7
BRANCH   4  16
ATOM     16  O   UNL     1       1.259   7.539  20.921  0.00  0.00    +0.000 OA
BRANCH  16  17
ATOM     17  C   UNL     1       1.194   8.968  20.889  0.00  0.00    +0.000 C 
BRANCH  17  18
ATOM     18  C   UNL     1      -0.253   9.428  20.737  0.00  0.00    +0.000 C 
BRANCH  18  19
ATOM     19  C   UNL     1      -0.333  10.642  19.885  0.00  0.00    +0.000 A 
ATOM     20  N   UNL     1       0.444  11.756  20.152  0.00  0.00    +0.000 NA
ATOM     21  C   UNL     1       0.136  12.606  19.193  0.00  0.00    +0.000 A 
ATOM     22  O   UNL     1      -0.785  12.128  18.302  0.00  0.00    +0.000 OA
ATOM     23  C   UNL     1      -1.077  10.872  18.744  0.00  0.00    +0.000 A 
ATOM     24  C   UNL     1      -2.038  10.097  17.945  0.00  0.00    +0.000 C 
BRANCH  21  25
ATOM     25  C   UNL     1       0.628  13.962  18.938  0.00  0.00    +0.000 A 
ATOM     26  C   UNL     1       1.985  14.190  18.672  0.00  0.00    +0.000 A 
ATOM     27  C   UNL     1       2.459  15.489  18.437  0.00  0.00    +0.000 A 
ATOM     28  C   UNL     1       1.579  16.570  18.468  0.00  0.00    +0.000 A 
ATOM     29  C   UNL     1       0.228  16.357  18.724  0.00  0.00    +0.000 A 
ATOM     30  C   UNL     1      -0.245  15.064  18.953  0.00  0.00    +0.000 A 
ENDBRANCH  21  25
ENDBRANCH  18  19
ENDBRANCH  17  18
ENDBRANCH  16  17
ENDBRANCH   4  16
TORSDOF 11
ENDMDL
MODEL 4
REMARK VINA RESULT:      -6.9      5.777      9.275
REMARK  Name = 
REMARK  13 active torsions:
REMARK  status: ('A' for Active; 'I' for Inactive)
REMARK    1  A    between atoms: C_1  and  C_2
REMARK    2  A    between atoms: C_2  and  O_3
REMARK    3  A    between atoms: O_3  and  C_4
REMARK    4  A    between atoms: C_4  and  C_5
REMARK    5  A    between atoms: C_4  and  C_27
REMARK    6  A    between atoms: C_5  and  C_6
REMARK    7  A    between atoms: C_9  and  O_10
REMARK    8  A    between atoms: O_10  and  C_11
REMARK    9  A    between atoms: C_11  and  C_12
REMARK   10  A    between atoms: C_12  and  C_13
REMARK   11  A    between atoms: C_15  and  C_16
REMARK   12  A    between atoms: C_23  and  C_24
REMARK   13  A    between atoms: C_27  and  O_29
REMARK                            x       y       z     vdW  Elec       q    Type
REMARK                         _______ _______ _______ _____ _____    ______ ____
ROOT
ATOM      1  C   UNL     1       4.008   5.343  18.260  0.00  0.00    +0.000 A 
ATOM      2  C   UNL     1       3.500   5.147  19.540  0.00  0.00    +0.000 A 
ATOM      3  C   UNL     1       2.644   6.097  20.093  0.00  0.00    +0.000 A 
ATOM      4  C   UNL     1       2.308   7.232  19.365  0.00  0.00    +0.000 A 
ATOM      5  C   UNL     1       2.880   7.360  18.106  0.00  0.00    +0.000 A 
ATOM      6  N   UNL     1       3.720   6.452  17.545  0.00  0.00    +0.000 NA
ENDROOT
BRANCH   1   7
ATOM      7  C   UNL     1       4.820   4.274  17.569  0.00  0.00    +0.000 C 
BRANCH   7   8
ATOM      8  C   UNL     1       5.912   4.785  16.626  0.00  0.00    +0.000 C 
BRANCH   8   9
ATOM      9  C   UNL     1       7.196   5.096  17.403  0.00  0.00    +0.000 C 
ATOM     10  O   UNL     1       7.421   6.144  17.991  0.00  0.00    +0.000 OA
BRANCH   9  11
ATOM     11  O   UNL     1       8.106   4.093  17.305  0.00  0.00    +0.000 OA
ATOM     12  H   UNL     1       8.157   3.647  18.181  0.00  0.00    +0.000 HD
ENDBRANCH   9  11
ENDBRANCH   8   9
BRANCH   8  13
ATOM     13  O   UNL     1       6.214   3.885  15.536  0.00  0.00    +0.000 OA
BRANCH  13  15
ATOM     14  C   UNL     1       6.351   3.532  13.170  0.00  0.00    +0.000 C 
ATOM     15  C   UNL     1       6.410   4.555  14.288  0.00  0.00    +0.000 C 
ENDBRANCH  13  15
ENDBRANCH   8  13
ENDBRANCH   7   8
ENDBRANCH   1   7
BRANCH   4  16
ATOM     16  O   UNL     1       1.431   8.205  19.762  0.00  0.00    +0.000 OA
BRANCH  16  17
ATOM     17  C   UNL     1       1.427   8.481  21.166  0.00  0.00    +0.000 C 
BRANCH  17  18
ATOM     18  C   UNL     1       1.298   9.982  21.409  0.00  0.00    +0.000 C 
BRANCH  18  19
ATOM     19  C   UNL     1       0.072  10.516  20.764  0.00  0.00    +0.000 A 
ATOM     20  N   UNL     1      -0.308  10.104  19.499  0.00  0.00    +0.000 NA
ATOM     21  C   UNL     1      -1.434  10.752  19.270  0.00  0.00    +0.000 A 
ATOM     22  O   UNL     1      -1.831  11.557  20.302  0.00  0.00    +0.000 OA
ATOM     23  C   UNL     1      -0.871  11.400  21.255  0.00  0.00    +0.000 A 
ATOM     24  C   UNL     1      -1.058  12.142  22.511  0.00  0.00    +0.000 C 
BRANCH  21  25
ATOM     25  C   UNL     1      -2.313  10.733  18.098  0.00  0.00    +0.000 A 
ATOM     26  C   UNL     1      -2.024   9.908  17.003  0.00  0.00    +0.000 A 
ATOM     27  C   UNL     1      -2.860   9.897  15.877  0.00  0.00    +0.000 A 
ATOM     28  C   UNL     1      -3.990  10.712  15.837  0.00  0.00    +0.000 A 
ATOM     29  C   UNL     1      -4.293  11.531  16.920  0.00  0.00    +0.000 A 
ATOM     30  C   UNL     1      -3.463  11.539  18.043  0.00  0.00    +0.000 A 
ENDBRANCH  21  25
ENDBRANCH  18  19
ENDBRANCH  17  18
ENDBRANCH  16  17
ENDBRANCH   4  16
TORSDOF 11
ENDMDL
MODEL 5
REMARK VINA RESULT:      -6.9      5.229      9.508
REMARK  Name = 
REMARK  13 active torsions:
REMARK  status: ('A' for Active; 'I' for Inactive)
REMARK    1  A    between atoms: C_1  and  C_2
REMARK    2  A    between atoms: C_2  and  O_3
REMARK    3  A    between atoms: O_3  and  C_4
REMARK    4  A    between atoms: C_4  and  C_5
REMARK    5  A    between atoms: C_4  and  C_27
REMARK    6  A    between atoms: C_5  and  C_6
REMARK    7  A    between atoms: C_9  and  O_10
REMARK    8  A    between atoms: O_10  and  C_11
REMARK    9  A    between atoms: C_11  and  C_12
REMARK   10  A    between atoms: C_12  and  C_13
REMARK   11  A    between atoms: C_15  and  C_16
REMARK   12  A    between atoms: C_23  and  C_24
REMARK   13  A    between atoms: C_27  and  O_29
REMARK                            x       y       z     vdW  Elec       q    Type
REMARK                         _______ _______ _______ _____ _____    ______ ____
ROOT
ATOM      1  C   UNL     1       1.059   9.548  19.456  0.00  0.00    +0.000 A 
ATOM      2  C   UNL     1       1.090   8.724  20.576  0.00  0.00    +0.000 A 
ATOM      3  C   UNL     1       1.741   7.494  20.506  0.00  0.00    +0.000 A 
ATOM      4  C   UNL     1       2.350   7.099  19.320  0.00  0.00    +0.000 A 
ATOM      5  C   UNL     1       2.248   7.971  18.245  0.00  0.00    +0.000 A 
ATOM      6  N   UNL     1       1.616   9.173  18.284  0.00  0.00    +0.000 NA
ENDROOT
BRANCH   1   7
ATOM      7  C   UNL     1       0.492  10.945  19.529  0.00  0.00    +0.000 C 
BRANCH   7   8
ATOM      8  C   UNL     1       0.288  11.499  20.941  0.00  0.00    +0.000 C 
BRANCH   8   9
ATOM      9  C   UNL     1       0.734  12.964  21.018  0.00  0.00    +0.000 C 
ATOM     10  O   UNL     1       1.800  13.347  21.477  0.00  0.00    +0.000 OA
BRANCH   9  11
ATOM     11  O   UNL     1      -0.231  13.813  20.579  0.00  0.00    +0.000 OA
ATOM     12  H   UNL     1      -0.053  14.698  20.971  0.00  0.00    +0.000 HD
ENDBRANCH   9  11
ENDBRANCH   8   9
BRANCH   8  13
ATOM     13  O   UNL     1      -1.068  11.382  21.428  0.00  0.00    +0.000 OA
BRANCH  13  15
ATOM     14  C   UNL     1      -2.456  11.966  23.292  0.00  0.00    +0.000 C 
ATOM     15  C   UNL     1      -1.153  11.324  22.854  0.00  0.00    +0.000 C 
ENDBRANCH  13  15
ENDBRANCH   8  13
ENDBRANCH   7   8
ENDBRANCH   1   7
BRANCH   4  16
ATOM     16  O   UNL     1       3.074   5.953  19.137  0.00  0.00    +0.000 OA
BRANCH  16  17
ATOM     17  C   UNL     1       4.462   6.053  19.469  0.00  0.00    +0.000 C 
BRANCH  17  18
ATOM     18  C   UNL     1       5.200   4.788  19.043  0.00  0.00    +0.000 C 
BRANCH  18  19
ATOM     19  C   UNL     1       5.976   5.024  17.799  0.00  0.00    +0.000 A 
ATOM     20  N   UNL     1       5.625   4.410  16.610  0.00  0.00    +0.000 NA
ATOM     21  C   UNL     1       6.500   4.868  15.735  0.00  0.00    +0.000 A 
ATOM     22  O   UNL     1       7.400   5.752  16.263  0.00  0.00    +0.000 OA
ATOM     23  C   UNL     1       7.059   5.853  17.578  0.00  0.00    +0.000 A 
ATOM     24  C   UNL     1       7.858   6.776  18.399  0.00  0.00    +0.000 C 
BRANCH  21  25
ATOM     25  C   UNL     1       6.646   4.582  14.306  0.00  0.00    +0.000 A 
ATOM     26  C   UNL     1       5.821   3.639  13.680  0.00  0.00    +0.000 A 
ATOM     27  C   UNL     1       5.966   3.358  12.313  0.00  0.00    +0.000 A 
ATOM     28  C   UNL     1       6.938   4.017  11.564  0.00  0.00    +0.000 A 
ATOM     29  C   UNL     1       7.760   4.962  12.171  0.00  0.00    +0.000 A 
ATOM     30  C   UNL     1       7.612   5.245  13.531  0.00  0.00    +0.000 A 
ENDBRANCH  21  25
ENDBRANCH  18  19
ENDBRANCH  17  18
ENDBRANCH  16  17
ENDBRANCH   4  16
TORSDOF 11
ENDMDL
MODEL 6
REMARK VINA RESULT:      -6.9      5.919      9.778
REMARK  Name = 
REMARK  13 active torsions:
REMARK  status: ('A' for Active; 'I' for Inactive)
REMARK    1  A    between atoms: C_1  and  C_2
REMARK    2  A    between atoms: C_2  and  O_3
REMARK    3  A    between atoms: O_3  and  C_4
REMARK    4  A    between atoms: C_4  and  C_5
REMARK    5  A    between atoms: C_4  and  C_27
REMARK    6  A    between atoms: C_5  and  C_6
REMARK    7  A    between atoms: C_9  and  O_10
REMARK    8  A    between atoms: O_10  and  C_11
REMARK    9  A    between atoms: C_11  and  C_12
REMARK   10  A    between atoms: C_12  and  C_13
REMARK   11  A    between atoms: C_15  and  C_16
REMARK   12  A    between atoms: C_23  and  C_24
REMARK   13  A    between atoms: C_27  and  O_29
REMARK                            x       y       z     vdW  Elec       q    Type
REMARK                         _______ _______ _______ _____ _____    ______ ____
ROOT
ATOM      1  C   UNL     1       0.427   9.809  19.619  0.00  0.00    +0.000 A 
ATOM      2  C   UNL     1       0.908   9.876  18.316  0.00  0.00    +0.000 A 
ATOM      3  C   UNL     1       1.842   8.938  17.878  0.00  0.00    +0.000 A 
ATOM      4  C   UNL     1       2.287   7.949  18.747  0.00  0.00    +0.000 A 
ATOM      5  C   UNL     1       1.775   7.972  20.037  0.00  0.00    +0.000 A 
ATOM      6  N   UNL     1       0.868   8.876  20.491  0.00  0.00    +0.000 NA
ENDROOT
BRANCH   1   7
ATOM      7  C   UNL     1      -0.688  10.712  20.088  0.00  0.00    +0.000 C 
BRANCH   7   8
ATOM      8  C   UNL     1      -0.392  12.212  20.020  0.00  0.00    +0.000 C 
BRANCH   8   9
ATOM      9  C   UNL     1      -0.751  12.773  18.639  0.00  0.00    +0.000 C 
ATOM     10  O   UNL     1      -0.111  13.627  18.044  0.00  0.00    +0.000 OA
BRANCH   9  11
ATOM     11  O   UNL     1      -1.920  12.263  18.172  0.00  0.00    +0.000 OA
ATOM     12  H   UNL     1      -2.195  11.538  18.779  0.00  0.00    +0.000 HD
ENDBRANCH   9  11
ENDBRANCH   8   9
BRANCH   8  13
ATOM     13  O   UNL     1      -1.054  12.989  21.043  0.00  0.00    +0.000 OA
BRANCH  13  15
ATOM     14  C   UNL     1      -1.199  13.618  23.351  0.00  0.00    +0.000 C 
ATOM     15  C   UNL     1      -0.751  12.551  22.371  0.00  0.00    +0.000 C 
ENDBRANCH  13  15
ENDBRANCH   8  13
ENDBRANCH   7   8
ENDBRANCH   1   7
BRANCH   4  16
ATOM     16  O   UNL     1       3.148   6.934  18.427  0.00  0.00    +0.000 OA
BRANCH  16  17
ATOM     17  C   UNL     1       2.567   5.626  18.420  0.00  0.00    +0.000 C 
BRANCH  17  18
ATOM     18  C   UNL     1       3.630   4.574  18.719  0.00  0.00    +0.000 C 
BRANCH  18  19
ATOM     19  C   UNL     1       4.759   4.679  17.761  0.00  0.00    +0.000 A 
ATOM     20  N   UNL     1       4.595   4.363  16.424  0.00  0.00    +0.000 NA
ATOM     21  C   UNL     1       5.775   4.598  15.885  0.00  0.00    +0.000 A 
ATOM     22  O   UNL     1       6.708   5.059  16.773  0.00  0.00    +0.000 OA
ATOM     23  C   UNL     1       6.054   5.115  17.967  0.00  0.00    +0.000 A 
ATOM     24  C   UNL     1       6.823   5.611  19.118  0.00  0.00    +0.000 C 
BRANCH  21  25
ATOM     25  C   UNL     1       6.228   4.449  14.500  0.00  0.00    +0.000 A 
ATOM     26  C   UNL     1       5.558   3.591  13.618  0.00  0.00    +0.000 A 
ATOM     27  C   UNL     1       5.997   3.441  12.295  0.00  0.00    +0.000 A 
ATOM     28  C   UNL     1       7.110   4.148  11.843  0.00  0.00    +0.000 A 
ATOM     29  C   UNL     1       7.781   5.010  12.706  0.00  0.00    +0.000 A 
ATOM     30  C   UNL     1       7.342   5.162  14.023  0.00  0.00    +0.000 A 
ENDBRANCH  21  25
ENDBRANCH  18  19
ENDBRANCH  17  18
ENDBRANCH  16  17
ENDBRANCH   4  16
TORSDOF 11
ENDMDL
MODEL 7
REMARK VINA RESULT:      -6.9      6.320      7.994
REMARK  Name = 
REMARK  13 active torsions:
REMARK  status: ('A' for Active; 'I' for Inactive)
REMARK    1  A    between atoms: C_1  and  C_2
REMARK    2  A    between atoms: C_2  and  O_3
REMARK    3  A    between atoms: O_3  and  C_4
REMARK    4  A    between atoms: C_4  and  C_5
REMARK    5  A    between atoms: C_4  and  C_27
REMARK    6  A    between atoms: C_5  and  C_6
REMARK    7  A    between atoms: C_9  and  O_10
REMARK    8  A    between atoms: O_10  and  C_11
REMARK    9  A    between atoms: C_11  and  C_12
REMARK   10  A    between atoms: C_12  and  C_13
REMARK   11  A    between atoms: C_15  and  C_16
REMARK   12  A    between atoms: C_23  and  C_24
REMARK   13  A    between atoms: C_27  and  O_29
REMARK                            x       y       z     vdW  Elec       q    Type
REMARK                         _______ _______ _______ _____ _____    ______ ____
ROOT
ATOM      1  C   UNL     1       4.365   3.295  17.258  0.00  0.00    +0.000 A 
ATOM      2  C   UNL     1       3.247   4.007  16.838  0.00  0.00    +0.000 A 
ATOM      3  C   UNL     1       2.066   3.928  17.574  0.00  0.00    +0.000 A 
ATOM      4  C   UNL     1       2.014   3.137  18.717  0.00  0.00    +0.000 A 
ATOM      5  C   UNL     1       3.169   2.442  19.048  0.00  0.00    +0.000 A 
ATOM      6  N   UNL     1       4.331   2.497  18.347  0.00  0.00    +0.000 NA
ENDROOT
BRANCH   1   7
ATOM      7  C   UNL     1       5.701   3.465  16.575  0.00  0.00    +0.000 C 
BRANCH   7   8
ATOM      8  C   UNL     1       5.660   4.161  15.213  0.00  0.00    +0.000 C 
BRANCH   8   9
ATOM      9  C   UNL     1       6.338   5.535  15.286  0.00  0.00    +0.000 C 
ATOM     10  O   UNL     1       7.542   5.715  15.390  0.00  0.00    +0.000 OA
BRANCH   9  11
ATOM     11  O   UNL     1       5.434   6.548  15.295  0.00  0.00    +0.000 OA
ATOM     12  H   UNL     1       4.982   6.556  14.420  0.00  0.00    +0.000 HD
ENDBRANCH   9  11
ENDBRANCH   8   9
BRANCH   8  13
ATOM     13  O   UNL     1       6.247   3.391  14.141  0.00  0.00    +0.000 OA
BRANCH  13  15
ATOM     14  C   UNL     1       5.192   3.151  12.003  0.00  0.00    +0.000 C 
ATOM     15  C   UNL     1       6.106   4.007  12.858  0.00  0.00    +0.000 C 
ENDBRANCH  13  15
ENDBRANCH   8  13
ENDBRANCH   7   8
ENDBRANCH   1   7
BRANCH   4  16
ATOM     16  O   UNL     1       0.944   3.024  19.561  0.00  0.00    +0.000 OA
BRANCH  16  17
ATOM     17  C   UNL     1       0.810   4.081  20.517  0.00  0.00    +0.000 C 
BRANCH  17  18
ATOM     18  C   UNL     1       2.075   4.933  20.543  0.00  0.00    +0.000 C 
BRANCH  18  19
ATOM     19  C   UNL     1       1.746   6.371  20.373  0.00  0.00    +0.000 A 
ATOM     20  N   UNL     1       0.895   7.018  21.252  0.00  0.00    +0.000 NA
ATOM     21  C   UNL     1       0.861   8.262  20.816  0.00  0.00    +0.000 A 
ATOM     22  O   UNL     1       1.640   8.485  19.715  0.00  0.00    +0.000 OA
ATOM     23  C   UNL     1       2.208   7.278  19.439  0.00  0.00    +0.000 A 
ATOM     24  C   UNL     1       3.134   7.228  18.297  0.00  0.00    +0.000 C 
BRANCH  21  25
ATOM     25  C   UNL     1       0.132   9.423  21.330  0.00  0.00    +0.000 A 
ATOM     26  C   UNL     1      -0.336  10.416  20.458  0.00  0.00    +0.000 A 
ATOM     27  C   UNL     1      -1.026  11.533  20.951  0.00  0.00    +0.000 A 
ATOM     28  C   UNL     1      -1.254  11.666  22.320  0.00  0.00    +0.000 A 
ATOM     29  C   UNL     1      -0.802  10.684  23.197  0.00  0.00    +0.000 A 
ATOM     30  C   UNL     1      -0.118   9.570  22.706  0.00  0.00    +0.000 A 
ENDBRANCH  21  25
ENDBRANCH  18  19
ENDBRANCH  17  18
ENDBRANCH  16  17
ENDBRANCH   4  16
TORSDOF 11
ENDMDL
MODEL 8
REMARK VINA RESULT:      -6.8      2.111      3.178
REMARK  Name = 
REMARK  13 active torsions:
REMARK  status: ('A' for Active; 'I' for Inactive)
REMARK    1  A    between atoms: C_1  and  C_2
REMARK    2  A    between atoms: C_2  and  O_3
REMARK    3  A    between atoms: O_3  and  C_4
REMARK    4  A    between atoms: C_4  and  C_5
REMARK    5  A    between atoms: C_4  and  C_27
REMARK    6  A    between atoms: C_5  and  C_6
REMARK    7  A    between atoms: C_9  and  O_10
REMARK    8  A    between atoms: O_10  and  C_11
REMARK    9  A    between atoms: C_11  and  C_12
REMARK   10  A    between atoms: C_12  and  C_13
REMARK   11  A    between atoms: C_15  and  C_16
REMARK   12  A    between atoms: C_23  and  C_24
REMARK   13  A    between atoms: C_27  and  O_29
REMARK                            x       y       z     vdW  Elec       q    Type
REMARK                         _______ _______ _______ _____ _____    ______ ____
ROOT
ATOM      1  C   UNL     1       5.362   5.150  17.309  0.00  0.00    +0.000 A 
ATOM      2  C   UNL     1       5.151   6.444  16.844  0.00  0.00    +0.000 A 
ATOM      3  C   UNL     1       6.168   7.390  16.962  0.00  0.00    +0.000 A 
ATOM      4  C   UNL     1       7.379   7.036  17.545  0.00  0.00    +0.000 A 
ATOM      5  C   UNL     1       7.494   5.731  18.004  0.00  0.00    +0.000 A 
ATOM      6  N   UNL     1       6.518   4.790  17.907  0.00  0.00    +0.000 NA
ENDROOT
BRANCH   1   7
ATOM      7  C   UNL     1       4.345   4.060  17.072  0.00  0.00    +0.000 C 
BRANCH   7   8
ATOM      8  C   UNL     1       3.514   3.659  18.293  0.00  0.00    +0.000 C 
BRANCH   8   9
ATOM      9  C   UNL     1       4.038   2.352  18.900  0.00  0.00    +0.000 C 
ATOM     10  O   UNL     1       3.563   1.245  18.692  0.00  0.00    +0.000 OA
BRANCH   9  11
ATOM     11  O   UNL     1       5.061   2.568  19.766  0.00  0.00    +0.000 OA
ATOM     12  H   UNL     1       5.802   1.972  19.510  0.00  0.00    +0.000 HD
ENDBRANCH   9  11
ENDBRANCH   8   9
BRANCH   8  13
ATOM     13  O   UNL     1       3.450   4.674  19.319  0.00  0.00    +0.000 OA
BRANCH  13  15
ATOM     14  C   UNL     1       1.688   5.427  20.758  0.00  0.00    +0.000 C 
ATOM     15  C   UNL     1       2.209   5.385  19.335  0.00  0.00    +0.000 C 
ENDBRANCH  13  15
ENDBRANCH   8  13
ENDBRANCH   7   8
ENDBRANCH   1   7
BRANCH   4  16
ATOM     16  O   UNL     1       8.476   7.845  17.662  0.00  0.00    +0.000 OA
BRANCH  16  17
ATOM     17  C   UNL     1       8.204   9.171  18.129  0.00  0.00    +0.000 C 
BRANCH  17  18
ATOM     18  C   UNL     1       9.133   9.524  19.287  0.00  0.00    +0.000 C 
BRANCH  18  19
ATOM     19  C   UNL     1       9.268  10.997  19.423  0.00  0.00    +0.000 A 
ATOM     20  N   UNL     1       9.628  11.784  18.344  0.00  0.00    +0.000 NA
ATOM     21  C   UNL     1       9.619  13.014  18.820  0.00  0.00    +0.000 A 
ATOM     22  O   UNL     1       9.268  13.095  20.140  0.00  0.00    +0.000 OA
ATOM     23  C   UNL     1       9.039  11.806  20.519  0.00  0.00    +0.000 A 
ATOM     24  C   UNL     1       8.611  11.593  21.909  0.00  0.00    +0.000 C 
BRANCH  21  25
ATOM     25  C   UNL     1       9.918  14.286  18.158  0.00  0.00    +0.000 A 
ATOM     26  C   UNL     1      11.019  14.402  17.300  0.00  0.00    +0.000 A 
ATOM     27  C   UNL     1      11.311  15.622  16.674  0.00  0.00    +0.000 A 
ATOM     28  C   UNL     1      10.504  16.736  16.901  0.00  0.00    +0.000 A 
ATOM     29  C   UNL     1       9.402  16.633  17.745  0.00  0.00    +0.000 A 
ATOM     30  C   UNL     1       9.109  15.417  18.366  0.00  0.00    +0.000 A 
ENDBRANCH  21  25
ENDBRANCH  18  19
ENDBRANCH  17  18
ENDBRANCH  16  17
ENDBRANCH   4  16
TORSDOF 11
ENDMDL
MODEL 9
REMARK VINA RESULT:      -6.8      2.704     10.799
REMARK  Name = 
REMARK  13 active torsions:
REMARK  status: ('A' for Active; 'I' for Inactive)
REMARK    1  A    between atoms: C_1  and  C_2
REMARK    2  A    between atoms: C_2  and  O_3
REMARK    3  A    between atoms: O_3  and  C_4
REMARK    4  A    between atoms: C_4  and  C_5
REMARK    5  A    between atoms: C_4  and  C_27
REMARK    6  A    between atoms: C_5  and  C_6
REMARK    7  A    between atoms: C_9  and  O_10
REMARK    8  A    between atoms: O_10  and  C_11
REMARK    9  A    between atoms: C_11  and  C_12
REMARK   10  A    between atoms: C_12  and  C_13
REMARK   11  A    between atoms: C_15  and  C_16
REMARK   12  A    between atoms: C_23  and  C_24
REMARK   13  A    between atoms: C_27  and  O_29
REMARK                            x       y       z     vdW  Elec       q    Type
REMARK                         _______ _______ _______ _____ _____    ______ ____
ROOT
ATOM      1  C   UNL     1      10.131  12.902  17.841  0.00  0.00    +0.000 A 
ATOM      2  C   UNL     1      10.928  12.037  18.582  0.00  0.00    +0.000 A 
ATOM      3  C   UNL     1      10.444  10.774  18.917  0.00  0.00    +0.000 A 
ATOM      4  C   UNL     1       9.170  10.392  18.513  0.00  0.00    +0.000 A 
ATOM      5  C   UNL     1       8.433  11.327  17.799  0.00  0.00    +0.000 A 
ATOM      6  N   UNL     1       8.879  12.566  17.463  0.00  0.00    +0.000 NA
ENDROOT
BRANCH   1   7
ATOM      7  C   UNL     1      10.669  14.219  17.334  0.00  0.00    +0.000 C 
BRANCH   7   8
ATOM      8  C   UNL     1      10.107  15.466  18.019  0.00  0.00    +0.000 C 
BRANCH   8   9
ATOM      9  C   UNL     1      11.068  16.651  17.861  0.00  0.00    +0.000 C 
ATOM     10  O   UNL     1      12.028  16.874  18.584  0.00  0.00    +0.000 OA
BRANCH   9  11
ATOM     11  O   UNL     1      10.689  17.482  16.856  0.00  0.00    +0.000 OA
ATOM     12  H   UNL     1      10.107  16.972  16.248  0.00  0.00    +0.000 HD
ENDBRANCH   9  11
ENDBRANCH   8   9
BRANCH   8  13
ATOM     13  O   UNL     1       8.792  15.848  17.558  0.00  0.00    +0.000 OA
BRANCH  13  15
ATOM     14  C   UNL     1       8.172  15.337  19.816  0.00  0.00    +0.000 C 
ATOM     15  C   UNL     1       7.910  16.229  18.618  0.00  0.00    +0.000 C 
ENDBRANCH  13  15
ENDBRANCH   8  13
ENDBRANCH   7   8
ENDBRANCH   1   7
BRANCH   4  16
ATOM     16  O   UNL     1       8.601   9.164  18.719  0.00  0.00    +0.000 OA
BRANCH  16  17
ATOM     17  C   UNL     1       7.557   8.818  17.803  0.00  0.00    +0.000 C 
BRANCH  17  18
ATOM     18  C   UNL     1       7.793   7.421  17.237  0.00  0.00    +0.000 C 
BRANCH  18  19
ATOM     19  C   UNL     1       6.938   6.422  17.927  0.00  0.00    +0.000 A 
ATOM     20  N   UNL     1       5.701   6.067  17.420  0.00  0.00    +0.000 NA
ATOM     21  C   UNL     1       5.252   5.156  18.261  0.00  0.00    +0.000 A 
ATOM     22  O   UNL     1       6.113   4.875  19.285  0.00  0.00    +0.000 OA
ATOM     23  C   UNL     1       7.190   5.681  19.066  0.00  0.00    +0.000 A 
ATOM     24  C   UNL     1       8.305   5.568  20.018  0.00  0.00    +0.000 C 
BRANCH  21  25
ATOM     25  C   UNL     1       3.994   4.406  18.259  0.00  0.00    +0.000 A 
ATOM     26  C   UNL     1       3.956   3.074  18.694  0.00  0.00    +0.000 A 
ATOM     27  C   UNL     1       2.754   2.353  18.683  0.00  0.00    +0.000 A 
ATOM     28  C   UNL     1       1.580   2.957  18.236  0.00  0.00    +0.000 A 
ATOM     29  C   UNL     1       1.601   4.282  17.808  0.00  0.00    +0.000 A 
ATOM     30  C   UNL     1       2.798   5.001  17.823  0.00  0.00    +0.000 A 
ENDBRANCH  21  25
ENDBRANCH  18  19
ENDBRANCH  17  18
ENDBRANCH  16  17
ENDBRANCH   4  16
TORSDOF 11
ENDMDL
