MODEL 1
REMARK VINA RESULT:      -8.4      0.000      0.000
REMARK  Name = 
REMARK  7 active torsions:
REMARK  status: ('A' for Active; 'I' for Inactive)
REMARK    1  A    between atoms: C_1  and  C_2
REMARK    2  A    between atoms: C_2  and  C_3
REMARK    3  A    between atoms: C_3  and  N_4
REMARK    4  A    between atoms: C_5  and  C_7
REMARK    5  A    between atoms: C_9  and  C_10
REMARK    6  A    between atoms: N_14  and  S_15
REMARK    7  A    between atoms: S_15  and  C_18
REMARK                            x       y       z     vdW  Elec       q    Type
REMARK                         _______ _______ _______ _____ _____    ______ ____
ROOT
ATOM      1  C   UNL     1       5.900   6.538  17.065  0.00  0.00    +0.000 C 
ATOM      2  C   UNL     1       6.804   6.110  18.231  0.00  0.00    +0.000 C 
ATOM      3  C   UNL     1       6.590   4.643  18.608  0.00  0.00    +0.000 C 
ATOM      4  C   UNL     1       5.118   4.297  18.841  0.00  0.00    +0.000 C 
ATOM      5  N   UNL     1       4.274   4.773  17.714  0.00  0.00    +0.000 NA
ATOM      6  C   UNL     1       4.439   6.236  17.452  0.00  0.00    +0.000 C 
ENDROOT
BRANCH   1   9
ATOM      7  C   UNL     1       6.555   4.730  13.900  0.00  0.00    +0.000 A 
ATOM      8  C   UNL     1       5.584   5.187  14.817  0.00  0.00    +0.000 A 
ATOM      9  C   UNL     1       6.284   5.871  15.777  0.00  0.00    +0.000 A 
ATOM     10  O   UNL     1       7.602   5.882  15.431  0.00  0.00    +0.000 OA
ATOM     11  N   UNL     1       7.780   5.160  14.254  0.00  0.00    +0.000 NA
BRANCH   7  13
ATOM     12  N   UNL     1       4.965   3.712  12.428  0.00  0.00    +0.000 N 
ATOM     13  C   UNL     1       6.297   3.892  12.728  0.00  0.00    +0.000 C 
ATOM     14  O   UNL     1       7.205   3.396  12.068  0.00  0.00    +0.000 OA
ATOM     15  H   UNL     1       4.289   4.117  13.066  0.00  0.00    +0.000 HD
BRANCH  12  16
ATOM     16  C   UNL     1       4.535   2.850  11.351  0.00  0.00    +0.000 C 
BRANCH  16  18
ATOM     17  C   UNL     1       3.105   4.048   9.634  0.00  0.00    +0.000 C 
ATOM     18  C   UNL     1       3.119   3.171  10.877  0.00  0.00    +0.000 C 
ENDBRANCH  16  18
ENDBRANCH  12  16
ENDBRANCH   7  13
ENDBRANCH   1   9
BRANCH   5  19
ATOM     19  S   UNL     1       2.640   4.272  17.772  0.00  0.00    +0.000 S 
ATOM     20  O   UNL     1       1.817   5.463  17.685  0.00  0.00    +0.000 OA
ATOM     21  O   UNL     1       2.464   3.172  16.849  0.00  0.00    +0.000 OA
BRANCH  19  22
ATOM     22  C   UNL     1       2.313   3.595  19.383  0.00  0.00    +0.000 A 
ATOM     23  C   UNL     1       2.251   2.294  19.849  0.00  0.00    +0.000 A 
ATOM     24  C   UNL     1       1.970   2.229  21.245  0.00  0.00    +0.000 A 
ATOM     25  C   UNL     1       1.837   3.482  21.801  0.00  0.00    +0.000 A 
ATOM     26  S   UNL     1       2.026   4.723  20.638  0.00  0.00    +0.000 S 
ENDBRANCH  19  22
ENDBRANCH   5  19
TORSDOF 6
ENDMDL
MODEL 2
REMARK VINA RESULT:      -8.1      1.394      1.720
REMARK  Name = 
REMARK  7 active torsions:
REMARK  status: ('A' for Active; 'I' for Inactive)
REMARK    1  A    between atoms: C_1  and  C_2
REMARK    2  A    between atoms: C_2  and  C_3
REMARK    3  A    between atoms: C_3  and  N_4
REMARK    4  A    between atoms: C_5  and  C_7
REMARK    5  A    between atoms: C_9  and  C_10
REMARK    6  A    between atoms: N_14  and  S_15
REMARK    7  A    between atoms: S_15  and  C_18
REMARK                            x       y       z     vdW  Elec       q    Type
REMARK                         _______ _______ _______ _____ _____    ______ ____
ROOT
ATOM      1  C   UNL     1       5.539   6.459  16.890  0.00  0.00    +0.000 C 
ATOM      2  C   UNL     1       6.730   6.930  17.737  0.00  0.00    +0.000 C 
ATOM      3  C   UNL     1       7.510   5.754  18.328  0.00  0.00    +0.000 C 
ATOM      4  C   UNL     1       6.615   4.758  19.067  0.00  0.00    +0.000 C 
ATOM      5  N   UNL     1       5.450   4.367  18.231  0.00  0.00    +0.000 NA
ATOM      6  C   UNL     1       4.657   5.546  17.764  0.00  0.00    +0.000 C 
ENDROOT
BRANCH   1   9
ATOM      7  C   UNL     1       6.335   4.585  13.796  0.00  0.00    +0.000 A 
ATOM      8  C   UNL     1       5.326   5.038  14.673  0.00  0.00    +0.000 A 
ATOM      9  C   UNL     1       5.979   5.768  15.632  0.00  0.00    +0.000 A 
ATOM     10  O   UNL     1       7.305   5.810  15.321  0.00  0.00    +0.000 OA
ATOM     11  N   UNL     1       7.536   5.062  14.170  0.00  0.00    +0.000 NA
BRANCH   7  13
ATOM     12  N   UNL     1       4.825   3.581  12.232  0.00  0.00    +0.000 N 
ATOM     13  C   UNL     1       6.135   3.709  12.641  0.00  0.00    +0.000 C 
ATOM     14  O   UNL     1       7.068   3.138  12.085  0.00  0.00    +0.000 OA
ATOM     15  H   UNL     1       4.119   4.048  12.791  0.00  0.00    +0.000 HD
BRANCH  12  16
ATOM     16  C   UNL     1       4.444   2.693  11.158  0.00  0.00    +0.000 C 
BRANCH  16  18
ATOM     17  C   UNL     1       3.083   4.208   9.649  0.00  0.00    +0.000 C 
ATOM     18  C   UNL     1       3.061   3.017  10.596  0.00  0.00    +0.000 C 
ENDBRANCH  16  18
ENDBRANCH  12  16
ENDBRANCH   7  13
ENDBRANCH   1   9
BRANCH   5  19
ATOM     19  S   UNL     1       4.485   3.111  18.876  0.00  0.00    +0.000 S 
ATOM     20  O   UNL     1       3.995   2.322  17.762  0.00  0.00    +0.000 OA
ATOM     21  O   UNL     1       5.206   2.495  19.970  0.00  0.00    +0.000 OA
BRANCH  19  22
ATOM     22  C   UNL     1       3.036   3.832  19.611  0.00  0.00    +0.000 A 
ATOM     23  C   UNL     1       2.868   4.875  20.503  0.00  0.00    +0.000 A 
ATOM     24  C   UNL     1       1.496   5.117  20.807  0.00  0.00    +0.000 A 
ATOM     25  C   UNL     1       0.662   4.257  20.128  0.00  0.00    +0.000 A 
ATOM     26  S   UNL     1       1.533   3.153  19.154  0.00  0.00    +0.000 S 
ENDBRANCH  19  22
ENDBRANCH   5  19
TORSDOF 6
ENDMDL
MODEL 3
REMARK VINA RESULT:      -7.9      1.175      1.626
REMARK  Name = 
REMARK  7 active torsions:
REMARK  status: ('A' for Active; 'I' for Inactive)
REMARK    1  A    between atoms: C_1  and  C_2
REMARK    2  A    between atoms: C_2  and  C_3
REMARK    3  A    between atoms: C_3  and  N_4
REMARK    4  A    between atoms: C_5  and  C_7
REMARK    5  A    between atoms: C_9  and  C_10
REMARK    6  A    between atoms: N_14  and  S_15
REMARK    7  A    between atoms: S_15  and  C_18
REMARK                            x       y       z     vdW  Elec       q    Type
REMARK                         _______ _______ _______ _____ _____    ______ ____
ROOT
ATOM      1  C   UNL     1       5.476   6.279  16.910  0.00  0.00    +0.000 C 
ATOM      2  C   UNL     1       6.447   6.205  18.098  0.00  0.00    +0.000 C 
ATOM      3  C   UNL     1       6.697   4.762  18.540  0.00  0.00    +0.000 C 
ATOM      4  C   UNL     1       5.404   3.981  18.781  0.00  0.00    +0.000 C 
ATOM      5  N   UNL     1       4.475   4.120  17.629  0.00  0.00    +0.000 NA
ATOM      6  C   UNL     1       4.177   5.550  17.302  0.00  0.00    +0.000 C 
ENDROOT
BRANCH   1   9
ATOM      7  C   UNL     1       6.670   4.712  13.774  0.00  0.00    +0.000 A 
ATOM      8  C   UNL     1       5.555   5.068  14.563  0.00  0.00    +0.000 A 
ATOM      9  C   UNL     1       6.075   5.714  15.655  0.00  0.00    +0.000 A 
ATOM     10  O   UNL     1       7.427   5.801  15.508  0.00  0.00    +0.000 OA
ATOM     11  N   UNL     1       7.808   5.166  14.330  0.00  0.00    +0.000 NA
BRANCH   7  13
ATOM     12  N   UNL     1       5.710   2.915  12.517  0.00  0.00    +0.000 N 
ATOM     13  C   UNL     1       6.626   3.944  12.529  0.00  0.00    +0.000 C 
ATOM     14  O   UNL     1       7.350   4.207  11.574  0.00  0.00    +0.000 OA
ATOM     15  H   UNL     1       5.198   2.742  13.376  0.00  0.00    +0.000 HD
BRANCH  12  16
ATOM     16  C   UNL     1       5.592   2.010  11.396  0.00  0.00    +0.000 C 
BRANCH  16  18
ATOM     17  C   UNL     1       6.122  -0.468  11.396  0.00  0.00    +0.000 C 
ATOM     18  C   UNL     1       6.686   0.944  11.389  0.00  0.00    +0.000 C 
ENDBRANCH  16  18
ENDBRANCH  12  16
ENDBRANCH   7  13
ENDBRANCH   1   9
BRANCH   5  19
ATOM     19  S   UNL     1       3.079   3.134  17.701  0.00  0.00    +0.000 S 
ATOM     20  O   UNL     1       2.042   3.791  16.929  0.00  0.00    +0.000 OA
ATOM     21  O   UNL     1       3.468   1.768  17.424  0.00  0.00    +0.000 OA
BRANCH  19  22
ATOM     22  C   UNL     1       2.480   3.124  19.375  0.00  0.00    +0.000 A 
ATOM     23  C   UNL     1       2.214   2.096  20.261  0.00  0.00    +0.000 A 
ATOM     24  C   UNL     1       1.756   2.571  21.524  0.00  0.00    +0.000 A 
ATOM     25  C   UNL     1       1.696   3.946  21.565  0.00  0.00    +0.000 A 
ATOM     26  S   UNL     1       2.167   4.653  20.079  0.00  0.00    +0.000 S 
ENDBRANCH  19  22
ENDBRANCH   5  19
TORSDOF 6
ENDMDL
MODEL 4
REMARK VINA RESULT:      -7.5      1.636      2.074
REMARK  Name = 
REMARK  7 active torsions:
REMARK  status: ('A' for Active; 'I' for Inactive)
REMARK    1  A    between atoms: C_1  and  C_2
REMARK    2  A    between atoms: C_2  and  C_3
REMARK    3  A    between atoms: C_3  and  N_4
REMARK    4  A    between atoms: C_5  and  C_7
REMARK    5  A    between atoms: C_9  and  C_10
REMARK    6  A    between atoms: N_14  and  S_15
REMARK    7  A    between atoms: S_15  and  C_18
REMARK                            x       y       z     vdW  Elec       q    Type
REMARK                         _______ _______ _______ _____ _____    ______ ____
ROOT
ATOM      1  C   UNL     1       5.581   6.123  16.424  0.00  0.00    +0.000 C 
ATOM      2  C   UNL     1       6.722   6.084  17.450  0.00  0.00    +0.000 C 
ATOM      3  C   UNL     1       6.991   4.663  17.950  0.00  0.00    +0.000 C 
ATOM      4  C   UNL     1       5.726   3.957  18.443  0.00  0.00    +0.000 C 
ATOM      5  N   UNL     1       4.633   4.062  17.441  0.00  0.00    +0.000 NA
ATOM      6  C   UNL     1       4.336   5.478  17.063  0.00  0.00    +0.000 C 
ENDROOT
BRANCH   1   9
ATOM      7  C   UNL     1       6.244   4.261  13.291  0.00  0.00    +0.000 A 
ATOM      8  C   UNL     1       5.294   4.615  14.273  0.00  0.00    +0.000 A 
ATOM      9  C   UNL     1       5.956   5.451  15.135  0.00  0.00    +0.000 A 
ATOM     10  O   UNL     1       7.221   5.645  14.669  0.00  0.00    +0.000 OA
ATOM     11  N   UNL     1       7.411   4.894  13.512  0.00  0.00    +0.000 NA
BRANCH   7  13
ATOM     12  N   UNL     1       7.050   2.434  11.970  0.00  0.00    +0.000 N 
ATOM     13  C   UNL     1       6.024   3.329  12.184  0.00  0.00    +0.000 C 
ATOM     14  O   UNL     1       5.000   3.349  11.508  0.00  0.00    +0.000 OA
ATOM     15  H   UNL     1       7.879   2.535  12.546  0.00  0.00    +0.000 HD
BRANCH  12  16
ATOM     16  C   UNL     1       7.028   1.498  10.870  0.00  0.00    +0.000 C 
BRANCH  16  18
ATOM     17  C   UNL     1       6.210  -0.839  11.411  0.00  0.00    +0.000 C 
ATOM     18  C   UNL     1       5.830   0.554  10.931  0.00  0.00    +0.000 C 
ENDBRANCH  16  18
ENDBRANCH  12  16
ENDBRANCH   7  13
ENDBRANCH   1   9
BRANCH   5  19
ATOM     19  S   UNL     1       3.234   3.145  17.798  0.00  0.00    +0.000 S 
ATOM     20  O   UNL     1       2.180   3.595  16.909  0.00  0.00    +0.000 OA
ATOM     21  O   UNL     1       3.607   1.749  17.870  0.00  0.00    +0.000 OA
BRANCH  19  22
ATOM     22  C   UNL     1       2.680   3.572  19.433  0.00  0.00    +0.000 A 
ATOM     23  C   UNL     1       2.486   4.789  20.060  0.00  0.00    +0.000 A 
ATOM     24  C   UNL     1       2.009   4.644  21.395  0.00  0.00    +0.000 A 
ATOM     25  C   UNL     1       1.844   3.321  21.740  0.00  0.00    +0.000 A 
ATOM     26  S   UNL     1       2.288   2.266  20.468  0.00  0.00    +0.000 S 
ENDBRANCH  19  22
ENDBRANCH   5  19
TORSDOF 6
ENDMDL
MODEL 5
REMARK VINA RESULT:      -7.4      1.389      1.764
REMARK  Name = 
REMARK  7 active torsions:
REMARK  status: ('A' for Active; 'I' for Inactive)
REMARK    1  A    between atoms: C_1  and  C_2
REMARK    2  A    between atoms: C_2  and  C_3
REMARK    3  A    between atoms: C_3  and  N_4
REMARK    4  A    between atoms: C_5  and  C_7
REMARK    5  A    between atoms: C_9  and  C_10
REMARK    6  A    between atoms: N_14  and  S_15
REMARK    7  A    between atoms: S_15  and  C_18
REMARK                            x       y       z     vdW  Elec       q    Type
REMARK                         _______ _______ _______ _____ _____    ______ ____
ROOT
ATOM      1  C   UNL     1       6.093   6.332  16.750  0.00  0.00    +0.000 C 
ATOM      2  C   UNL     1       7.051   5.775  17.813  0.00  0.00    +0.000 C 
ATOM      3  C   UNL     1       6.640   4.375  18.274  0.00  0.00    +0.000 C 
ATOM      4  C   UNL     1       5.173   4.297  18.699  0.00  0.00    +0.000 C 
ATOM      5  N   UNL     1       4.286   4.890  17.664  0.00  0.00    +0.000 NA
ATOM      6  C   UNL     1       4.664   6.297  17.324  0.00  0.00    +0.000 C 
ENDROOT
BRANCH   1   9
ATOM      7  C   UNL     1       6.027   4.365  13.612  0.00  0.00    +0.000 A 
ATOM      8  C   UNL     1       5.271   4.979  14.634  0.00  0.00    +0.000 A 
ATOM      9  C   UNL     1       6.191   5.583  15.453  0.00  0.00    +0.000 A 
ATOM     10  O   UNL     1       7.433   5.398  14.924  0.00  0.00    +0.000 OA
ATOM     11  N   UNL     1       7.337   4.627  13.769  0.00  0.00    +0.000 NA
BRANCH   7  13
ATOM     12  N   UNL     1       6.197   2.387  12.275  0.00  0.00    +0.000 N 
ATOM     13  C   UNL     1       5.489   3.541  12.529  0.00  0.00    +0.000 C 
ATOM     14  O   UNL     1       4.482   3.860  11.904  0.00  0.00    +0.000 OA
ATOM     15  H   UNL     1       7.048   2.240  12.808  0.00  0.00    +0.000 HD
BRANCH  12  16
ATOM     16  C   UNL     1       5.848   1.501  11.188  0.00  0.00    +0.000 C 
BRANCH  16  18
ATOM     17  C   UNL     1       5.851  -1.026  11.392  0.00  0.00    +0.000 C 
ATOM     18  C   UNL     1       6.689   0.226  11.181  0.00  0.00    +0.000 C 
ENDBRANCH  16  18
ENDBRANCH  12  16
ENDBRANCH   7  13
ENDBRANCH   1   9
BRANCH   5  19
ATOM     19  S   UNL     1       2.611   4.683  17.942  0.00  0.00    +0.000 S 
ATOM     20  O   UNL     1       2.044   5.997  18.182  0.00  0.00    +0.000 OA
ATOM     21  O   UNL     1       2.079   3.815  16.914  0.00  0.00    +0.000 OA
BRANCH  19  22
ATOM     22  C   UNL     1       2.396   3.796  19.469  0.00  0.00    +0.000 A 
ATOM     23  C   UNL     1       2.405   2.447  19.767  0.00  0.00    +0.000 A 
ATOM     24  C   UNL     1       2.203   2.195  21.155  0.00  0.00    +0.000 A 
ATOM     25  C   UNL     1       2.056   3.362  21.872  0.00  0.00    +0.000 A 
ATOM     26  S   UNL     1       2.138   4.745  20.869  0.00  0.00    +0.000 S 
ENDBRANCH  19  22
ENDBRANCH   5  19
TORSDOF 6
ENDMDL
MODEL 6
REMARK VINA RESULT:      -7.3      1.682      2.184
REMARK  Name = 
REMARK  7 active torsions:
REMARK  status: ('A' for Active; 'I' for Inactive)
REMARK    1  A    between atoms: C_1  and  C_2
REMARK    2  A    between atoms: C_2  and  C_3
REMARK    3  A    between atoms: C_3  and  N_4
REMARK    4  A    between atoms: C_5  and  C_7
REMARK    5  A    between atoms: C_9  and  C_10
REMARK    6  A    between atoms: N_14  and  S_15
REMARK    7  A    between atoms: S_15  and  C_18
REMARK                            x       y       z     vdW  Elec       q    Type
REMARK                         _______ _______ _______ _____ _____    ______ ____
ROOT
ATOM      1  C   UNL     1       4.805   6.100  16.781  0.00  0.00    +0.000 C 
ATOM      2  C   UNL     1       5.725   6.815  17.782  0.00  0.00    +0.000 C 
ATOM      3  C   UNL     1       6.666   5.838  18.490  0.00  0.00    +0.000 C 
ATOM      4  C   UNL     1       5.930   4.647  19.107  0.00  0.00    +0.000 C 
ATOM      5  N   UNL     1       5.015   4.016  18.120  0.00  0.00    +0.000 NA
ATOM      6  C   UNL     1       4.045   4.991  17.533  0.00  0.00    +0.000 C 
ENDROOT
BRANCH   1   9
ATOM      7  C   UNL     1       6.400   4.581  13.804  0.00  0.00    +0.000 A 
ATOM      8  C   UNL     1       5.192   4.914  14.452  0.00  0.00    +0.000 A 
ATOM      9  C   UNL     1       5.563   5.556  15.605  0.00  0.00    +0.000 A 
ATOM     10  O   UNL     1       6.921   5.662  15.628  0.00  0.00    +0.000 OA
ATOM     11  N   UNL     1       7.455   5.044  14.500  0.00  0.00    +0.000 NA
BRANCH   7  13
ATOM     12  N   UNL     1       5.613   2.800  12.411  0.00  0.00    +0.000 N 
ATOM     13  C   UNL     1       6.522   3.825  12.557  0.00  0.00    +0.000 C 
ATOM     14  O   UNL     1       7.369   4.093  11.710  0.00  0.00    +0.000 OA
ATOM     15  H   UNL     1       4.989   2.622  13.191  0.00  0.00    +0.000 HD
BRANCH  12  16
ATOM     16  C   UNL     1       5.644   1.907  11.275  0.00  0.00    +0.000 C 
BRANCH  16  18
ATOM     17  C   UNL     1       6.081  -0.589  11.342  0.00  0.00    +0.000 C 
ATOM     18  C   UNL     1       6.688   0.803  11.430  0.00  0.00    +0.000 C 
ENDBRANCH  16  18
ENDBRANCH  12  16
ENDBRANCH   7  13
ENDBRANCH   1   9
BRANCH   5  19
ATOM     19  S   UNL     1       4.286   2.558  18.639  0.00  0.00    +0.000 S 
ATOM     20  O   UNL     1       3.907   1.815  17.452  0.00  0.00    +0.000 OA
ATOM     21  O   UNL     1       5.123   1.964  19.658  0.00  0.00    +0.000 OA
BRANCH  19  22
ATOM     22  C   UNL     1       2.755   2.951  19.453  0.00  0.00    +0.000 A 
ATOM     23  C   UNL     1       1.479   3.178  18.973  0.00  0.00    +0.000 A 
ATOM     24  C   UNL     1       0.545   3.447  20.015  0.00  0.00    +0.000 A 
ATOM     25  C   UNL     1       1.136   3.407  21.258  0.00  0.00    +0.000 A 
ATOM     26  S   UNL     1       2.811   3.071  21.159  0.00  0.00    +0.000 S 
ENDBRANCH  19  22
ENDBRANCH   5  19
TORSDOF 6
ENDMDL
MODEL 7
REMARK VINA RESULT:      -7.1      3.938      6.798
REMARK  Name = 
REMARK  7 active torsions:
REMARK  status: ('A' for Active; 'I' for Inactive)
REMARK    1  A    between atoms: C_1  and  C_2
REMARK    2  A    between atoms: C_2  and  C_3
REMARK    3  A    between atoms: C_3  and  N_4
REMARK    4  A    between atoms: C_5  and  C_7
REMARK    5  A    between atoms: C_9  and  C_10
REMARK    6  A    between atoms: N_14  and  S_15
REMARK    7  A    between atoms: S_15  and  C_18
REMARK                            x       y       z     vdW  Elec       q    Type
REMARK                         _______ _______ _______ _____ _____    ______ ____
ROOT
ATOM      1  C   UNL     1       7.143   5.075  17.928  0.00  0.00    +0.000 C 
ATOM      2  C   UNL     1       7.082   4.445  16.530  0.00  0.00    +0.000 C 
ATOM      3  C   UNL     1       5.890   4.961  15.723  0.00  0.00    +0.000 C 
ATOM      4  C   UNL     1       4.566   4.849  16.482  0.00  0.00    +0.000 C 
ATOM      5  N   UNL     1       4.683   5.427  17.846  0.00  0.00    +0.000 NA
ATOM      6  C   UNL     1       5.799   4.815  18.634  0.00  0.00    +0.000 C 
ENDROOT
BRANCH   1   9
ATOM      7  C   UNL     1       8.087   8.653  18.098  0.00  0.00    +0.000 A 
ATOM      8  C   UNL     1       8.334   7.346  18.570  0.00  0.00    +0.000 A 
ATOM      9  C   UNL     1       7.469   6.540  17.875  0.00  0.00    +0.000 A 
ATOM     10  O   UNL     1       6.779   7.306  16.984  0.00  0.00    +0.000 OA
ATOM     11  N   UNL     1       7.158   8.638  17.125  0.00  0.00    +0.000 NA
BRANCH   7  13
ATOM     12  N   UNL     1       8.586  10.971  17.769  0.00  0.00    +0.000 N 
ATOM     13  C   UNL     1       8.727   9.874  18.590  0.00  0.00    +0.000 C 
ATOM     14  O   UNL     1       9.336   9.908  19.655  0.00  0.00    +0.000 OA
ATOM     15  H   UNL     1       8.113  10.827  16.883  0.00  0.00    +0.000 HD
BRANCH  12  16
ATOM     16  C   UNL     1       9.221  12.234  18.067  0.00  0.00    +0.000 C 
BRANCH  16  18
ATOM     17  C   UNL     1      11.630  12.844  18.566  0.00  0.00    +0.000 C 
ATOM     18  C   UNL     1      10.650  12.309  17.532  0.00  0.00    +0.000 C 
ENDBRANCH  16  18
ENDBRANCH  12  16
ENDBRANCH   7  13
ENDBRANCH   1   9
BRANCH   5  19
ATOM     19  S   UNL     1       3.215   5.534  18.716  0.00  0.00    +0.000 S 
ATOM     20  O   UNL     1       2.238   4.717  18.022  0.00  0.00    +0.000 OA
ATOM     21  O   UNL     1       3.498   5.331  20.121  0.00  0.00    +0.000 OA
BRANCH  19  22
ATOM     22  C   UNL     1       2.605   7.200  18.593  0.00  0.00    +0.000 A 
ATOM     23  C   UNL     1       2.644   8.130  17.571  0.00  0.00    +0.000 A 
ATOM     24  C   UNL     1       2.001   9.352  17.922  0.00  0.00    +0.000 A 
ATOM     25  C   UNL     1       1.483   9.311  19.197  0.00  0.00    +0.000 A 
ATOM     26  S   UNL     1       1.795   7.816  19.968  0.00  0.00    +0.000 S 
ENDBRANCH  19  22
ENDBRANCH   5  19
TORSDOF 6
ENDMDL
MODEL 8
REMARK VINA RESULT:      -7.0      1.320      1.557
REMARK  Name = 
REMARK  7 active torsions:
REMARK  status: ('A' for Active; 'I' for Inactive)
REMARK    1  A    between atoms: C_1  and  C_2
REMARK    2  A    between atoms: C_2  and  C_3
REMARK    3  A    between atoms: C_3  and  N_4
REMARK    4  A    between atoms: C_5  and  C_7
REMARK    5  A    between atoms: C_9  and  C_10
REMARK    6  A    between atoms: N_14  and  S_15
REMARK    7  A    between atoms: S_15  and  C_18
REMARK                            x       y       z     vdW  Elec       q    Type
REMARK                         _______ _______ _______ _____ _____    ______ ____
ROOT
ATOM      1  C   UNL     1       6.245   6.604  16.779  0.00  0.00    +0.000 C 
ATOM      2  C   UNL     1       7.393   6.489  17.793  0.00  0.00    +0.000 C 
ATOM      3  C   UNL     1       7.540   5.063  18.327  0.00  0.00    +0.000 C 
ATOM      4  C   UNL     1       6.224   4.487  18.855  0.00  0.00    +0.000 C 
ATOM      5  N   UNL     1       5.130   4.664  17.864  0.00  0.00    +0.000 NA
ATOM      6  C   UNL     1       4.956   6.091  17.451  0.00  0.00    +0.000 C 
ENDROOT
BRANCH   1   9
ATOM      7  C   UNL     1       6.670   4.644  13.665  0.00  0.00    +0.000 A 
ATOM      8  C   UNL     1       5.764   5.193  14.598  0.00  0.00    +0.000 A 
ATOM      9  C   UNL     1       6.540   5.868  15.505  0.00  0.00    +0.000 A 
ATOM     10  O   UNL     1       7.841   5.786  15.111  0.00  0.00    +0.000 OA
ATOM     11  N   UNL     1       7.931   5.012  13.958  0.00  0.00    +0.000 NA
BRANCH   7  13
ATOM     12  N   UNL     1       4.966   3.639  12.317  0.00  0.00    +0.000 N 
ATOM     13  C   UNL     1       6.319   3.781  12.537  0.00  0.00    +0.000 C 
ATOM     14  O   UNL     1       7.171   3.234  11.843  0.00  0.00    +0.000 OA
ATOM     15  H   UNL     1       4.341   4.086  12.979  0.00  0.00    +0.000 HD
BRANCH  12  16
ATOM     16  C   UNL     1       4.447   2.761  11.294  0.00  0.00    +0.000 C 
BRANCH  16  18
ATOM     17  C   UNL     1       3.110   4.090   9.600  0.00  0.00    +0.000 C 
ATOM     18  C   UNL     1       3.058   3.178  10.816  0.00  0.00    +0.000 C 
ENDBRANCH  16  18
ENDBRANCH  12  16
ENDBRANCH   7  13
ENDBRANCH   1   9
BRANCH   5  19
ATOM     19  S   UNL     1       3.660   3.887  18.262  0.00  0.00    +0.000 S 
ATOM     20  O   UNL     1       2.861   3.821  17.054  0.00  0.00    +0.000 OA
ATOM     21  O   UNL     1       3.964   2.695  19.025  0.00  0.00    +0.000 OA
BRANCH  19  22
ATOM     22  C   UNL     1       2.748   4.937  19.370  0.00  0.00    +0.000 A 
ATOM     23  C   UNL     1       2.086   4.683  20.557  0.00  0.00    +0.000 A 
ATOM     24  C   UNL     1       1.499   5.856  21.114  0.00  0.00    +0.000 A 
ATOM     25  C   UNL     1       1.740   6.969  20.339  0.00  0.00    +0.000 A 
ATOM     26  S   UNL     1       2.647   6.590  18.939  0.00  0.00    +0.000 S 
ENDBRANCH  19  22
ENDBRANCH   5  19
TORSDOF 6
ENDMDL
MODEL 9
REMARK VINA RESULT:      -6.9      3.665      6.719
REMARK  Name = 
REMARK  7 active torsions:
REMARK  status: ('A' for Active; 'I' for Inactive)
REMARK    1  A    between atoms: C_1  and  C_2
REMARK    2  A    between atoms: C_2  and  C_3
REMARK    3  A    between atoms: C_3  and  N_4
REMARK    4  A    between atoms: C_5  and  C_7
REMARK    5  A    between atoms: C_9  and  C_10
REMARK    6  A    between atoms: N_14  and  S_15
REMARK    7  A    between atoms: S_15  and  C_18
REMARK                            x       y       z     vdW  Elec       q    Type
REMARK                         _______ _______ _______ _____ _____    ______ ____
ROOT
ATOM      1  C   UNL     1       7.175   5.195  18.186  0.00  0.00    +0.000 C 
ATOM      2  C   UNL     1       7.143   4.474  16.831  0.00  0.00    +0.000 C 
ATOM      3  C   UNL     1       6.018   4.995  15.934  0.00  0.00    +0.000 C 
ATOM      4  C   UNL     1       4.658   5.003  16.633  0.00  0.00    +0.000 C 
ATOM      5  N   UNL     1       4.744   5.666  17.960  0.00  0.00    +0.000 NA
ATOM      6  C   UNL     1       5.787   5.053  18.840  0.00  0.00    +0.000 C 
ENDROOT
BRANCH   1   9
ATOM      7  C   UNL     1       8.281   8.730  18.174  0.00  0.00    +0.000 A 
ATOM      8  C   UNL     1       8.400   7.460  18.779  0.00  0.00    +0.000 A 
ATOM      9  C   UNL     1       7.583   6.633  18.052  0.00  0.00    +0.000 A 
ATOM     10  O   UNL     1       7.045   7.347  17.023  0.00  0.00    +0.000 OA
ATOM     11  N   UNL     1       7.475   8.668  17.098  0.00  0.00    +0.000 NA
BRANCH   7  13
ATOM     12  N   UNL     1       9.093  10.045  20.002  0.00  0.00    +0.000 N 
ATOM     13  C   UNL     1       8.922   9.961  18.638  0.00  0.00    +0.000 C 
ATOM     14  O   UNL     1       9.279  10.843  17.863  0.00  0.00    +0.000 OA
ATOM     15  H   UNL     1       8.713   9.290  20.563  0.00  0.00    +0.000 HD
BRANCH  12  16
ATOM     16  C   UNL     1       9.637  11.226  20.632  0.00  0.00    +0.000 C 
BRANCH  16  18
ATOM     17  C   UNL     1       8.369  13.159  21.671  0.00  0.00    +0.000 C 
ATOM     18  C   UNL     1       8.789  11.704  21.809  0.00  0.00    +0.000 C 
ENDBRANCH  16  18
ENDBRANCH  12  16
ENDBRANCH   7  13
ENDBRANCH   1   9
BRANCH   5  19
ATOM     19  S   UNL     1       3.246   5.908  18.748  0.00  0.00    +0.000 S 
ATOM     20  O   UNL     1       3.531   6.272  20.123  0.00  0.00    +0.000 OA
ATOM     21  O   UNL     1       2.416   6.745  17.908  0.00  0.00    +0.000 OA
BRANCH  19  22
ATOM     22  C   UNL     1       2.400   4.347  18.844  0.00  0.00    +0.000 A 
ATOM     23  C   UNL     1       1.461   3.747  18.025  0.00  0.00    +0.000 A 
ATOM     24  C   UNL     1       1.068   2.461  18.498  0.00  0.00    +0.000 A 
ATOM     25  C   UNL     1       1.728   2.117  19.657  0.00  0.00    +0.000 A 
ATOM     26  S   UNL     1       2.792   3.351  20.179  0.00  0.00    +0.000 S 
ENDBRANCH  19  22
ENDBRANCH   5  19
TORSDOF 6
ENDMDL
