MODEL 1
REMARK VINA RESULT:      -8.8      0.000      0.000
REMARK  Name = 
REMARK  5 active torsions:
REMARK  status: ('A' for Active; 'I' for Inactive)
REMARK    1  A    between atoms: C_1  and  C_2
REMARK    2  A    between atoms: C_2  and  C_3
REMARK    3  A    between atoms: N_13  and  C_14
REMARK    4  A    between atoms: C_14  and  C_15
REMARK    5  A    between atoms: C_15  and  C_17
REMARK                            x       y       z     vdW  Elec       q    Type
REMARK                         _______ _______ _______ _____ _____    ______ ____
ROOT
ATOM      1  C   UNL     1       7.498   4.661  17.265  0.00  0.00    +0.000 C 
ATOM      2  C   UNL     1       6.209   4.472  16.465  0.00  0.00    +0.000 C 
ATOM      3  N   UNL     1       5.487   3.312  16.947  0.00  0.00    +0.000 N 
ATOM      4  C   UNL     1       4.185   3.604  17.270  0.00  0.00    +0.000 C 
ATOM      5  O   UNL     1       3.358   2.764  17.584  0.00  0.00    +0.000 OA
ATOM      6  N   UNL     1       4.017   4.949  17.220  0.00  0.00    +0.000 N 
ATOM      7  C   UNL     1       5.173   5.565  16.830  0.00  0.00    +0.000 C 
ATOM      8  O   UNL     1       5.349   6.775  16.773  0.00  0.00    +0.000 OA
ATOM      9  H   UNL     1       5.794   2.353  16.867  0.00  0.00    +0.000 HD
ENDROOT
BRANCH   2  10
ATOM     10  C   UNL     1       6.449   4.429  14.955  0.00  0.00    +0.000 A 
ATOM     11  C   UNL     1       7.583   5.053  14.404  0.00  0.00    +0.000 A 
ATOM     12  C   UNL     1       7.807   5.061  13.025  0.00  0.00    +0.000 A 
ATOM     13  C   UNL     1       6.901   4.445  12.165  0.00  0.00    +0.000 A 
ATOM     14  C   UNL     1       5.777   3.820  12.691  0.00  0.00    +0.000 A 
ATOM     15 BR   UNL     1       4.537   2.986  11.531  0.00  0.00    +0.000 Br
ATOM     16  C   UNL     1       5.549   3.806  14.068  0.00  0.00    +0.000 A 
ENDBRANCH   2  10
BRANCH   6  17
ATOM     17  C   UNL     1       2.789   5.629  17.542  0.00  0.00    +0.000 C 
BRANCH  17  18
ATOM     18  C   UNL     1       2.876   6.277  18.921  0.00  0.00    +0.000 C 
ATOM     19  O   UNL     1       3.459   5.770  19.874  0.00  0.00    +0.000 OA
BRANCH  18  20
ATOM     20  C   UNL     1       2.154   7.567  19.103  0.00  0.00    +0.000 A 
ATOM     21  C   UNL     1       2.028   8.434  18.009  0.00  0.00    +0.000 A 
ATOM     22  C   UNL     1       1.470   9.704  18.182  0.00  0.00    +0.000 A 
ATOM     23  C   UNL     1       1.038  10.105  19.443  0.00  0.00    +0.000 A 
ATOM     24  C   UNL     1       1.093   9.213  20.519  0.00  0.00    +0.000 A 
ATOM     25  C   UNL     1       1.652   7.948  20.353  0.00  0.00    +0.000 A 
ATOM     26  O   UNL     1       0.655   9.521  21.781  0.00  0.00    +0.000 OA
ATOM     27  C   UNL     1      -0.091  10.746  21.803  0.00  0.00    +0.000 C 
ATOM     28  C   UNL     1       0.584  11.801  20.943  0.00  0.00    +0.000 C 
ATOM     29  O   UNL     1       0.584  11.393  19.568  0.00  0.00    +0.000 OA
ENDBRANCH  18  20
ENDBRANCH  17  18
ENDBRANCH   6  17
TORSDOF 4
ENDMDL
MODEL 2
REMARK VINA RESULT:      -8.6      0.793      1.460
REMARK  Name = 
REMARK  5 active torsions:
REMARK  status: ('A' for Active; 'I' for Inactive)
REMARK    1  A    between atoms: C_1  and  C_2
REMARK    2  A    between atoms: C_2  and  C_3
REMARK    3  A    between atoms: N_13  and  C_14
REMARK    4  A    between atoms: C_14  and  C_15
REMARK    5  A    between atoms: C_15  and  C_17
REMARK                            x       y       z     vdW  Elec       q    Type
REMARK                         _______ _______ _______ _____ _____    ______ ____
ROOT
ATOM      1  C   UNL     1       7.481   4.488  17.380  0.00  0.00    +0.000 C 
ATOM      2  C   UNL     1       6.184   4.450  16.571  0.00  0.00    +0.000 C 
ATOM      3  N   UNL     1       5.356   3.344  17.006  0.00  0.00    +0.000 N 
ATOM      4  C   UNL     1       4.085   3.742  17.341  0.00  0.00    +0.000 C 
ATOM      5  O   UNL     1       3.183   2.971  17.620  0.00  0.00    +0.000 OA
ATOM      6  N   UNL     1       4.042   5.097  17.343  0.00  0.00    +0.000 N 
ATOM      7  C   UNL     1       5.252   5.619  16.979  0.00  0.00    +0.000 C 
ATOM      8  O   UNL     1       5.540   6.810  16.970  0.00  0.00    +0.000 OA
ATOM      9  H   UNL     1       5.573   2.365  16.889  0.00  0.00    +0.000 HD
ENDROOT
BRANCH   2  10
ATOM     10  C   UNL     1       6.425   4.445  15.061  0.00  0.00    +0.000 A 
ATOM     11  C   UNL     1       7.555   5.090  14.526  0.00  0.00    +0.000 A 
ATOM     12  C   UNL     1       7.780   5.132  13.148  0.00  0.00    +0.000 A 
ATOM     13  C   UNL     1       6.880   4.531  12.273  0.00  0.00    +0.000 A 
ATOM     14  C   UNL     1       5.759   3.885  12.783  0.00  0.00    +0.000 A 
ATOM     15 BR   UNL     1       4.527   3.070  11.602  0.00  0.00    +0.000 Br
ATOM     16  C   UNL     1       5.530   3.837  14.159  0.00  0.00    +0.000 A 
ENDBRANCH   2  10
BRANCH   6  17
ATOM     17  C   UNL     1       2.881   5.875  17.691  0.00  0.00    +0.000 C 
BRANCH  17  18
ATOM     18  C   UNL     1       2.856   6.168  19.189  0.00  0.00    +0.000 C 
ATOM     19  O   UNL     1       3.368   5.439  20.033  0.00  0.00    +0.000 OA
BRANCH  18  20
ATOM     20  C   UNL     1       2.112   7.384  19.623  0.00  0.00    +0.000 A 
ATOM     21  C   UNL     1       1.521   7.399  20.895  0.00  0.00    +0.000 A 
ATOM     22  C   UNL     1       0.711   8.472  21.278  0.00  0.00    +0.000 A 
ATOM     23  C   UNL     1       0.492   9.525  20.394  0.00  0.00    +0.000 A 
ATOM     24  C   UNL     1       1.142   9.547  19.156  0.00  0.00    +0.000 A 
ATOM     25  C   UNL     1       1.947   8.480  18.767  0.00  0.00    +0.000 A 
ATOM     26  O   UNL     1       1.006  10.565  18.248  0.00  0.00    +0.000 OA
ATOM     27  C   UNL     1       0.342  11.702  18.816  0.00  0.00    +0.000 C 
ATOM     28  C   UNL     1      -0.839  11.265  19.665  0.00  0.00    +0.000 C 
ATOM     29  O   UNL     1      -0.384  10.502  20.791  0.00  0.00    +0.000 OA
ENDBRANCH  18  20
ENDBRANCH  17  18
ENDBRANCH   6  17
TORSDOF 4
ENDMDL
MODEL 3
REMARK VINA RESULT:      -7.9      4.340      9.140
REMARK  Name = 
REMARK  5 active torsions:
REMARK  status: ('A' for Active; 'I' for Inactive)
REMARK    1  A    between atoms: C_1  and  C_2
REMARK    2  A    between atoms: C_2  and  C_3
REMARK    3  A    between atoms: N_13  and  C_14
REMARK    4  A    between atoms: C_14  and  C_15
REMARK    5  A    between atoms: C_15  and  C_17
REMARK                            x       y       z     vdW  Elec       q    Type
REMARK                         _______ _______ _______ _____ _____    ______ ____
ROOT
ATOM      1  C   UNL     1      -1.436  12.212  20.645  0.00  0.00    +0.000 C 
ATOM      2  C   UNL     1      -0.902  11.394  19.469  0.00  0.00    +0.000 C 
ATOM      3  N   UNL     1       0.257  12.046  18.893  0.00  0.00    +0.000 N 
ATOM      4  C   UNL     1       1.340  11.206  18.811  0.00  0.00    +0.000 C 
ATOM      5  O   UNL     1       2.386  11.499  18.254  0.00  0.00    +0.000 OA
ATOM      6  N   UNL     1       1.052  10.059  19.475  0.00  0.00    +0.000 N 
ATOM      7  C   UNL     1      -0.220  10.096  19.971  0.00  0.00    +0.000 C 
ATOM      8  O   UNL     1      -0.731   9.240  20.683  0.00  0.00    +0.000 OA
ATOM      9  H   UNL     1       0.254  12.929  18.405  0.00  0.00    +0.000 HD
ENDROOT
BRANCH   2  10
ATOM     10  C   UNL     1      -1.976  11.080  18.427  0.00  0.00    +0.000 A 
ATOM     11  C   UNL     1      -1.699  10.186  17.377  0.00  0.00    +0.000 A 
ATOM     12  C   UNL     1      -2.649   9.909  16.391  0.00  0.00    +0.000 A 
ATOM     13  C   UNL     1      -3.899  10.522  16.432  0.00  0.00    +0.000 A 
ATOM     14  C   UNL     1      -4.193  11.405  17.464  0.00  0.00    +0.000 A 
ATOM     15 BR   UNL     1      -5.886  12.247  17.525  0.00  0.00    +0.000 Br
ATOM     16  C   UNL     1      -3.249  11.684  18.454  0.00  0.00    +0.000 A 
ENDBRANCH   2  10
BRANCH   6  17
ATOM     17  C   UNL     1       1.969   8.960  19.638  0.00  0.00    +0.000 C 
BRANCH  17  18
ATOM     18  C   UNL     1       2.078   8.153  18.347  0.00  0.00    +0.000 C 
ATOM     19  O   UNL     1       1.322   8.294  17.391  0.00  0.00    +0.000 OA
BRANCH  18  20
ATOM     20  C   UNL     1       3.135   7.103  18.299  0.00  0.00    +0.000 A 
ATOM     21  C   UNL     1       3.162   6.122  19.300  0.00  0.00    +0.000 A 
ATOM     22  C   UNL     1       4.214   5.203  19.352  0.00  0.00    +0.000 A 
ATOM     23  C   UNL     1       5.235   5.266  18.408  0.00  0.00    +0.000 A 
ATOM     24  C   UNL     1       5.170   6.195  17.365  0.00  0.00    +0.000 A 
ATOM     25  C   UNL     1       4.125   7.114  17.309  0.00  0.00    +0.000 A 
ATOM     26  O   UNL     1       6.116   6.293  16.378  0.00  0.00    +0.000 OA
ATOM     27  C   UNL     1       7.022   5.182  16.394  0.00  0.00    +0.000 C 
ATOM     28  C   UNL     1       7.427   4.840  17.818  0.00  0.00    +0.000 C 
ATOM     29  O   UNL     1       6.285   4.398  18.565  0.00  0.00    +0.000 OA
ENDBRANCH  18  20
ENDBRANCH  17  18
ENDBRANCH   6  17
TORSDOF 4
ENDMDL
MODEL 4
REMARK VINA RESULT:      -7.8      1.035      1.371
REMARK  Name = 
REMARK  5 active torsions:
REMARK  status: ('A' for Active; 'I' for Inactive)
REMARK    1  A    between atoms: C_1  and  C_2
REMARK    2  A    between atoms: C_2  and  C_3
REMARK    3  A    between atoms: N_13  and  C_14
REMARK    4  A    between atoms: C_14  and  C_15
REMARK    5  A    between atoms: C_15  and  C_17
REMARK                            x       y       z     vdW  Elec       q    Type
REMARK                         _______ _______ _______ _____ _____    ______ ____
ROOT
ATOM      1  C   UNL     1       7.293   4.679  17.395  0.00  0.00    +0.000 C 
ATOM      2  C   UNL     1       5.996   4.466  16.616  0.00  0.00    +0.000 C 
ATOM      3  N   UNL     1       5.292   3.305  17.124  0.00  0.00    +0.000 N 
ATOM      4  C   UNL     1       3.992   3.589  17.462  0.00  0.00    +0.000 C 
ATOM      5  O   UNL     1       3.178   2.746  17.799  0.00  0.00    +0.000 OA
ATOM      6  N   UNL     1       3.810   4.931  17.395  0.00  0.00    +0.000 N 
ATOM      7  C   UNL     1       4.954   5.553  16.981  0.00  0.00    +0.000 C 
ATOM      8  O   UNL     1       5.117   6.765  16.904  0.00  0.00    +0.000 OA
ATOM      9  H   UNL     1       5.607   2.349  17.054  0.00  0.00    +0.000 HD
ENDROOT
BRANCH   2  10
ATOM     10  C   UNL     1       6.214   4.403  15.104  0.00  0.00    +0.000 A 
ATOM     11  C   UNL     1       5.439   3.534  14.315  0.00  0.00    +0.000 A 
ATOM     12  C   UNL     1       5.644   3.430  12.937  0.00  0.00    +0.000 A 
ATOM     13  C   UNL     1       6.629   4.192  12.316  0.00  0.00    +0.000 A 
ATOM     14  C   UNL     1       7.402   5.061  13.078  0.00  0.00    +0.000 A 
ATOM     15 BR   UNL     1       8.747   6.096  12.244  0.00  0.00    +0.000 Br
ATOM     16  C   UNL     1       7.201   5.171  14.455  0.00  0.00    +0.000 A 
ENDBRANCH   2  10
BRANCH   6  17
ATOM     17  C   UNL     1       2.579   5.604  17.725  0.00  0.00    +0.000 C 
BRANCH  17  18
ATOM     18  C   UNL     1       2.686   6.289  19.085  0.00  0.00    +0.000 C 
ATOM     19  O   UNL     1       3.224   5.778  20.063  0.00  0.00    +0.000 OA
BRANCH  18  20
ATOM     20  C   UNL     1       2.041   7.625  19.216  0.00  0.00    +0.000 A 
ATOM     21  C   UNL     1       2.008   8.475  18.101  0.00  0.00    +0.000 A 
ATOM     22  C   UNL     1       1.525   9.780  18.229  0.00  0.00    +0.000 A 
ATOM     23  C   UNL     1       1.076  10.235  19.466  0.00  0.00    +0.000 A 
ATOM     24  C   UNL     1       1.038   9.365  20.560  0.00  0.00    +0.000 A 
ATOM     25  C   UNL     1       1.521   8.064  20.439  0.00  0.00    +0.000 A 
ATOM     26  O   UNL     1       0.576   9.727  21.800  0.00  0.00    +0.000 OA
ATOM     27  C   UNL     1      -0.091  10.995  21.771  0.00  0.00    +0.000 C 
ATOM     28  C   UNL     1       0.678  11.988  20.915  0.00  0.00    +0.000 C 
ATOM     29  O   UNL     1       0.701  11.551  19.549  0.00  0.00    +0.000 OA
ENDBRANCH  18  20
ENDBRANCH  17  18
ENDBRANCH   6  17
TORSDOF 4
ENDMDL
MODEL 5
REMARK VINA RESULT:      -7.7      1.299      1.999
REMARK  Name = 
REMARK  5 active torsions:
REMARK  status: ('A' for Active; 'I' for Inactive)
REMARK    1  A    between atoms: C_1  and  C_2
REMARK    2  A    between atoms: C_2  and  C_3
REMARK    3  A    between atoms: N_13  and  C_14
REMARK    4  A    between atoms: C_14  and  C_15
REMARK    5  A    between atoms: C_15  and  C_17
REMARK                            x       y       z     vdW  Elec       q    Type
REMARK                         _______ _______ _______ _____ _____    ______ ____
ROOT
ATOM      1  C   UNL     1       7.367   4.500  17.451  0.00  0.00    +0.000 C 
ATOM      2  C   UNL     1       6.051   4.425  16.678  0.00  0.00    +0.000 C 
ATOM      3  N   UNL     1       5.247   3.322  17.165  0.00  0.00    +0.000 N 
ATOM      4  C   UNL     1       3.981   3.716  17.521  0.00  0.00    +0.000 C 
ATOM      5  O   UNL     1       3.095   2.942  17.846  0.00  0.00    +0.000 OA
ATOM      6  N   UNL     1       3.922   5.070  17.487  0.00  0.00    +0.000 N 
ATOM      7  C   UNL     1       5.115   5.594  17.077  0.00  0.00    +0.000 C 
ATOM      8  O   UNL     1       5.389   6.787  17.027  0.00  0.00    +0.000 OA
ATOM      9  H   UNL     1       5.472   2.342  17.070  0.00  0.00    +0.000 HD
ENDROOT
BRANCH   2  10
ATOM     10  C   UNL     1       6.253   4.379  15.163  0.00  0.00    +0.000 A 
ATOM     11  C   UNL     1       5.469   3.517  14.373  0.00  0.00    +0.000 A 
ATOM     12  C   UNL     1       5.658   3.428  12.992  0.00  0.00    +0.000 A 
ATOM     13  C   UNL     1       6.637   4.198  12.368  0.00  0.00    +0.000 A 
ATOM     14  C   UNL     1       7.418   5.058  13.131  0.00  0.00    +0.000 A 
ATOM     15 BR   UNL     1       8.754   6.103  12.294  0.00  0.00    +0.000 Br
ATOM     16  C   UNL     1       7.232   5.153  14.511  0.00  0.00    +0.000 A 
ENDBRANCH   2  10
BRANCH   6  17
ATOM     17  C   UNL     1       2.760   5.844  17.843  0.00  0.00    +0.000 C 
BRANCH  17  18
ATOM     18  C   UNL     1       2.776   6.187  19.330  0.00  0.00    +0.000 C 
ATOM     19  O   UNL     1       3.305   5.484  20.185  0.00  0.00    +0.000 OA
BRANCH  18  20
ATOM     20  C   UNL     1       2.048   7.421  19.741  0.00  0.00    +0.000 A 
ATOM     21  C   UNL     1       1.433   7.457  21.001  0.00  0.00    +0.000 A 
ATOM     22  C   UNL     1       0.637   8.549  21.361  0.00  0.00    +0.000 A 
ATOM     23  C   UNL     1       0.459   9.601  20.467  0.00  0.00    +0.000 A 
ATOM     24  C   UNL     1       1.134   9.602  19.242  0.00  0.00    +0.000 A 
ATOM     25  C   UNL     1       1.925   8.515  18.876  0.00  0.00    +0.000 A 
ATOM     26  O   UNL     1       1.039  10.617  18.325  0.00  0.00    +0.000 OA
ATOM     27  C   UNL     1       0.388  11.771  18.873  0.00  0.00    +0.000 C 
ATOM     28  C   UNL     1      -0.819  11.364  19.701  0.00  0.00    +0.000 C 
ATOM     29  O   UNL     1      -0.404  10.599  20.840  0.00  0.00    +0.000 OA
ENDBRANCH  18  20
ENDBRANCH  17  18
ENDBRANCH   6  17
TORSDOF 4
ENDMDL
MODEL 6
REMARK VINA RESULT:      -7.7      4.434      9.003
REMARK  Name = 
REMARK  5 active torsions:
REMARK  status: ('A' for Active; 'I' for Inactive)
REMARK    1  A    between atoms: C_1  and  C_2
REMARK    2  A    between atoms: C_2  and  C_3
REMARK    3  A    between atoms: N_13  and  C_14
REMARK    4  A    between atoms: C_14  and  C_15
REMARK    5  A    between atoms: C_15  and  C_17
REMARK                            x       y       z     vdW  Elec       q    Type
REMARK                         _______ _______ _______ _____ _____    ______ ____
ROOT
ATOM      1  C   UNL     1      -1.484  12.189  20.641  0.00  0.00    +0.000 C 
ATOM      2  C   UNL     1      -0.924  11.422  19.443  0.00  0.00    +0.000 C 
ATOM      3  N   UNL     1       0.215  12.125  18.888  0.00  0.00    +0.000 N 
ATOM      4  C   UNL     1       1.324  11.322  18.782  0.00  0.00    +0.000 C 
ATOM      5  O   UNL     1       2.360  11.662  18.236  0.00  0.00    +0.000 OA
ATOM      6  N   UNL     1       1.070  10.148  19.413  0.00  0.00    +0.000 N 
ATOM      7  C   UNL     1      -0.203  10.132  19.908  0.00  0.00    +0.000 C 
ATOM      8  O   UNL     1      -0.688   9.241  20.595  0.00  0.00    +0.000 OA
ATOM      9  H   UNL     1       0.185  13.021  18.425  0.00  0.00    +0.000 HD
ENDROOT
BRANCH   2  10
ATOM     10  C   UNL     1      -1.988  11.105  18.391  0.00  0.00    +0.000 A 
ATOM     11  C   UNL     1      -1.702  10.204  17.349  0.00  0.00    +0.000 A 
ATOM     12  C   UNL     1      -2.642   9.925  16.354  0.00  0.00    +0.000 A 
ATOM     13  C   UNL     1      -3.889  10.541  16.378  0.00  0.00    +0.000 A 
ATOM     14  C   UNL     1      -4.192  11.432  17.401  0.00  0.00    +0.000 A 
ATOM     15 BR   UNL     1      -5.883  12.280  17.438  0.00  0.00    +0.000 Br
ATOM     16  C   UNL     1      -3.258  11.713  18.400  0.00  0.00    +0.000 A 
ENDBRANCH   2  10
BRANCH   6  17
ATOM     17  C   UNL     1       2.020   9.073  19.546  0.00  0.00    +0.000 C 
BRANCH  17  18
ATOM     18  C   UNL     1       2.178   8.327  18.224  0.00  0.00    +0.000 C 
ATOM     19  O   UNL     1       1.787   8.763  17.146  0.00  0.00    +0.000 OA
BRANCH  18  20
ATOM     20  C   UNL     1       2.792   6.970  18.289  0.00  0.00    +0.000 A 
ATOM     21  C   UNL     1       3.916   6.696  17.497  0.00  0.00    +0.000 A 
ATOM     22  C   UNL     1       4.433   5.399  17.439  0.00  0.00    +0.000 A 
ATOM     23  C   UNL     1       3.830   4.380  18.172  0.00  0.00    +0.000 A 
ATOM     24  C   UNL     1       2.757   4.667  19.020  0.00  0.00    +0.000 A 
ATOM     25  C   UNL     1       2.235   5.957  19.078  0.00  0.00    +0.000 A 
ATOM     26  O   UNL     1       2.134   3.726  19.799  0.00  0.00    +0.000 OA
ATOM     27  C   UNL     1       2.868   2.495  19.837  0.00  0.00    +0.000 C 
ATOM     28  C   UNL     1       3.380   2.133  18.454  0.00  0.00    +0.000 C 
ATOM     29  O   UNL     1       4.326   3.113  18.004  0.00  0.00    +0.000 OA
ENDBRANCH  18  20
ENDBRANCH  17  18
ENDBRANCH   6  17
TORSDOF 4
ENDMDL
MODEL 7
REMARK VINA RESULT:      -7.7      1.636      2.407
REMARK  Name = 
REMARK  5 active torsions:
REMARK  status: ('A' for Active; 'I' for Inactive)
REMARK    1  A    between atoms: C_1  and  C_2
REMARK    2  A    between atoms: C_2  and  C_3
REMARK    3  A    between atoms: N_13  and  C_14
REMARK    4  A    between atoms: C_14  and  C_15
REMARK    5  A    between atoms: C_15  and  C_17
REMARK                            x       y       z     vdW  Elec       q    Type
REMARK                         _______ _______ _______ _____ _____    ______ ____
ROOT
ATOM      1  C   UNL     1       4.656   2.405  19.145  0.00  0.00    +0.000 C 
ATOM      2  C   UNL     1       4.239   3.600  18.287  0.00  0.00    +0.000 C 
ATOM      3  N   UNL     1       2.950   3.348  17.674  0.00  0.00    +0.000 N 
ATOM      4  C   UNL     1       2.048   4.353  17.923  0.00  0.00    +0.000 C 
ATOM      5  O   UNL     1       0.942   4.415  17.412  0.00  0.00    +0.000 OA
ATOM      6  N   UNL     1       2.582   5.198  18.839  0.00  0.00    +0.000 N 
ATOM      7  C   UNL     1       3.845   4.803  19.182  0.00  0.00    +0.000 C 
ATOM      8  O   UNL     1       4.543   5.321  20.043  0.00  0.00    +0.000 OA
ATOM      9  H   UNL     1       2.760   2.651  16.969  0.00  0.00    +0.000 HD
ENDROOT
BRANCH   2  10
ATOM     10  C   UNL     1       5.306   4.001  17.269  0.00  0.00    +0.000 A 
ATOM     11  C   UNL     1       6.456   4.694  17.690  0.00  0.00    +0.000 A 
ATOM     12  C   UNL     1       7.429   5.106  16.776  0.00  0.00    +0.000 A 
ATOM     13  C   UNL     1       7.273   4.835  15.419  0.00  0.00    +0.000 A 
ATOM     14  C   UNL     1       6.145   4.149  14.984  0.00  0.00    +0.000 A 
ATOM     15 BR   UNL     1       5.922   3.783  13.142  0.00  0.00    +0.000 Br
ATOM     16  C   UNL     1       5.171   3.732  15.893  0.00  0.00    +0.000 A 
ENDBRANCH   2  10
BRANCH   6  17
ATOM     17  C   UNL     1       1.905   6.350  19.377  0.00  0.00    +0.000 C 
BRANCH  17  18
ATOM     18  C   UNL     1       2.329   7.618  18.642  0.00  0.00    +0.000 C 
ATOM     19  O   UNL     1       3.223   7.650  17.802  0.00  0.00    +0.000 OA
BRANCH  18  20
ATOM     20  C   UNL     1       1.640   8.881  19.030  0.00  0.00    +0.000 A 
ATOM     21  C   UNL     1       1.505   9.900  18.076  0.00  0.00    +0.000 A 
ATOM     22  C   UNL     1       0.979  11.142  18.447  0.00  0.00    +0.000 A 
ATOM     23  C   UNL     1       0.590  11.363  19.766  0.00  0.00    +0.000 A 
ATOM     24  C   UNL     1       0.654  10.323  20.699  0.00  0.00    +0.000 A 
ATOM     25  C   UNL     1       1.180   9.086  20.336  0.00  0.00    +0.000 A 
ATOM     26  O   UNL     1       0.256  10.453  22.005  0.00  0.00    +0.000 OA
ATOM     27  C   UNL     1      -0.462  11.675  22.225  0.00  0.00    +0.000 C 
ATOM     28  C   UNL     1       0.213  12.831  21.507  0.00  0.00    +0.000 C 
ATOM     29  O   UNL     1       0.169  12.627  20.088  0.00  0.00    +0.000 OA
ENDBRANCH  18  20
ENDBRANCH  17  18
ENDBRANCH   6  17
TORSDOF 4
ENDMDL
MODEL 8
REMARK VINA RESULT:      -7.7      4.774      9.101
REMARK  Name = 
REMARK  5 active torsions:
REMARK  status: ('A' for Active; 'I' for Inactive)
REMARK    1  A    between atoms: C_1  and  C_2
REMARK    2  A    between atoms: C_2  and  C_3
REMARK    3  A    between atoms: N_13  and  C_14
REMARK    4  A    between atoms: C_14  and  C_15
REMARK    5  A    between atoms: C_15  and  C_17
REMARK                            x       y       z     vdW  Elec       q    Type
REMARK                         _______ _______ _______ _____ _____    ______ ____
ROOT
ATOM      1  C   UNL     1      -1.752  12.170  20.755  0.00  0.00    +0.000 C 
ATOM      2  C   UNL     1      -1.077  11.509  19.553  0.00  0.00    +0.000 C 
ATOM      3  N   UNL     1       0.008  12.340  19.070  0.00  0.00    +0.000 N 
ATOM      4  C   UNL     1       1.193  11.652  18.981  0.00  0.00    +0.000 C 
ATOM      5  O   UNL     1       2.210  12.113  18.490  0.00  0.00    +0.000 OA
ATOM      6  N   UNL     1       1.033  10.436  19.558  0.00  0.00    +0.000 N 
ATOM      7  C   UNL     1      -0.250  10.277  20.000  0.00  0.00    +0.000 C 
ATOM      8  O   UNL     1      -0.671   9.316  20.634  0.00  0.00    +0.000 OA
ATOM      9  H   UNL     1      -0.093  13.247  18.639  0.00  0.00    +0.000 HD
ENDROOT
BRANCH   2  10
ATOM     10  C   UNL     1      -2.064  11.134  18.448  0.00  0.00    +0.000 A 
ATOM     11  C   UNL     1      -1.687  10.221  17.446  0.00  0.00    +0.000 A 
ATOM     12  C   UNL     1      -2.556   9.889  16.404  0.00  0.00    +0.000 A 
ATOM     13  C   UNL     1      -3.823  10.462  16.340  0.00  0.00    +0.000 A 
ATOM     14  C   UNL     1      -4.216  11.363  17.323  0.00  0.00    +0.000 A 
ATOM     15 BR   UNL     1      -5.933  12.152  17.241  0.00  0.00    +0.000 Br
ATOM     16  C   UNL     1      -3.353  11.697  18.368  0.00  0.00    +0.000 A 
ENDBRANCH   2  10
BRANCH   6  17
ATOM     17  C   UNL     1       2.078   9.453  19.690  0.00  0.00    +0.000 C 
BRANCH  17  18
ATOM     18  C   UNL     1       2.035   8.461  18.531  0.00  0.00    +0.000 C 
ATOM     19  O   UNL     1       1.835   8.786  17.365  0.00  0.00    +0.000 OA
BRANCH  18  20
ATOM     20  C   UNL     1       2.190   7.019  18.875  0.00  0.00    +0.000 A 
ATOM     21  C   UNL     1       1.883   6.596  20.176  0.00  0.00    +0.000 A 
ATOM     22  C   UNL     1       2.140   5.277  20.563  0.00  0.00    +0.000 A 
ATOM     23  C   UNL     1       2.701   4.386  19.652  0.00  0.00    +0.000 A 
ATOM     24  C   UNL     1       2.936   4.786  18.333  0.00  0.00    +0.000 A 
ATOM     25  C   UNL     1       2.685   6.099  17.943  0.00  0.00    +0.000 A 
ATOM     26  O   UNL     1       3.452   3.957  17.371  0.00  0.00    +0.000 OA
ATOM     27  C   UNL     1       3.473   2.589  17.800  0.00  0.00    +0.000 C 
ATOM     28  C   UNL     1       3.947   2.485  19.240  0.00  0.00    +0.000 C 
ATOM     29  O   UNL     1       3.014   3.134  20.116  0.00  0.00    +0.000 OA
ENDBRANCH  18  20
ENDBRANCH  17  18
ENDBRANCH   6  17
TORSDOF 4
ENDMDL
MODEL 9
REMARK VINA RESULT:      -7.6      1.702      2.767
REMARK  Name = 
REMARK  5 active torsions:
REMARK  status: ('A' for Active; 'I' for Inactive)
REMARK    1  A    between atoms: C_1  and  C_2
REMARK    2  A    between atoms: C_2  and  C_3
REMARK    3  A    between atoms: N_13  and  C_14
REMARK    4  A    between atoms: C_14  and  C_15
REMARK    5  A    between atoms: C_15  and  C_17
REMARK                            x       y       z     vdW  Elec       q    Type
REMARK                         _______ _______ _______ _____ _____    ______ ____
ROOT
ATOM      1  C   UNL     1       4.277   1.716  18.331  0.00  0.00    +0.000 C 
ATOM      2  C   UNL     1       3.993   3.132  17.832  0.00  0.00    +0.000 C 
ATOM      3  N   UNL     1       2.695   3.184  17.189  0.00  0.00    +0.000 N 
ATOM      4  C   UNL     1       1.893   4.169  17.710  0.00  0.00    +0.000 C 
ATOM      5  O   UNL     1       0.806   4.475  17.248  0.00  0.00    +0.000 OA
ATOM      6  N   UNL     1       2.494   4.679  18.813  0.00  0.00    +0.000 N 
ATOM      7  C   UNL     1       3.705   4.083  19.022  0.00  0.00    +0.000 C 
ATOM      8  O   UNL     1       4.438   4.279  19.984  0.00  0.00    +0.000 OA
ATOM      9  H   UNL     1       2.449   2.725  16.324  0.00  0.00    +0.000 HD
ENDROOT
BRANCH   2  10
ATOM     10  C   UNL     1       5.110   3.686  16.947  0.00  0.00    +0.000 A 
ATOM     11  C   UNL     1       6.135   4.467  17.512  0.00  0.00    +0.000 A 
ATOM     12  C   UNL     1       7.146   5.017  16.721  0.00  0.00    +0.000 A 
ATOM     13  C   UNL     1       7.157   4.799  15.347  0.00  0.00    +0.000 A 
ATOM     14  C   UNL     1       6.155   4.026  14.770  0.00  0.00    +0.000 A 
ATOM     15 BR   UNL     1       6.156   3.729  12.902  0.00  0.00    +0.000 Br
ATOM     16  C   UNL     1       5.142   3.472  15.555  0.00  0.00    +0.000 A 
ENDBRANCH   2  10
BRANCH   6  17
ATOM     17  C   UNL     1       1.924   5.704  19.651  0.00  0.00    +0.000 C 
BRANCH  17  18
ATOM     18  C   UNL     1       2.292   7.091  19.130  0.00  0.00    +0.000 C 
ATOM     19  O   UNL     1       3.118   7.288  18.245  0.00  0.00    +0.000 OA
BRANCH  18  20
ATOM     20  C   UNL     1       1.637   8.253  19.795  0.00  0.00    +0.000 A 
ATOM     21  C   UNL     1       1.282   8.148  21.148  0.00  0.00    +0.000 A 
ATOM     22  C   UNL     1       0.553   9.171  21.762  0.00  0.00    +0.000 A 
ATOM     23  C   UNL     1       0.182  10.294  21.027  0.00  0.00    +0.000 A 
ATOM     24  C   UNL     1       0.601  10.434  19.701  0.00  0.00    +0.000 A 
ATOM     25  C   UNL     1       1.324   9.416  19.083  0.00  0.00    +0.000 A 
ATOM     26  O   UNL     1       0.306  11.525  18.925  0.00  0.00    +0.000 OA
ATOM     27  C   UNL     1      -0.245  12.598  19.700  0.00  0.00    +0.000 C 
ATOM     28  C   UNL     1      -1.257  12.071  20.703  0.00  0.00    +0.000 C 
ATOM     29  O   UNL     1      -0.609  11.219  21.659  0.00  0.00    +0.000 OA
ENDBRANCH  18  20
ENDBRANCH  17  18
ENDBRANCH   6  17
TORSDOF 4
ENDMDL
