MODEL 1
REMARK VINA RESULT:      -7.7      0.000      0.000
REMARK  Name = 
REMARK  12 active torsions:
REMARK  status: ('A' for Active; 'I' for Inactive)
REMARK    1  A    between atoms: C_2  and  C_3
REMARK    2  A    between atoms: C_3  and  O_4
REMARK    3  A    between atoms: O_4  and  C_5
REMARK    4  A    between atoms: C_5  and  C_7
REMARK    5  A    between atoms: C_7  and  C_8
REMARK    6  A    between atoms: C_9  and  C_10
REMARK    7  A    between atoms: C_10  and  O_12
REMARK    8  A    between atoms: O_12  and  C_13
REMARK    9  A    between atoms: C_13  and  C_14
REMARK   10  A    between atoms: C_16  and  N_17
REMARK   11  A    between atoms: C_22  and  C_23
REMARK   12  A    between atoms: C_26  and  C_27
REMARK                            x       y       z     vdW  Elec       q    Type
REMARK                         _______ _______ _______ _____ _____    ______ ____
ROOT
ATOM      1  C   UNL     1       4.547   5.668  18.498  0.00  0.00    +0.000 C 
ATOM      2  C   UNL     1       5.054   4.241  18.581  0.00  0.00    +0.000 C 
ATOM      3  C   UNL     1       4.461   3.325  19.364  0.00  0.00    +0.000 C 
ATOM      4  O   UNL     1       3.312   3.620  20.129  0.00  0.00    +0.000 OA
ATOM      5  C   UNL     1       2.822   4.907  20.163  0.00  0.00    +0.000 A 
ATOM      6  C   UNL     1       1.695   5.191  20.945  0.00  0.00    +0.000 A 
ATOM      7  C   UNL     1       1.144   6.487  20.966  0.00  0.00    +0.000 A 
ATOM      8  C   UNL     1       1.703   7.538  20.219  0.00  0.00    +0.000 A 
ATOM      9  C   UNL     1       2.853   7.232  19.487  0.00  0.00    +0.000 A 
ATOM     10  C   UNL     1       3.399   5.935  19.430  0.00  0.00    +0.000 A 
ENDROOT
BRANCH   8  11
ATOM     11  C   UNL     1       1.128   8.900  20.146  0.00  0.00    +0.000 A 
ATOM     12  C   UNL     1       0.971   9.582  18.927  0.00  0.00    +0.000 A 
ATOM     13  C   UNL     1       0.407  10.857  18.880  0.00  0.00    +0.000 A 
ATOM     14  C   UNL     1       0.044  11.468  20.071  0.00  0.00    +0.000 A 
ATOM     15  C   UNL     1      -0.402  12.897  20.092  0.00  0.00    +0.000 C 
ATOM     16  N   UNL     1       0.141  10.837  21.262  0.00  0.00    +0.000 NA
ATOM     17  C   UNL     1       0.655   9.579  21.266  0.00  0.00    +0.000 A 
ENDBRANCH   8  11
BRANCH   3  18
ATOM     18  N   UNL     1       4.924   2.045  19.532  0.00  0.00    +0.000 N 
ATOM     19  H   UNL     1       4.327   1.297  19.185  0.00  0.00    +0.000 HD
ATOM     20  H   UNL     1       5.496   1.854  20.347  0.00  0.00    +0.000 HD
ENDBRANCH   3  18
BRANCH   2  21
ATOM     21  C   UNL     1       6.273   4.026  17.753  0.00  0.00    +0.000 C 
ATOM     22  O   UNL     1       7.387   4.325  18.166  0.00  0.00    +0.000 OA
BRANCH  21  23
ATOM     23  O   UNL     1       6.000   3.578  16.503  0.00  0.00    +0.000 OA
BRANCH  23  24
ATOM     24  C   UNL     1       6.901   4.085  15.502  0.00  0.00    +0.000 C 
BRANCH  24  25
ATOM     25  C   UNL     1       6.318   3.901  14.164  0.00  0.00    +0.000 C 
ATOM     26  C   UNL     1       5.890   3.712  13.067  0.00  0.00    +0.000 C 
ENDBRANCH  24  25
ENDBRANCH  23  24
ENDBRANCH  21  23
ENDBRANCH   2  21
BRANCH   1  27
ATOM     27  C   UNL     1       4.146   6.031  17.059  0.00  0.00    +0.000 C 
BRANCH  27  28
ATOM     28  C   UNL     1       5.136   6.952  16.428  0.00  0.00    +0.000 C 
ATOM     29  O   UNL     1       5.233   7.115  15.218  0.00  0.00    +0.000 OA
BRANCH  28  30
ATOM     30  O   UNL     1       5.934   7.519  17.363  0.00  0.00    +0.000 OA
BRANCH  30  31
ATOM     31  C   UNL     1       7.314   7.418  17.046  0.00  0.00    +0.000 C 
BRANCH  31  33
ATOM     32  C   UNL     1       8.563   9.591  18.346  0.00  0.00    +0.000 C 
ATOM     33  C   UNL     1       7.986   8.588  17.746  0.00  0.00    +0.000 C 
ENDBRANCH  31  33
ENDBRANCH  30  31
ENDBRANCH  28  30
ENDBRANCH  27  28
ENDBRANCH   1  27
TORSDOF 11
ENDMDL
MODEL 2
REMARK VINA RESULT:      -7.3      1.068      1.204
REMARK  Name = 
REMARK  12 active torsions:
REMARK  status: ('A' for Active; 'I' for Inactive)
REMARK    1  A    between atoms: C_2  and  C_3
REMARK    2  A    between atoms: C_3  and  O_4
REMARK    3  A    between atoms: O_4  and  C_5
REMARK    4  A    between atoms: C_5  and  C_7
REMARK    5  A    between atoms: C_7  and  C_8
REMARK    6  A    between atoms: C_9  and  C_10
REMARK    7  A    between atoms: C_10  and  O_12
REMARK    8  A    between atoms: O_12  and  C_13
REMARK    9  A    between atoms: C_13  and  C_14
REMARK   10  A    between atoms: C_16  and  N_17
REMARK   11  A    between atoms: C_22  and  C_23
REMARK   12  A    between atoms: C_26  and  C_27
REMARK                            x       y       z     vdW  Elec       q    Type
REMARK                         _______ _______ _______ _____ _____    ______ ____
ROOT
ATOM      1  C   UNL     1       4.271   5.333  18.080  0.00  0.00    +0.000 C 
ATOM      2  C   UNL     1       4.592   3.882  17.779  0.00  0.00    +0.000 C 
ATOM      3  C   UNL     1       3.893   2.875  18.327  0.00  0.00    +0.000 C 
ATOM      4  O   UNL     1       2.798   3.102  19.188  0.00  0.00    +0.000 OA
ATOM      5  C   UNL     1       2.477   4.386  19.567  0.00  0.00    +0.000 A 
ATOM      6  C   UNL     1       1.403   4.595  20.441  0.00  0.00    +0.000 A 
ATOM      7  C   UNL     1       1.022   5.900  20.812  0.00  0.00    +0.000 A 
ATOM      8  C   UNL     1       1.705   7.031  20.334  0.00  0.00    +0.000 A 
ATOM      9  C   UNL     1       2.800   6.786  19.501  0.00  0.00    +0.000 A 
ATOM     10  C   UNL     1       3.174   5.490  19.096  0.00  0.00    +0.000 A 
ENDROOT
BRANCH   8  11
ATOM     11  C   UNL     1       1.308   8.425  20.631  0.00  0.00    +0.000 A 
ATOM     12  C   UNL     1       1.012   9.353  19.618  0.00  0.00    +0.000 A 
ATOM     13  C   UNL     1       0.620  10.657  19.923  0.00  0.00    +0.000 A 
ATOM     14  C   UNL     1       0.573  11.043  21.254  0.00  0.00    +0.000 A 
ATOM     15  C   UNL     1       0.328  12.472  21.627  0.00  0.00    +0.000 C 
ATOM     16  N   UNL     1       0.812  10.176  22.263  0.00  0.00    +0.000 NA
ATOM     17  C   UNL     1       1.149   8.902  21.930  0.00  0.00    +0.000 A 
ENDBRANCH   8  11
BRANCH   3  18
ATOM     18  N   UNL     1       4.190   1.549  18.146  0.00  0.00    +0.000 N 
ATOM     19  H   UNL     1       3.398   0.913  18.065  0.00  0.00    +0.000 HD
ATOM     20  H   UNL     1       5.040   1.194  18.571  0.00  0.00    +0.000 HD
ENDBRANCH   3  18
BRANCH   2  21
ATOM     21  C   UNL     1       5.766   3.740  16.874  0.00  0.00    +0.000 C 
ATOM     22  O   UNL     1       6.903   3.985  17.260  0.00  0.00    +0.000 OA
BRANCH  21  23
ATOM     23  O   UNL     1       5.427   3.424  15.600  0.00  0.00    +0.000 OA
BRANCH  23  24
ATOM     24  C   UNL     1       6.374   3.888  14.622  0.00  0.00    +0.000 C 
BRANCH  24  25
ATOM     25  C   UNL     1       5.869   3.618  13.267  0.00  0.00    +0.000 C 
ATOM     26  C   UNL     1       5.427   3.352  12.192  0.00  0.00    +0.000 C 
ENDBRANCH  24  25
ENDBRANCH  23  24
ENDBRANCH  21  23
ENDBRANCH   2  21
BRANCH   1  27
ATOM     27  C   UNL     1       3.908   6.099  16.798  0.00  0.00    +0.000 C 
BRANCH  27  28
ATOM     28  C   UNL     1       5.052   6.921  16.305  0.00  0.00    +0.000 C 
ATOM     29  O   UNL     1       5.361   7.010  15.123  0.00  0.00    +0.000 OA
BRANCH  28  30
ATOM     30  O   UNL     1       5.720   7.488  17.337  0.00  0.00    +0.000 OA
BRANCH  30  31
ATOM     31  C   UNL     1       7.130   7.446  17.171  0.00  0.00    +0.000 C 
BRANCH  31  33
ATOM     32  C   UNL     1       8.125   6.039  19.408  0.00  0.00    +0.000 C 
ATOM     33  C   UNL     1       7.665   6.688  18.375  0.00  0.00    +0.000 C 
ENDBRANCH  31  33
ENDBRANCH  30  31
ENDBRANCH  28  30
ENDBRANCH  27  28
ENDBRANCH   1  27
TORSDOF 11
ENDMDL
MODEL 3
REMARK VINA RESULT:      -6.5      4.307      7.689
REMARK  Name = 
REMARK  12 active torsions:
REMARK  status: ('A' for Active; 'I' for Inactive)
REMARK    1  A    between atoms: C_2  and  C_3
REMARK    2  A    between atoms: C_3  and  O_4
REMARK    3  A    between atoms: O_4  and  C_5
REMARK    4  A    between atoms: C_5  and  C_7
REMARK    5  A    between atoms: C_7  and  C_8
REMARK    6  A    between atoms: C_9  and  C_10
REMARK    7  A    between atoms: C_10  and  O_12
REMARK    8  A    between atoms: O_12  and  C_13
REMARK    9  A    between atoms: C_13  and  C_14
REMARK   10  A    between atoms: C_16  and  N_17
REMARK   11  A    between atoms: C_22  and  C_23
REMARK   12  A    between atoms: C_26  and  C_27
REMARK                            x       y       z     vdW  Elec       q    Type
REMARK                         _______ _______ _______ _____ _____    ______ ____
ROOT
ATOM      1  C   UNL     1      -0.043  10.662  19.581  0.00  0.00    +0.000 C 
ATOM      2  C   UNL     1       0.941   9.509  19.622  0.00  0.00    +0.000 C 
ATOM      3  C   UNL     1       1.161   8.807  20.745  0.00  0.00    +0.000 C 
ATOM      4  O   UNL     1       0.468   9.073  21.946  0.00  0.00    +0.000 OA
ATOM      5  C   UNL     1      -0.397  10.142  22.016  0.00  0.00    +0.000 A 
ATOM      6  C   UNL     1      -1.061  10.408  23.221  0.00  0.00    +0.000 A 
ATOM      7  C   UNL     1      -1.985  11.467  23.313  0.00  0.00    +0.000 A 
ATOM      8  C   UNL     1      -2.267  12.297  22.214  0.00  0.00    +0.000 A 
ATOM      9  C   UNL     1      -1.553  12.034  21.041  0.00  0.00    +0.000 A 
ATOM     10  C   UNL     1      -0.650  10.959  20.924  0.00  0.00    +0.000 A 
ENDROOT
BRANCH   8  11
ATOM     11  C   UNL     1      -3.277  13.378  22.230  0.00  0.00    +0.000 A 
ATOM     12  C   UNL     1      -3.036  14.637  21.654  0.00  0.00    +0.000 A 
ATOM     13  C   UNL     1      -4.012  15.635  21.663  0.00  0.00    +0.000 A 
ATOM     14  C   UNL     1      -5.219  15.379  22.296  0.00  0.00    +0.000 A 
ATOM     15  C   UNL     1      -6.228  16.468  22.484  0.00  0.00    +0.000 C 
ATOM     16  N   UNL     1      -5.509  14.171  22.829  0.00  0.00    +0.000 NA
ATOM     17  C   UNL     1      -4.552  13.209  22.765  0.00  0.00    +0.000 A 
ENDBRANCH   8  11
BRANCH   3  18
ATOM     18  N   UNL     1       2.093   7.807  20.854  0.00  0.00    +0.000 N 
ATOM     19  H   UNL     1       2.810   7.928  21.568  0.00  0.00    +0.000 HD
ATOM     20  H   UNL     1       2.347   7.306  20.009  0.00  0.00    +0.000 HD
ENDBRANCH   3  18
BRANCH   2  21
ATOM     21  C   UNL     1       1.633   9.312  18.318  0.00  0.00    +0.000 C 
ATOM     22  O   UNL     1       1.974  10.263  17.625  0.00  0.00    +0.000 OA
BRANCH  21  23
ATOM     23  O   UNL     1       1.740   8.009  17.959  0.00  0.00    +0.000 OA
BRANCH  23  24
ATOM     24  C   UNL     1       3.065   7.634  17.544  0.00  0.00    +0.000 C 
BRANCH  24  25
ATOM     25  C   UNL     1       3.320   6.227  17.888  0.00  0.00    +0.000 C 
ATOM     26  C   UNL     1       3.586   5.099  18.167  0.00  0.00    +0.000 C 
ENDBRANCH  24  25
ENDBRANCH  23  24
ENDBRANCH  21  23
ENDBRANCH   2  21
BRANCH   1  27
ATOM     27  C   UNL     1      -1.155  10.405  18.552  0.00  0.00    +0.000 C 
BRANCH  27  28
ATOM     28  C   UNL     1      -1.499  11.645  17.794  0.00  0.00    +0.000 C 
ATOM     29  O   UNL     1      -0.814  12.660  17.810  0.00  0.00    +0.000 OA
BRANCH  28  30
ATOM     30  O   UNL     1      -2.683  11.505  17.150  0.00  0.00    +0.000 OA
BRANCH  30  31
ATOM     31  C   UNL     1      -3.628  10.750  17.893  0.00  0.00    +0.000 C 
BRANCH  31  33
ATOM     32  C   UNL     1      -5.274  12.642  19.191  0.00  0.00    +0.000 C 
ATOM     33  C   UNL     1      -4.514  11.769  18.592  0.00  0.00    +0.000 C 
ENDBRANCH  31  33
ENDBRANCH  30  31
ENDBRANCH  28  30
ENDBRANCH  27  28
ENDBRANCH   1  27
TORSDOF 11
ENDMDL
MODEL 4
REMARK VINA RESULT:      -6.4      2.817      6.402
REMARK  Name = 
REMARK  12 active torsions:
REMARK  status: ('A' for Active; 'I' for Inactive)
REMARK    1  A    between atoms: C_2  and  C_3
REMARK    2  A    between atoms: C_3  and  O_4
REMARK    3  A    between atoms: O_4  and  C_5
REMARK    4  A    between atoms: C_5  and  C_7
REMARK    5  A    between atoms: C_7  and  C_8
REMARK    6  A    between atoms: C_9  and  C_10
REMARK    7  A    between atoms: C_10  and  O_12
REMARK    8  A    between atoms: O_12  and  C_13
REMARK    9  A    between atoms: C_13  and  C_14
REMARK   10  A    between atoms: C_16  and  N_17
REMARK   11  A    between atoms: C_22  and  C_23
REMARK   12  A    between atoms: C_26  and  C_27
REMARK                            x       y       z     vdW  Elec       q    Type
REMARK                         _______ _______ _______ _____ _____    ______ ____
ROOT
ATOM      1  C   UNL     1       3.629   5.634  17.937  0.00  0.00    +0.000 C 
ATOM      2  C   UNL     1       3.081   4.221  17.931  0.00  0.00    +0.000 C 
ATOM      3  C   UNL     1       3.888   3.149  17.987  0.00  0.00    +0.000 C 
ATOM      4  O   UNL     1       5.290   3.269  18.092  0.00  0.00    +0.000 OA
ATOM      5  C   UNL     1       5.878   4.513  18.040  0.00  0.00    +0.000 A 
ATOM      6  C   UNL     1       7.273   4.616  18.122  0.00  0.00    +0.000 A 
ATOM      7  C   UNL     1       7.902   5.877  18.116  0.00  0.00    +0.000 A 
ATOM      8  C   UNL     1       7.163   7.068  18.019  0.00  0.00    +0.000 A 
ATOM      9  C   UNL     1       5.778   6.929  17.893  0.00  0.00    +0.000 A 
ATOM     10  C   UNL     1       5.132   5.678  17.928  0.00  0.00    +0.000 A 
ENDROOT
BRANCH   8  11
ATOM     11  C   UNL     1       7.761   8.421  18.079  0.00  0.00    +0.000 A 
ATOM     12  C   UNL     1       8.850   8.722  18.915  0.00  0.00    +0.000 A 
ATOM     13  C   UNL     1       9.410  10.000  18.939  0.00  0.00    +0.000 A 
ATOM     14  C   UNL     1       8.840  10.991  18.154  0.00  0.00    +0.000 A 
ATOM     15  C   UNL     1       9.291  12.414  18.274  0.00  0.00    +0.000 C 
ATOM     16  N   UNL     1       7.817  10.739  17.308  0.00  0.00    +0.000 NA
ATOM     17  C   UNL     1       7.324   9.473  17.278  0.00  0.00    +0.000 A 
ENDBRANCH   8  11
BRANCH   3  18
ATOM     18  N   UNL     1       3.448   1.853  17.909  0.00  0.00    +0.000 N 
ATOM     19  H   UNL     1       3.006   1.471  18.744  0.00  0.00    +0.000 HD
ATOM     20  H   UNL     1       3.965   1.215  17.314  0.00  0.00    +0.000 HD
ENDBRANCH   3  18
BRANCH   2  21
ATOM     21  C   UNL     1       1.597   4.192  17.805  0.00  0.00    +0.000 C 
ATOM     22  O   UNL     1       1.008   4.927  17.023  0.00  0.00    +0.000 OA
BRANCH  21  23
ATOM     23  O   UNL     1       0.999   3.366  18.698  0.00  0.00    +0.000 OA
BRANCH  23  24
ATOM     24  C   UNL     1       0.791   3.968  19.988  0.00  0.00    +0.000 C 
BRANCH  24  25
ATOM     25  C   UNL     1       1.561   3.243  21.011  0.00  0.00    +0.000 C 
ATOM     26  C   UNL     1       2.179   2.604  21.806  0.00  0.00    +0.000 C 
ENDBRANCH  24  25
ENDBRANCH  23  24
ENDBRANCH  21  23
ENDBRANCH   2  21
BRANCH   1  27
ATOM     27  C   UNL     1       3.092   6.432  19.137  0.00  0.00    +0.000 C 
BRANCH  27  28
ATOM     28  C   UNL     1       2.393   7.677  18.700  0.00  0.00    +0.000 C 
ATOM     29  O   UNL     1       2.316   8.035  17.531  0.00  0.00    +0.000 OA
BRANCH  28  30
ATOM     30  O   UNL     1       1.922   8.366  19.766  0.00  0.00    +0.000 OA
BRANCH  30  31
ATOM     31  C   UNL     1       1.458   7.520  20.808  0.00  0.00    +0.000 C 
BRANCH  31  33
ATOM     32  C   UNL     1      -0.341   9.084  22.322  0.00  0.00    +0.000 C 
ATOM     33  C   UNL     1       0.490   8.362  21.624  0.00  0.00    +0.000 C 
ENDBRANCH  31  33
ENDBRANCH  30  31
ENDBRANCH  28  30
ENDBRANCH  27  28
ENDBRANCH   1  27
TORSDOF 11
ENDMDL
MODEL 5
REMARK VINA RESULT:      -6.4      5.037      9.892
REMARK  Name = 
REMARK  12 active torsions:
REMARK  status: ('A' for Active; 'I' for Inactive)
REMARK    1  A    between atoms: C_2  and  C_3
REMARK    2  A    between atoms: C_3  and  O_4
REMARK    3  A    between atoms: O_4  and  C_5
REMARK    4  A    between atoms: C_5  and  C_7
REMARK    5  A    between atoms: C_7  and  C_8
REMARK    6  A    between atoms: C_9  and  C_10
REMARK    7  A    between atoms: C_10  and  O_12
REMARK    8  A    between atoms: O_12  and  C_13
REMARK    9  A    between atoms: C_13  and  C_14
REMARK   10  A    between atoms: C_16  and  N_17
REMARK   11  A    between atoms: C_22  and  C_23
REMARK   12  A    between atoms: C_26  and  C_27
REMARK                            x       y       z     vdW  Elec       q    Type
REMARK                         _______ _______ _______ _____ _____    ______ ____
ROOT
ATOM      1  C   UNL     1      -1.508  11.808  20.588  0.00  0.00    +0.000 C 
ATOM      2  C   UNL     1      -2.346  12.505  21.643  0.00  0.00    +0.000 C 
ATOM      3  C   UNL     1      -2.318  12.127  22.931  0.00  0.00    +0.000 C 
ATOM      4  O   UNL     1      -1.484  11.086  23.391  0.00  0.00    +0.000 OA
ATOM      5  C   UNL     1      -0.738  10.356  22.492  0.00  0.00    +0.000 A 
ATOM      6  C   UNL     1       0.068   9.310  22.960  0.00  0.00    +0.000 A 
ATOM      7  C   UNL     1       0.876   8.574  22.071  0.00  0.00    +0.000 A 
ATOM      8  C   UNL     1       0.899   8.850  20.694  0.00  0.00    +0.000 A 
ATOM      9  C   UNL     1       0.049   9.870  20.254  0.00  0.00    +0.000 A 
ATOM     10  C   UNL     1      -0.741  10.636  21.133  0.00  0.00    +0.000 A 
ENDROOT
BRANCH   8  11
ATOM     11  C   UNL     1       1.778   8.160  19.724  0.00  0.00    +0.000 A 
ATOM     12  C   UNL     1       2.301   6.879  19.967  0.00  0.00    +0.000 A 
ATOM     13  C   UNL     1       3.112   6.239  19.029  0.00  0.00    +0.000 A 
ATOM     14  C   UNL     1       3.436   6.913  17.861  0.00  0.00    +0.000 A 
ATOM     15  C   UNL     1       4.438   6.344  16.904  0.00  0.00    +0.000 C 
ATOM     16  N   UNL     1       2.926   8.129  17.567  0.00  0.00    +0.000 NA
ATOM     17  C   UNL     1       2.106   8.705  18.485  0.00  0.00    +0.000 A 
ENDBRANCH   8  11
BRANCH   3  18
ATOM     18  N   UNL     1      -3.110  12.674  23.907  0.00  0.00    +0.000 N 
ATOM     19  H   UNL     1      -4.062  12.915  23.639  0.00  0.00    +0.000 HD
ATOM     20  H   UNL     1      -2.659  13.245  24.615  0.00  0.00    +0.000 HD
ENDBRANCH   3  18
BRANCH   2  21
ATOM     21  C   UNL     1      -3.200  13.579  21.065  0.00  0.00    +0.000 C 
ATOM     22  O   UNL     1      -3.162  14.726  21.493  0.00  0.00    +0.000 OA
BRANCH  21  23
ATOM     23  O   UNL     1      -4.062  13.128  20.120  0.00  0.00    +0.000 OA
BRANCH  23  24
ATOM     24  C   UNL     1      -5.272  12.572  20.665  0.00  0.00    +0.000 C 
BRANCH  24  25
ATOM     25  C   UNL     1      -5.993  11.822  19.625  0.00  0.00    +0.000 C 
ATOM     26  C   UNL     1      -6.558  11.257  18.741  0.00  0.00    +0.000 C 
ENDBRANCH  24  25
ENDBRANCH  23  24
ENDBRANCH  21  23
ENDBRANCH   2  21
BRANCH   1  27
ATOM     27  C   UNL     1      -0.542  12.792  19.908  0.00  0.00    +0.000 C 
BRANCH  27  28
ATOM     28  C   UNL     1      -0.861  12.962  18.459  0.00  0.00    +0.000 C 
ATOM     29  O   UNL     1      -1.541  12.170  17.819  0.00  0.00    +0.000 OA
BRANCH  28  30
ATOM     30  O   UNL     1      -0.252  14.061  17.956  0.00  0.00    +0.000 OA
BRANCH  30  31
ATOM     31  C   UNL     1       0.131  14.988  18.961  0.00  0.00    +0.000 C 
BRANCH  31  33
ATOM     32  C   UNL     1      -0.863  17.492  18.114  0.00  0.00    +0.000 C 
ATOM     33  C   UNL     1      -0.405  16.336  18.505  0.00  0.00    +0.000 C 
ENDBRANCH  31  33
ENDBRANCH  30  31
ENDBRANCH  28  30
ENDBRANCH  27  28
ENDBRANCH   1  27
TORSDOF 11
ENDMDL
MODEL 6
REMARK VINA RESULT:      -6.4      5.074     10.079
REMARK  Name = 
REMARK  12 active torsions:
REMARK  status: ('A' for Active; 'I' for Inactive)
REMARK    1  A    between atoms: C_2  and  C_3
REMARK    2  A    between atoms: C_3  and  O_4
REMARK    3  A    between atoms: O_4  and  C_5
REMARK    4  A    between atoms: C_5  and  C_7
REMARK    5  A    between atoms: C_7  and  C_8
REMARK    6  A    between atoms: C_9  and  C_10
REMARK    7  A    between atoms: C_10  and  O_12
REMARK    8  A    between atoms: O_12  and  C_13
REMARK    9  A    between atoms: C_13  and  C_14
REMARK   10  A    between atoms: C_16  and  N_17
REMARK   11  A    between atoms: C_22  and  C_23
REMARK   12  A    between atoms: C_26  and  C_27
REMARK                            x       y       z     vdW  Elec       q    Type
REMARK                         _______ _______ _______ _____ _____    ______ ____
ROOT
ATOM      1  C   UNL     1      -1.501  11.775  20.658  0.00  0.00    +0.000 C 
ATOM      2  C   UNL     1      -2.282  12.561  21.693  0.00  0.00    +0.000 C 
ATOM      3  C   UNL     1      -2.181  12.298  23.006  0.00  0.00    +0.000 C 
ATOM      4  O   UNL     1      -1.318  11.299  23.507  0.00  0.00    +0.000 OA
ATOM      5  C   UNL     1      -0.621  10.494  22.635  0.00  0.00    +0.000 A 
ATOM      6  C   UNL     1       0.213   9.491  23.146  0.00  0.00    +0.000 A 
ATOM      7  C   UNL     1       0.975   8.680  22.282  0.00  0.00    +0.000 A 
ATOM      8  C   UNL     1       0.919   8.835  20.886  0.00  0.00    +0.000 A 
ATOM      9  C   UNL     1       0.043   9.813  20.407  0.00  0.00    +0.000 A 
ATOM     10  C   UNL     1      -0.701  10.653  21.259  0.00  0.00    +0.000 A 
ENDROOT
BRANCH   8  11
ATOM     11  C   UNL     1       1.746   8.063  19.933  0.00  0.00    +0.000 A 
ATOM     12  C   UNL     1       2.065   8.548  18.653  0.00  0.00    +0.000 A 
ATOM     13  C   UNL     1       2.864   7.810  17.779  0.00  0.00    +0.000 A 
ATOM     14  C   UNL     1       3.304   6.557  18.177  0.00  0.00    +0.000 A 
ATOM     15  C   UNL     1       4.015   5.656  17.216  0.00  0.00    +0.000 C 
ATOM     16  N   UNL     1       3.055   6.066  19.411  0.00  0.00    +0.000 NA
ATOM     17  C   UNL     1       2.310   6.830  20.253  0.00  0.00    +0.000 A 
ENDBRANCH   8  11
BRANCH   3  18
ATOM     18  N   UNL     1      -2.920  12.928  23.973  0.00  0.00    +0.000 N 
ATOM     19  H   UNL     1      -2.499  13.750  24.404  0.00  0.00    +0.000 HD
ATOM     20  H   UNL     1      -3.533  12.357  24.545  0.00  0.00    +0.000 HD
ENDBRANCH   3  18
BRANCH   2  21
ATOM     21  C   UNL     1      -3.171  13.582  21.072  0.00  0.00    +0.000 C 
ATOM     22  O   UNL     1      -3.066  14.772  21.344  0.00  0.00    +0.000 OA
BRANCH  21  23
ATOM     23  O   UNL     1      -4.137  13.045  20.286  0.00  0.00    +0.000 OA
BRANCH  23  24
ATOM     24  C   UNL     1      -5.283  12.579  21.021  0.00  0.00    +0.000 C 
BRANCH  24  25
ATOM     25  C   UNL     1      -6.441  13.442  20.743  0.00  0.00    +0.000 C 
ATOM     26  C   UNL     1      -7.342  14.188  20.514  0.00  0.00    +0.000 C 
ENDBRANCH  24  25
ENDBRANCH  23  24
ENDBRANCH  21  23
ENDBRANCH   2  21
BRANCH   1  27
ATOM     27  C   UNL     1      -0.579  12.694  19.842  0.00  0.00    +0.000 C 
BRANCH  27  28
ATOM     28  C   UNL     1      -0.945  12.697  18.395  0.00  0.00    +0.000 C 
ATOM     29  O   UNL     1      -0.425  13.434  17.567  0.00  0.00    +0.000 OA
BRANCH  28  30
ATOM     30  O   UNL     1      -1.955  11.829  18.150  0.00  0.00    +0.000 OA
BRANCH  30  31
ATOM     31  C   UNL     1      -1.551  10.720  17.361  0.00  0.00    +0.000 C 
BRANCH  31  33
ATOM     32  C   UNL     1      -3.362  10.618  15.197  0.00  0.00    +0.000 C 
ATOM     33  C   UNL     1      -2.526  10.665  16.196  0.00  0.00    +0.000 C 
ENDBRANCH  31  33
ENDBRANCH  30  31
ENDBRANCH  28  30
ENDBRANCH  27  28
ENDBRANCH   1  27
TORSDOF 11
ENDMDL
MODEL 7
REMARK VINA RESULT:      -6.3      5.123      9.752
REMARK  Name = 
REMARK  12 active torsions:
REMARK  status: ('A' for Active; 'I' for Inactive)
REMARK    1  A    between atoms: C_2  and  C_3
REMARK    2  A    between atoms: C_3  and  O_4
REMARK    3  A    between atoms: O_4  and  C_5
REMARK    4  A    between atoms: C_5  and  C_7
REMARK    5  A    between atoms: C_7  and  C_8
REMARK    6  A    between atoms: C_9  and  C_10
REMARK    7  A    between atoms: C_10  and  O_12
REMARK    8  A    between atoms: O_12  and  C_13
REMARK    9  A    between atoms: C_13  and  C_14
REMARK   10  A    between atoms: C_16  and  N_17
REMARK   11  A    between atoms: C_22  and  C_23
REMARK   12  A    between atoms: C_26  and  C_27
REMARK                            x       y       z     vdW  Elec       q    Type
REMARK                         _______ _______ _______ _____ _____    ______ ____
ROOT
ATOM      1  C   UNL     1      -1.756  12.153  20.692  0.00  0.00    +0.000 C 
ATOM      2  C   UNL     1      -2.591  12.899  21.715  0.00  0.00    +0.000 C 
ATOM      3  C   UNL     1      -2.584  12.561  23.015  0.00  0.00    +0.000 C 
ATOM      4  O   UNL     1      -1.775  11.519  23.516  0.00  0.00    +0.000 OA
ATOM      5  C   UNL     1      -1.035  10.747  22.649  0.00  0.00    +0.000 A 
ATOM      6  C   UNL     1      -0.255   9.701  23.158  0.00  0.00    +0.000 A 
ATOM      7  C   UNL     1       0.548   8.921  22.302  0.00  0.00    +0.000 A 
ATOM      8  C   UNL     1       0.591   9.154  20.916  0.00  0.00    +0.000 A 
ATOM      9  C   UNL     1      -0.234  10.176  20.436  0.00  0.00    +0.000 A 
ATOM     10  C   UNL     1      -1.018  10.984  21.281  0.00  0.00    +0.000 A 
ENDROOT
BRANCH   8  11
ATOM     11  C   UNL     1       1.466   8.417  19.979  0.00  0.00    +0.000 A 
ATOM     12  C   UNL     1       1.799   8.922  18.710  0.00  0.00    +0.000 A 
ATOM     13  C   UNL     1       2.644   8.219  17.851  0.00  0.00    +0.000 A 
ATOM     14  C   UNL     1       3.118   6.979  18.252  0.00  0.00    +0.000 A 
ATOM     15  C   UNL     1       3.882   6.110  17.302  0.00  0.00    +0.000 C 
ATOM     16  N   UNL     1       2.856   6.471  19.476  0.00  0.00    +0.000 NA
ATOM     17  C   UNL     1       2.064   7.202  20.304  0.00  0.00    +0.000 A 
ENDBRANCH   8  11
BRANCH   3  18
ATOM     18  N   UNL     1      -3.375  13.154  23.965  0.00  0.00    +0.000 N 
ATOM     19  H   UNL     1      -2.894  13.641  24.719  0.00  0.00    +0.000 HD
ATOM     20  H   UNL     1      -4.264  12.715  24.178  0.00  0.00    +0.000 HD
ENDBRANCH   3  18
BRANCH   2  21
ATOM     21  C   UNL     1      -3.418  13.971  21.095  0.00  0.00    +0.000 C 
ATOM     22  O   UNL     1      -3.270  15.148  21.398  0.00  0.00    +0.000 OA
BRANCH  21  23
ATOM     23  O   UNL     1      -4.382  13.494  20.269  0.00  0.00    +0.000 OA
BRANCH  23  24
ATOM     24  C   UNL     1      -5.635  13.247  20.932  0.00  0.00    +0.000 C 
BRANCH  24  25
ATOM     25  C   UNL     1      -6.267  12.041  20.375  0.00  0.00    +0.000 C 
ATOM     26  C   UNL     1      -6.828  11.074  19.961  0.00  0.00    +0.000 C 
ENDBRANCH  24  25
ENDBRANCH  23  24
ENDBRANCH  21  23
ENDBRANCH   2  21
BRANCH   1  27
ATOM     27  C   UNL     1      -0.764  13.096  19.992  0.00  0.00    +0.000 C 
BRANCH  27  28
ATOM     28  C   UNL     1      -0.703  12.838  18.523  0.00  0.00    +0.000 C 
ATOM     29  O   UNL     1      -1.601  12.291  17.895  0.00  0.00    +0.000 OA
BRANCH  28  30
ATOM     30  O   UNL     1       0.488  13.232  18.012  0.00  0.00    +0.000 OA
BRANCH  30  31
ATOM     31  C   UNL     1       1.573  12.991  18.895  0.00  0.00    +0.000 C 
BRANCH  31  33
ATOM     32  C   UNL     1       3.652  14.700  18.039  0.00  0.00    +0.000 C 
ATOM     33  C   UNL     1       2.692  13.911  18.435  0.00  0.00    +0.000 C 
ENDBRANCH  31  33
ENDBRANCH  30  31
ENDBRANCH  28  30
ENDBRANCH  27  28
ENDBRANCH   1  27
TORSDOF 11
ENDMDL
MODEL 8
REMARK VINA RESULT:      -6.3      5.033     10.062
REMARK  Name = 
REMARK  12 active torsions:
REMARK  status: ('A' for Active; 'I' for Inactive)
REMARK    1  A    between atoms: C_2  and  C_3
REMARK    2  A    between atoms: C_3  and  O_4
REMARK    3  A    between atoms: O_4  and  C_5
REMARK    4  A    between atoms: C_5  and  C_7
REMARK    5  A    between atoms: C_7  and  C_8
REMARK    6  A    between atoms: C_9  and  C_10
REMARK    7  A    between atoms: C_10  and  O_12
REMARK    8  A    between atoms: O_12  and  C_13
REMARK    9  A    between atoms: C_13  and  C_14
REMARK   10  A    between atoms: C_16  and  N_17
REMARK   11  A    between atoms: C_22  and  C_23
REMARK   12  A    between atoms: C_26  and  C_27
REMARK                            x       y       z     vdW  Elec       q    Type
REMARK                         _______ _______ _______ _____ _____    ______ ____
ROOT
ATOM      1  C   UNL     1      -1.461  11.094  20.415  0.00  0.00    +0.000 C 
ATOM      2  C   UNL     1      -1.998  12.193  21.311  0.00  0.00    +0.000 C 
ATOM      3  C   UNL     1      -1.535  12.378  22.558  0.00  0.00    +0.000 C 
ATOM      4  O   UNL     1      -0.498  11.589  23.099  0.00  0.00    +0.000 OA
ATOM      5  C   UNL     1       0.004  10.528  22.380  0.00  0.00    +0.000 A 
ATOM      6  C   UNL     1       1.016   9.738  22.939  0.00  0.00    +0.000 A 
ATOM      7  C   UNL     1       1.582   8.673  22.211  0.00  0.00    +0.000 A 
ATOM      8  C   UNL     1       1.149   8.357  20.911  0.00  0.00    +0.000 A 
ATOM      9  C   UNL     1       0.106   9.135  20.401  0.00  0.00    +0.000 A 
ATOM     10  C   UNL     1      -0.448  10.222  21.103  0.00  0.00    +0.000 A 
ENDROOT
BRANCH   8  11
ATOM     11  C   UNL     1       1.752   7.298  20.072  0.00  0.00    +0.000 A 
ATOM     12  C   UNL     1       1.731   5.943  20.446  0.00  0.00    +0.000 A 
ATOM     13  C   UNL     1       2.287   4.959  19.628  0.00  0.00    +0.000 A 
ATOM     14  C   UNL     1       2.910   5.346  18.451  0.00  0.00    +0.000 A 
ATOM     15  C   UNL     1       3.671   4.355  17.627  0.00  0.00    +0.000 C 
ATOM     16  N   UNL     1       2.921   6.631  18.033  0.00  0.00    +0.000 NA
ATOM     17  C   UNL     1       2.332   7.558  18.833  0.00  0.00    +0.000 A 
ENDBRANCH   8  11
BRANCH   3  18
ATOM     18  N   UNL     1      -2.038  13.307  23.432  0.00  0.00    +0.000 N 
ATOM     19  H   UNL     1      -3.034  13.510  23.357  0.00  0.00    +0.000 HD
ATOM     20  H   UNL     1      -1.423  14.057  23.728  0.00  0.00    +0.000 HD
ENDBRANCH   3  18
BRANCH   2  21
ATOM     21  C   UNL     1      -3.095  12.964  20.662  0.00  0.00    +0.000 C 
ATOM     22  O   UNL     1      -3.030  14.180  20.531  0.00  0.00    +0.000 OA
BRANCH  21  23
ATOM     23  O   UNL     1      -4.170  12.202  20.344  0.00  0.00    +0.000 OA
BRANCH  23  24
ATOM     24  C   UNL     1      -5.365  12.569  21.057  0.00  0.00    +0.000 C 
BRANCH  24  25
ATOM     25  C   UNL     1      -6.483  11.710  20.638  0.00  0.00    +0.000 C 
ATOM     26  C   UNL     1      -7.393  10.994  20.355  0.00  0.00    +0.000 C 
ENDBRANCH  24  25
ENDBRANCH  23  24
ENDBRANCH  21  23
ENDBRANCH   2  21
BRANCH   1  27
ATOM     27  C   UNL     1      -0.858  11.675  19.126  0.00  0.00    +0.000 C 
BRANCH  27  28
ATOM     28  C   UNL     1      -1.459  11.052  17.909  0.00  0.00    +0.000 C 
ATOM     29  O   UNL     1      -1.057  10.004  17.417  0.00  0.00    +0.000 OA
BRANCH  28  30
ATOM     30  O   UNL     1      -2.448  11.828  17.406  0.00  0.00    +0.000 OA
BRANCH  30  31
ATOM     31  C   UNL     1      -3.423  11.084  16.692  0.00  0.00    +0.000 C 
BRANCH  31  33
ATOM     32  C   UNL     1      -5.878  12.407  17.139  0.00  0.00    +0.000 C 
ATOM     33  C   UNL     1      -4.745  11.796  16.933  0.00  0.00    +0.000 C 
ENDBRANCH  31  33
ENDBRANCH  30  31
ENDBRANCH  28  30
ENDBRANCH  27  28
ENDBRANCH   1  27
TORSDOF 11
ENDMDL
MODEL 9
REMARK VINA RESULT:      -6.3      7.816     10.229
REMARK  Name = 
REMARK  12 active torsions:
REMARK  status: ('A' for Active; 'I' for Inactive)
REMARK    1  A    between atoms: C_2  and  C_3
REMARK    2  A    between atoms: C_3  and  O_4
REMARK    3  A    between atoms: O_4  and  C_5
REMARK    4  A    between atoms: C_5  and  C_7
REMARK    5  A    between atoms: C_7  and  C_8
REMARK    6  A    between atoms: C_9  and  C_10
REMARK    7  A    between atoms: C_10  and  O_12
REMARK    8  A    between atoms: O_12  and  C_13
REMARK    9  A    between atoms: C_13  and  C_14
REMARK   10  A    between atoms: C_16  and  N_17
REMARK   11  A    between atoms: C_22  and  C_23
REMARK   12  A    between atoms: C_26  and  C_27
REMARK                            x       y       z     vdW  Elec       q    Type
REMARK                         _______ _______ _______ _____ _____    ______ ____
ROOT
ATOM      1  C   UNL     1      -3.273  11.971  19.311  0.00  0.00    +0.000 C 
ATOM      2  C   UNL     1      -4.162  11.587  18.145  0.00  0.00    +0.000 C 
ATOM      3  C   UNL     1      -5.402  12.083  18.008  0.00  0.00    +0.000 C 
ATOM      4  O   UNL     1      -5.942  13.018  18.917  0.00  0.00    +0.000 OA
ATOM      5  C   UNL     1      -5.229  13.374  20.040  0.00  0.00    +0.000 A 
ATOM      6  C   UNL     1      -5.787  14.284  20.946  0.00  0.00    +0.000 A 
ATOM      7  C   UNL     1      -5.065  14.703  22.082  0.00  0.00    +0.000 A 
ATOM      8  C   UNL     1      -3.773  14.219  22.352  0.00  0.00    +0.000 A 
ATOM      9  C   UNL     1      -3.264  13.277  21.453  0.00  0.00    +0.000 A 
ATOM     10  C   UNL     1      -3.960  12.873  20.297  0.00  0.00    +0.000 A 
ENDROOT
BRANCH   8  11
ATOM     11  C   UNL     1      -2.940  14.673  23.487  0.00  0.00    +0.000 A 
ATOM     12  C   UNL     1      -3.497  15.240  24.646  0.00  0.00    +0.000 A 
ATOM     13  C   UNL     1      -2.692  15.643  25.713  0.00  0.00    +0.000 A 
ATOM     14  C   UNL     1      -1.316  15.517  25.592  0.00  0.00    +0.000 A 
ATOM     15  C   UNL     1      -0.402  16.091  26.630  0.00  0.00    +0.000 C 
ATOM     16  N   UNL     1      -0.738  14.944  24.513  0.00  0.00    +0.000 NA
ATOM     17  C   UNL     1      -1.555  14.524  23.511  0.00  0.00    +0.000 A 
ENDBRANCH   8  11
BRANCH   3  18
ATOM     18  N   UNL     1      -6.271  11.712  17.015  0.00  0.00    +0.000 N 
ATOM     19  H   UNL     1      -7.263  11.834  17.209  0.00  0.00    +0.000 HD
ATOM     20  H   UNL     1      -5.999  10.940  16.415  0.00  0.00    +0.000 HD
ENDBRANCH   3  18
BRANCH   2  21
ATOM     21  C   UNL     1      -3.515  10.590  17.247  0.00  0.00    +0.000 C 
ATOM     22  O   UNL     1      -3.118   9.512  17.671  0.00  0.00    +0.000 OA
BRANCH  21  23
ATOM     23  O   UNL     1      -3.333  11.045  15.983  0.00  0.00    +0.000 OA
BRANCH  23  24
ATOM     24  C   UNL     1      -2.739  10.074  15.103  0.00  0.00    +0.000 C 
BRANCH  24  25
ATOM     25  C   UNL     1      -3.508   9.994  13.852  0.00  0.00    +0.000 C 
ATOM     26  C   UNL     1      -4.182   9.928  12.871  0.00  0.00    +0.000 C 
ENDBRANCH  24  25
ENDBRANCH  23  24
ENDBRANCH  21  23
ENDBRANCH   2  21
BRANCH   1  27
ATOM     27  C   UNL     1      -1.971  12.628  18.824  0.00  0.00    +0.000 C 
BRANCH  27  28
ATOM     28  C   UNL     1      -0.771  11.843  19.237  0.00  0.00    +0.000 C 
ATOM     29  O   UNL     1      -0.438  10.789  18.710  0.00  0.00    +0.000 OA
BRANCH  28  30
ATOM     30  O   UNL     1      -0.154  12.422  20.295  0.00  0.00    +0.000 OA
BRANCH  30  31
ATOM     31  C   UNL     1       0.567  11.492  21.089  0.00  0.00    +0.000 C 
BRANCH  31  33
ATOM     32  C   UNL     1      -1.189  10.732  23.165  0.00  0.00    +0.000 C 
ATOM     33  C   UNL     1      -0.378  11.082  22.207  0.00  0.00    +0.000 C 
ENDBRANCH  31  33
ENDBRANCH  30  31
ENDBRANCH  28  30
ENDBRANCH  27  28
ENDBRANCH   1  27
TORSDOF 11
ENDMDL
