MODEL 1
REMARK VINA RESULT:      -7.0      0.000      0.000
REMARK  Name = 
REMARK  3 active torsions:
REMARK  status: ('A' for Active; 'I' for Inactive)
REMARK    1  A    between atoms: C_1  and  C_2
REMARK    2  A    between atoms: C_4  and  C_5
REMARK    3  A    between atoms: C_9  and  C_11
REMARK                            x       y       z     vdW  Elec       q    Type
REMARK                         _______ _______ _______ _____ _____    ______ ____
ROOT
ATOM      1  C   UNL     1       6.273   4.041  14.356  0.00  0.00    +0.000 C 
ATOM      2  C   UNL     1       6.217   4.778  15.657  0.00  0.00    +0.000 A 
ATOM      3  C   UNL     1       7.032   5.856  15.920  0.00  0.00    +0.000 A 
ATOM      4  C   UNL     1       6.902   6.433  17.169  0.00  0.00    +0.000 A 
ATOM      5  C   UNL     1       7.714   7.641  17.534  0.00  0.00    +0.000 C 
ATOM      6  N   UNL     1       6.037   5.968  18.099  0.00  0.00    +0.000 NA
ATOM      7  C   UNL     1       5.258   4.936  17.742  0.00  0.00    +0.000 A 
ATOM      8  N   UNL     1       4.359   4.501  18.698  0.00  0.00    +0.000 N 
ATOM      9  C   UNL     1       3.320   3.635  18.464  0.00  0.00    +0.000 C 
ATOM     10  O   UNL     1       2.981   3.201  17.367  0.00  0.00    +0.000 OA
ATOM     11  N   UNL     1       5.328   4.323  16.555  0.00  0.00    +0.000 NA
ATOM     12  H   UNL     1       4.464   4.914  19.612  0.00  0.00    +0.000 HD
ENDROOT
BRANCH   9  13
ATOM     13  C   UNL     1       2.580   3.283  19.662  0.00  0.00    +0.000 A 
ATOM     14  C   UNL     1       1.220   3.311  19.912  0.00  0.00    +0.000 A 
ATOM     15  C   UNL     1       1.037   2.837  21.231  0.00  0.00    +0.000 A 
ATOM     16  C   UNL     1       2.294   2.554  21.711  0.00  0.00    +0.000 A 
ATOM     17  O   UNL     1       3.240   2.827  20.773  0.00  0.00    +0.000 OA
ENDBRANCH   9  13
TORSDOF 1
ENDMDL
MODEL 2
REMARK VINA RESULT:      -6.7      1.092      2.566
REMARK  Name = 
REMARK  3 active torsions:
REMARK  status: ('A' for Active; 'I' for Inactive)
REMARK    1  A    between atoms: C_1  and  C_2
REMARK    2  A    between atoms: C_4  and  C_5
REMARK    3  A    between atoms: C_9  and  C_11
REMARK                            x       y       z     vdW  Elec       q    Type
REMARK                         _______ _______ _______ _____ _____    ______ ____
ROOT
ATOM      1  C   UNL     1       7.593   7.273  17.313  0.00  0.00    +0.000 C 
ATOM      2  C   UNL     1       6.778   6.137  16.779  0.00  0.00    +0.000 A 
ATOM      3  C   UNL     1       6.986   5.619  15.521  0.00  0.00    +0.000 A 
ATOM      4  C   UNL     1       6.149   4.589  15.136  0.00  0.00    +0.000 A 
ATOM      5  C   UNL     1       6.325   3.928  13.801  0.00  0.00    +0.000 C 
ATOM      6  N   UNL     1       5.166   4.113  15.934  0.00  0.00    +0.000 NA
ATOM      7  C   UNL     1       5.061   4.653  17.157  0.00  0.00    +0.000 A 
ATOM      8  N   UNL     1       4.071   4.127  17.966  0.00  0.00    +0.000 N 
ATOM      9  C   UNL     1       3.950   4.360  19.313  0.00  0.00    +0.000 C 
ATOM     10  O   UNL     1       4.745   4.984  20.008  0.00  0.00    +0.000 OA
ATOM     11  N   UNL     1       5.830   5.655  17.599  0.00  0.00    +0.000 NA
ATOM     12  H   UNL     1       3.442   3.480  17.515  0.00  0.00    +0.000 HD
ENDROOT
BRANCH   9  13
ATOM     13  C   UNL     1       2.772   3.748  19.901  0.00  0.00    +0.000 A 
ATOM     14  C   UNL     1       2.515   3.382  21.211  0.00  0.00    +0.000 A 
ATOM     15  C   UNL     1       1.203   2.858  21.239  0.00  0.00    +0.000 A 
ATOM     16  C   UNL     1       0.738   2.928  19.947  0.00  0.00    +0.000 A 
ATOM     17  O   UNL     1       1.681   3.459  19.124  0.00  0.00    +0.000 OA
ENDBRANCH   9  13
TORSDOF 1
ENDMDL
MODEL 3
REMARK VINA RESULT:      -6.3      2.387      6.259
REMARK  Name = 
REMARK  3 active torsions:
REMARK  status: ('A' for Active; 'I' for Inactive)
REMARK    1  A    between atoms: C_1  and  C_2
REMARK    2  A    between atoms: C_4  and  C_5
REMARK    3  A    between atoms: C_9  and  C_11
REMARK                            x       y       z     vdW  Elec       q    Type
REMARK                         _______ _______ _______ _____ _____    ______ ____
ROOT
ATOM      1  C   UNL     1       1.909   7.704  20.585  0.00  0.00    +0.000 C 
ATOM      2  C   UNL     1       2.151   6.294  20.147  0.00  0.00    +0.000 A 
ATOM      3  C   UNL     1       1.571   5.222  20.786  0.00  0.00    +0.000 A 
ATOM      4  C   UNL     1       1.896   3.969  20.302  0.00  0.00    +0.000 A 
ATOM      5  C   UNL     1       1.279   2.741  20.902  0.00  0.00    +0.000 C 
ATOM      6  N   UNL     1       2.748   3.788  19.267  0.00  0.00    +0.000 NA
ATOM      7  C   UNL     1       3.238   4.891  18.682  0.00  0.00    +0.000 A 
ATOM      8  N   UNL     1       4.079   4.680  17.606  0.00  0.00    +0.000 N 
ATOM      9  C   UNL     1       4.491   5.652  16.728  0.00  0.00    +0.000 C 
ATOM     10  O   UNL     1       4.103   6.816  16.711  0.00  0.00    +0.000 OA
ATOM     11  N   UNL     1       2.973   6.136  19.096  0.00  0.00    +0.000 NA
ATOM     12  H   UNL     1       4.346   3.721  17.446  0.00  0.00    +0.000 HD
ENDROOT
BRANCH   9  13
ATOM     13  C   UNL     1       5.438   5.171  15.738  0.00  0.00    +0.000 A 
ATOM     14  C   UNL     1       5.331   4.131  14.831  0.00  0.00    +0.000 A 
ATOM     15  C   UNL     1       6.530   4.116  14.083  0.00  0.00    +0.000 A 
ATOM     16  C   UNL     1       7.300   5.142  14.580  0.00  0.00    +0.000 A 
ATOM     17  O   UNL     1       6.653   5.785  15.588  0.00  0.00    +0.000 OA
ENDBRANCH   9  13
TORSDOF 1
ENDMDL
MODEL 4
REMARK VINA RESULT:      -6.3      2.906      6.212
REMARK  Name = 
REMARK  3 active torsions:
REMARK  status: ('A' for Active; 'I' for Inactive)
REMARK    1  A    between atoms: C_1  and  C_2
REMARK    2  A    between atoms: C_4  and  C_5
REMARK    3  A    between atoms: C_9  and  C_11
REMARK                            x       y       z     vdW  Elec       q    Type
REMARK                         _______ _______ _______ _____ _____    ______ ____
ROOT
ATOM      1  C   UNL     1       7.932   5.834  19.174  0.00  0.00    +0.000 C 
ATOM      2  C   UNL     1       6.611   5.380  18.637  0.00  0.00    +0.000 A 
ATOM      3  C   UNL     1       5.481   5.340  19.420  0.00  0.00    +0.000 A 
ATOM      4  C   UNL     1       4.329   4.875  18.813  0.00  0.00    +0.000 A 
ATOM      5  C   UNL     1       3.035   4.837  19.570  0.00  0.00    +0.000 C 
ATOM      6  N   UNL     1       4.302   4.464  17.525  0.00  0.00    +0.000 NA
ATOM      7  C   UNL     1       5.442   4.572  16.827  0.00  0.00    +0.000 A 
ATOM      8  N   UNL     1       5.379   4.177  15.504  0.00  0.00    +0.000 N 
ATOM      9  C   UNL     1       6.347   4.427  14.562  0.00  0.00    +0.000 C 
ATOM     10  O   UNL     1       7.352   5.111  14.729  0.00  0.00    +0.000 OA
ATOM     11  N   UNL     1       6.596   5.008  17.346  0.00  0.00    +0.000 NA
ATOM     12  H   UNL     1       4.521   3.726  15.226  0.00  0.00    +0.000 HD
ENDROOT
BRANCH   9  13
ATOM     13  C   UNL     1       6.062   3.829  13.270  0.00  0.00    +0.000 A 
ATOM     14  C   UNL     1       6.924   3.349  12.299  0.00  0.00    +0.000 A 
ATOM     15  C   UNL     1       6.119   2.846  11.252  0.00  0.00    +0.000 A 
ATOM     16  C   UNL     1       4.816   3.054  11.640  0.00  0.00    +0.000 A 
ATOM     17  O   UNL     1       4.767   3.655  12.858  0.00  0.00    +0.000 OA
ENDBRANCH   9  13
TORSDOF 1
ENDMDL
MODEL 5
REMARK VINA RESULT:      -6.2      2.692      6.211
REMARK  Name = 
REMARK  3 active torsions:
REMARK  status: ('A' for Active; 'I' for Inactive)
REMARK    1  A    between atoms: C_1  and  C_2
REMARK    2  A    between atoms: C_4  and  C_5
REMARK    3  A    between atoms: C_9  and  C_11
REMARK                            x       y       z     vdW  Elec       q    Type
REMARK                         _______ _______ _______ _____ _____    ______ ____
ROOT
ATOM      1  C   UNL     1       3.631   3.603  20.021  0.00  0.00    +0.000 C 
ATOM      2  C   UNL     1       3.633   4.759  19.071  0.00  0.00    +0.000 A 
ATOM      3  C   UNL     1       2.914   5.906  19.318  0.00  0.00    +0.000 A 
ATOM      4  C   UNL     1       2.977   6.890  18.350  0.00  0.00    +0.000 A 
ATOM      5  C   UNL     1       2.265   8.195  18.547  0.00  0.00    +0.000 C 
ATOM      6  N   UNL     1       3.690   6.744  17.210  0.00  0.00    +0.000 NA
ATOM      7  C   UNL     1       4.389   5.608  17.071  0.00  0.00    +0.000 A 
ATOM      8  N   UNL     1       5.136   5.497  15.914  0.00  0.00    +0.000 N 
ATOM      9  C   UNL     1       6.097   4.543  15.686  0.00  0.00    +0.000 C 
ATOM     10  O   UNL     1       6.497   3.718  16.502  0.00  0.00    +0.000 OA
ATOM     11  N   UNL     1       4.374   4.609  17.961  0.00  0.00    +0.000 NA
ATOM     12  H   UNL     1       4.984   6.220  15.228  0.00  0.00    +0.000 HD
ENDROOT
BRANCH   9  13
ATOM     13  C   UNL     1       6.671   4.608  14.354  0.00  0.00    +0.000 A 
ATOM     14  C   UNL     1       6.365   3.886  13.214  0.00  0.00    +0.000 A 
ATOM     15  C   UNL     1       7.206   4.370  12.187  0.00  0.00    +0.000 A 
ATOM     16  C   UNL     1       7.981   5.351  12.759  0.00  0.00    +0.000 A 
ATOM     17  O   UNL     1       7.672   5.501  14.075  0.00  0.00    +0.000 OA
ENDBRANCH   9  13
TORSDOF 1
ENDMDL
MODEL 6
REMARK VINA RESULT:      -6.1      2.352      5.857
REMARK  Name = 
REMARK  3 active torsions:
REMARK  status: ('A' for Active; 'I' for Inactive)
REMARK    1  A    between atoms: C_1  and  C_2
REMARK    2  A    between atoms: C_4  and  C_5
REMARK    3  A    between atoms: C_9  and  C_11
REMARK                            x       y       z     vdW  Elec       q    Type
REMARK                         _______ _______ _______ _____ _____    ______ ____
ROOT
ATOM      1  C   UNL     1       1.430   3.181  21.060  0.00  0.00    +0.000 C 
ATOM      2  C   UNL     1       1.898   4.449  20.419  0.00  0.00    +0.000 A 
ATOM      3  C   UNL     1       1.473   5.684  20.851  0.00  0.00    +0.000 A 
ATOM      4  C   UNL     1       1.958   6.778  20.159  0.00  0.00    +0.000 A 
ATOM      5  C   UNL     1       1.589   8.169  20.582  0.00  0.00    +0.000 C 
ATOM      6  N   UNL     1       2.792   6.657  19.101  0.00  0.00    +0.000 NA
ATOM      7  C   UNL     1       3.182   5.416  18.772  0.00  0.00    +0.000 A 
ATOM      8  N   UNL     1       4.061   5.321  17.710  0.00  0.00    +0.000 N 
ATOM      9  C   UNL     1       4.762   4.192  17.368  0.00  0.00    +0.000 C 
ATOM     10  O   UNL     1       4.786   3.142  18.002  0.00  0.00    +0.000 OA
ATOM     11  N   UNL     1       2.753   4.311  19.393  0.00  0.00    +0.000 NA
ATOM     12  H   UNL     1       4.223   6.178  17.204  0.00  0.00    +0.000 HD
ENDROOT
BRANCH   9  13
ATOM     13  C   UNL     1       5.553   4.347  16.160  0.00  0.00    +0.000 A 
ATOM     14  C   UNL     1       5.276   3.972  14.858  0.00  0.00    +0.000 A 
ATOM     15  C   UNL     1       6.374   4.387  14.071  0.00  0.00    +0.000 A 
ATOM     16  C   UNL     1       7.259   4.985  14.938  0.00  0.00    +0.000 A 
ATOM     17  O   UNL     1       6.777   4.960  16.209  0.00  0.00    +0.000 OA
ENDBRANCH   9  13
TORSDOF 1
ENDMDL
MODEL 7
REMARK VINA RESULT:      -6.1      2.150      5.914
REMARK  Name = 
REMARK  3 active torsions:
REMARK  status: ('A' for Active; 'I' for Inactive)
REMARK    1  A    between atoms: C_1  and  C_2
REMARK    2  A    between atoms: C_4  and  C_5
REMARK    3  A    between atoms: C_9  and  C_11
REMARK                            x       y       z     vdW  Elec       q    Type
REMARK                         _______ _______ _______ _____ _____    ______ ____
ROOT
ATOM      1  C   UNL     1       0.931   2.978  20.376  0.00  0.00    +0.000 C 
ATOM      2  C   UNL     1       1.591   4.259  19.971  0.00  0.00    +0.000 A 
ATOM      3  C   UNL     1       1.288   5.457  20.575  0.00  0.00    +0.000 A 
ATOM      4  C   UNL     1       1.947   6.572  20.091  0.00  0.00    +0.000 A 
ATOM      5  C   UNL     1       1.719   7.917  20.714  0.00  0.00    +0.000 C 
ATOM      6  N   UNL     1       2.833   6.507  19.071  0.00  0.00    +0.000 NA
ATOM      7  C   UNL     1       3.093   5.292  18.568  0.00  0.00    +0.000 A 
ATOM      8  N   UNL     1       4.027   5.248  17.549  0.00  0.00    +0.000 N 
ATOM      9  C   UNL     1       4.610   4.104  17.066  0.00  0.00    +0.000 C 
ATOM     10  O   UNL     1       4.464   2.974  17.524  0.00  0.00    +0.000 OA
ATOM     11  N   UNL     1       2.494   4.169  18.980  0.00  0.00    +0.000 NA
ATOM     12  H   UNL     1       4.326   6.144  17.197  0.00  0.00    +0.000 HD
ENDROOT
BRANCH   9  13
ATOM     13  C   UNL     1       5.496   4.338  15.940  0.00  0.00    +0.000 A 
ATOM     14  C   UNL     1       6.699   5.020  15.877  0.00  0.00    +0.000 A 
ATOM     15  C   UNL     1       7.157   4.917  14.544  0.00  0.00    +0.000 A 
ATOM     16  C   UNL     1       6.206   4.186  13.870  0.00  0.00    +0.000 A 
ATOM     17  O   UNL     1       5.191   3.835  14.703  0.00  0.00    +0.000 OA
ENDBRANCH   9  13
TORSDOF 1
ENDMDL
MODEL 8
REMARK VINA RESULT:      -6.1      2.758      6.491
REMARK  Name = 
REMARK  3 active torsions:
REMARK  status: ('A' for Active; 'I' for Inactive)
REMARK    1  A    between atoms: C_1  and  C_2
REMARK    2  A    between atoms: C_4  and  C_5
REMARK    3  A    between atoms: C_9  and  C_11
REMARK                            x       y       z     vdW  Elec       q    Type
REMARK                         _______ _______ _______ _____ _____    ______ ____
ROOT
ATOM      1  C   UNL     1       2.565   6.909  19.718  0.00  0.00    +0.000 C 
ATOM      2  C   UNL     1       2.605   5.618  18.962  0.00  0.00    +0.000 A 
ATOM      3  C   UNL     1       1.795   4.556  19.290  0.00  0.00    +0.000 A 
ATOM      4  C   UNL     1       1.947   3.410  18.533  0.00  0.00    +0.000 A 
ATOM      5  C   UNL     1       1.078   2.213  18.783  0.00  0.00    +0.000 C 
ATOM      6  N   UNL     1       2.849   3.316  17.529  0.00  0.00    +0.000 NA
ATOM      7  C   UNL     1       3.572   4.413  17.256  0.00  0.00    +0.000 A 
ATOM      8  N   UNL     1       4.462   4.303  16.205  0.00  0.00    +0.000 N 
ATOM      9  C   UNL     1       5.112   5.356  15.612  0.00  0.00    +0.000 C 
ATOM     10  O   UNL     1       4.930   6.544  15.859  0.00  0.00    +0.000 OA
ATOM     11  N   UNL     1       3.483   5.556  17.947  0.00  0.00    +0.000 NA
ATOM     12  H   UNL     1       4.576   3.375  15.830  0.00  0.00    +0.000 HD
ENDROOT
BRANCH   9  13
ATOM     13  C   UNL     1       6.053   4.949  14.583  0.00  0.00    +0.000 A 
ATOM     14  C   UNL     1       5.958   3.949  13.632  0.00  0.00    +0.000 A 
ATOM     15  C   UNL     1       7.142   4.003  12.862  0.00  0.00    +0.000 A 
ATOM     16  C   UNL     1       7.892   5.027  13.391  0.00  0.00    +0.000 A 
ATOM     17  O   UNL     1       7.247   5.604  14.440  0.00  0.00    +0.000 OA
ENDBRANCH   9  13
TORSDOF 1
ENDMDL
MODEL 9
REMARK VINA RESULT:      -6.1      2.616      4.396
REMARK  Name = 
REMARK  3 active torsions:
REMARK  status: ('A' for Active; 'I' for Inactive)
REMARK    1  A    between atoms: C_1  and  C_2
REMARK    2  A    between atoms: C_4  and  C_5
REMARK    3  A    between atoms: C_9  and  C_11
REMARK                            x       y       z     vdW  Elec       q    Type
REMARK                         _______ _______ _______ _____ _____    ______ ____
ROOT
ATOM      1  C   UNL     1       8.854   5.941  12.766  0.00  0.00    +0.000 C 
ATOM      2  C   UNL     1       7.639   5.110  13.033  0.00  0.00    +0.000 A 
ATOM      3  C   UNL     1       7.206   4.148  12.150  0.00  0.00    +0.000 A 
ATOM      4  C   UNL     1       6.055   3.467  12.499  0.00  0.00    +0.000 A 
ATOM      5  C   UNL     1       5.528   2.369  11.624  0.00  0.00    +0.000 C 
ATOM      6  N   UNL     1       5.373   3.729  13.637  0.00  0.00    +0.000 NA
ATOM      7  C   UNL     1       5.888   4.657  14.456  0.00  0.00    +0.000 A 
ATOM      8  N   UNL     1       5.191   4.883  15.627  0.00  0.00    +0.000 N 
ATOM      9  C   UNL     1       5.663   5.601  16.698  0.00  0.00    +0.000 C 
ATOM     10  O   UNL     1       6.795   6.061  16.811  0.00  0.00    +0.000 OA
ATOM     11  N   UNL     1       6.994   5.360  14.184  0.00  0.00    +0.000 NA
ATOM     12  H   UNL     1       4.296   4.424  15.694  0.00  0.00    +0.000 HD
ENDROOT
BRANCH   9  13
ATOM     13  C   UNL     1       4.692   5.750  17.767  0.00  0.00    +0.000 A 
ATOM     14  C   UNL     1       3.645   6.644  17.903  0.00  0.00    +0.000 A 
ATOM     15  C   UNL     1       2.997   6.332  19.120  0.00  0.00    +0.000 A 
ATOM     16  C   UNL     1       3.688   5.271  19.657  0.00  0.00    +0.000 A 
ATOM     17  O   UNL     1       4.722   4.913  18.851  0.00  0.00    +0.000 OA
ENDBRANCH   9  13
TORSDOF 1
ENDMDL
