MODEL 1
REMARK VINA RESULT:      -6.9      0.000      0.000
REMARK  Name = 
REMARK  6 active torsions:
REMARK  status: ('A' for Active; 'I' for Inactive)
REMARK    1  A    between atoms: C_1  and  C_2
REMARK    2  A    between atoms: C_2  and  C_4
REMARK    3  A    between atoms: C_8  and  C_9
REMARK    4  A    between atoms: C_9  and  C_10
REMARK    5  A    between atoms: C_9  and  C_11
REMARK    6  A    between atoms: C_11  and  O_13
REMARK                            x       y       z     vdW  Elec       q    Type
REMARK                         _______ _______ _______ _____ _____    ______ ____
ROOT
ATOM      1  C   UNL     1       2.663   4.601  18.111  0.00  0.00    +0.000 A 
ATOM      2  C   UNL     1       2.614   5.984  18.307  0.00  0.00    +0.000 A 
ATOM      3  C   UNL     1       3.610   6.800  17.768  0.00  0.00    +0.000 A 
ATOM      4  C   UNL     1       4.655   6.245  17.030  0.00  0.00    +0.000 A 
ATOM      5  C   UNL     1       4.738   4.860  16.836  0.00  0.00    +0.000 A 
ATOM      6  C   UNL     1       3.728   4.046  17.381  0.00  0.00    +0.000 A 
ENDROOT
BRANCH   1   8
ATOM      7  C   UNL     1       1.065   3.929  20.032  0.00  0.00    +0.000 C 
ATOM      8  C   UNL     1       1.604   3.691  18.644  0.00  0.00    +0.000 C 
ATOM      9  O   UNL     1       1.184   2.769  17.946  0.00  0.00    +0.000 OA
ENDBRANCH   1   8
BRANCH   5  10
ATOM     10  C   UNL     1       5.845   4.235  15.996  0.00  0.00    +0.000 C 
ATOM     11  C   UNL     1       5.489   4.313  14.510  0.00  0.00    +0.000 C 
BRANCH  10  12
ATOM     12  C   UNL     1       7.228   4.832  16.247  0.00  0.00    +0.000 C 
ATOM     13  O   UNL     1       7.659   5.852  15.726  0.00  0.00    +0.000 OA
BRANCH  12  14
ATOM     14  O   UNL     1       7.978   4.110  17.117  0.00  0.00    +0.000 OA
ATOM     15  H   UNL     1       7.553   3.273  17.394  0.00  0.00    +0.000 HD
ENDBRANCH  12  14
ENDBRANCH  10  12
ENDBRANCH   5  10
TORSDOF 4
ENDMDL
MODEL 2
REMARK VINA RESULT:      -6.6      1.623      4.949
REMARK  Name = 
REMARK  6 active torsions:
REMARK  status: ('A' for Active; 'I' for Inactive)
REMARK    1  A    between atoms: C_1  and  C_2
REMARK    2  A    between atoms: C_2  and  C_4
REMARK    3  A    between atoms: C_8  and  C_9
REMARK    4  A    between atoms: C_9  and  C_10
REMARK    5  A    between atoms: C_9  and  C_11
REMARK    6  A    between atoms: C_11  and  O_13
REMARK                            x       y       z     vdW  Elec       q    Type
REMARK                         _______ _______ _______ _____ _____    ______ ____
ROOT
ATOM      1  C   UNL     1       5.626   5.159  15.868  0.00  0.00    +0.000 A 
ATOM      2  C   UNL     1       5.135   6.448  16.093  0.00  0.00    +0.000 A 
ATOM      3  C   UNL     1       4.309   6.697  17.190  0.00  0.00    +0.000 A 
ATOM      4  C   UNL     1       3.971   5.669  18.069  0.00  0.00    +0.000 A 
ATOM      5  C   UNL     1       4.433   4.363  17.854  0.00  0.00    +0.000 A 
ATOM      6  C   UNL     1       5.268   4.122  16.747  0.00  0.00    +0.000 A 
ENDROOT
BRANCH   1   8
ATOM      7  C   UNL     1       6.076   3.883  13.663  0.00  0.00    +0.000 C 
ATOM      8  C   UNL     1       6.537   4.850  14.724  0.00  0.00    +0.000 C 
ATOM      9  O   UNL     1       7.640   5.389  14.661  0.00  0.00    +0.000 OA
ENDBRANCH   1   8
BRANCH   5  10
ATOM     10  C   UNL     1       4.115   3.232  18.824  0.00  0.00    +0.000 C 
ATOM     11  C   UNL     1       3.226   3.744  19.960  0.00  0.00    +0.000 C 
BRANCH  10  12
ATOM     12  C   UNL     1       3.486   2.007  18.164  0.00  0.00    +0.000 C 
ATOM     13  O   UNL     1       2.453   2.014  17.507  0.00  0.00    +0.000 OA
BRANCH  12  14
ATOM     14  O   UNL     1       4.180   0.862  18.381  0.00  0.00    +0.000 OA
ATOM     15  H   UNL     1       3.633   0.141  18.755  0.00  0.00    +0.000 HD
ENDBRANCH  12  14
ENDBRANCH  10  12
ENDBRANCH   5  10
TORSDOF 4
ENDMDL
MODEL 3
REMARK VINA RESULT:      -6.5      1.864      4.773
REMARK  Name = 
REMARK  6 active torsions:
REMARK  status: ('A' for Active; 'I' for Inactive)
REMARK    1  A    between atoms: C_1  and  C_2
REMARK    2  A    between atoms: C_2  and  C_4
REMARK    3  A    between atoms: C_8  and  C_9
REMARK    4  A    between atoms: C_9  and  C_10
REMARK    5  A    between atoms: C_9  and  C_11
REMARK    6  A    between atoms: C_11  and  O_13
REMARK                            x       y       z     vdW  Elec       q    Type
REMARK                         _______ _______ _______ _____ _____    ______ ____
ROOT
ATOM      1  C   UNL     1       5.425   5.229  15.961  0.00  0.00    +0.000 A 
ATOM      2  C   UNL     1       5.174   6.560  16.308  0.00  0.00    +0.000 A 
ATOM      3  C   UNL     1       4.254   6.855  17.315  0.00  0.00    +0.000 A 
ATOM      4  C   UNL     1       3.584   5.830  17.983  0.00  0.00    +0.000 A 
ATOM      5  C   UNL     1       3.804   4.489  17.640  0.00  0.00    +0.000 A 
ATOM      6  C   UNL     1       4.735   4.201  16.626  0.00  0.00    +0.000 A 
ENDROOT
BRANCH   1   8
ATOM      7  C   UNL     1       6.015   3.909  13.815  0.00  0.00    +0.000 C 
ATOM      8  C   UNL     1       6.424   4.863  14.910  0.00  0.00    +0.000 C 
ATOM      9  O   UNL     1       7.554   5.344  14.947  0.00  0.00    +0.000 OA
ENDBRANCH   1   8
BRANCH   5  10
ATOM     10  C   UNL     1       3.118   3.351  18.386  0.00  0.00    +0.000 C 
ATOM     11  C   UNL     1       3.020   2.115  17.489  0.00  0.00    +0.000 C 
BRANCH  10  12
ATOM     12  C   UNL     1       3.776   2.994  19.717  0.00  0.00    +0.000 C 
ATOM     13  O   UNL     1       3.205   2.963  20.799  0.00  0.00    +0.000 OA
BRANCH  12  14
ATOM     14  O   UNL     1       5.100   2.717  19.606  0.00  0.00    +0.000 OA
ATOM     15  H   UNL     1       5.327   2.229  18.789  0.00  0.00    +0.000 HD
ENDBRANCH  12  14
ENDBRANCH  10  12
ENDBRANCH   5  10
TORSDOF 4
ENDMDL
MODEL 4
REMARK VINA RESULT:      -6.5      1.628      2.624
REMARK  Name = 
REMARK  6 active torsions:
REMARK  status: ('A' for Active; 'I' for Inactive)
REMARK    1  A    between atoms: C_1  and  C_2
REMARK    2  A    between atoms: C_2  and  C_4
REMARK    3  A    between atoms: C_8  and  C_9
REMARK    4  A    between atoms: C_9  and  C_10
REMARK    5  A    between atoms: C_9  and  C_11
REMARK    6  A    between atoms: C_11  and  O_13
REMARK                            x       y       z     vdW  Elec       q    Type
REMARK                         _______ _______ _______ _____ _____    ______ ____
ROOT
ATOM      1  C   UNL     1       2.881   5.799  18.077  0.00  0.00    +0.000 A 
ATOM      2  C   UNL     1       2.034   4.707  18.279  0.00  0.00    +0.000 A 
ATOM      3  C   UNL     1       2.380   3.454  17.771  0.00  0.00    +0.000 A 
ATOM      4  C   UNL     1       3.570   3.281  17.065  0.00  0.00    +0.000 A 
ATOM      5  C   UNL     1       4.427   4.365  16.831  0.00  0.00    +0.000 A 
ATOM      6  C   UNL     1       4.071   5.624  17.349  0.00  0.00    +0.000 A 
ENDROOT
BRANCH   1   8
ATOM      7  C   UNL     1       2.610   8.345  17.703  0.00  0.00    +0.000 C 
ATOM      8  C   UNL     1       2.568   7.154  18.627  0.00  0.00    +0.000 C 
ATOM      9  O   UNL     1       2.276   7.277  19.814  0.00  0.00    +0.000 OA
ENDBRANCH   1   8
BRANCH   5  10
ATOM     10  C   UNL     1       5.754   4.192  16.102  0.00  0.00    +0.000 C 
ATOM     11  C   UNL     1       5.622   4.655  14.648  0.00  0.00    +0.000 C 
BRANCH  10  12
ATOM     12  C   UNL     1       6.931   4.890  16.780  0.00  0.00    +0.000 C 
ATOM     13  O   UNL     1       7.480   5.903  16.369  0.00  0.00    +0.000 OA
BRANCH  12  14
ATOM     14  O   UNL     1       7.346   4.268  17.912  0.00  0.00    +0.000 OA
ATOM     15  H   UNL     1       6.628   3.801  18.385  0.00  0.00    +0.000 HD
ENDBRANCH  12  14
ENDBRANCH  10  12
ENDBRANCH   5  10
TORSDOF 4
ENDMDL
MODEL 5
REMARK VINA RESULT:      -6.4      1.618      5.083
REMARK  Name = 
REMARK  6 active torsions:
REMARK  status: ('A' for Active; 'I' for Inactive)
REMARK    1  A    between atoms: C_1  and  C_2
REMARK    2  A    between atoms: C_2  and  C_4
REMARK    3  A    between atoms: C_8  and  C_9
REMARK    4  A    between atoms: C_9  and  C_10
REMARK    5  A    between atoms: C_9  and  C_11
REMARK    6  A    between atoms: C_11  and  O_13
REMARK                            x       y       z     vdW  Elec       q    Type
REMARK                         _______ _______ _______ _____ _____    ______ ____
ROOT
ATOM      1  C   UNL     1       6.447   4.892  16.396  0.00  0.00    +0.000 A 
ATOM      2  C   UNL     1       7.315   5.374  17.380  0.00  0.00    +0.000 A 
ATOM      3  C   UNL     1       6.905   5.409  18.713  0.00  0.00    +0.000 A 
ATOM      4  C   UNL     1       5.634   4.961  19.075  0.00  0.00    +0.000 A 
ATOM      5  C   UNL     1       4.738   4.492  18.105  0.00  0.00    +0.000 A 
ATOM      6  C   UNL     1       5.161   4.459  16.763  0.00  0.00    +0.000 A 
ENDROOT
BRANCH   1   8
ATOM      7  C   UNL     1       6.057   3.929  14.027  0.00  0.00    +0.000 C 
ATOM      8  C   UNL     1       6.851   4.808  14.959  0.00  0.00    +0.000 C 
ATOM      9  O   UNL     1       7.815   5.457  14.558  0.00  0.00    +0.000 OA
ENDBRANCH   1   8
BRANCH   5  10
ATOM     10  C   UNL     1       3.362   3.957  18.479  0.00  0.00    +0.000 C 
ATOM     11  C   UNL     1       2.269   4.879  17.933  0.00  0.00    +0.000 C 
BRANCH  10  12
ATOM     12  C   UNL     1       3.115   2.516  18.039  0.00  0.00    +0.000 C 
ATOM     13  O   UNL     1       2.180   2.143  17.343  0.00  0.00    +0.000 OA
BRANCH  12  14
ATOM     14  O   UNL     1       4.042   1.643  18.508  0.00  0.00    +0.000 OA
ATOM     15  H   UNL     1       4.961   1.964  18.414  0.00  0.00    +0.000 HD
ENDBRANCH  12  14
ENDBRANCH  10  12
ENDBRANCH   5  10
TORSDOF 4
ENDMDL
MODEL 6
REMARK VINA RESULT:      -6.4      2.048      5.118
REMARK  Name = 
REMARK  6 active torsions:
REMARK  status: ('A' for Active; 'I' for Inactive)
REMARK    1  A    between atoms: C_1  and  C_2
REMARK    2  A    between atoms: C_2  and  C_4
REMARK    3  A    between atoms: C_8  and  C_9
REMARK    4  A    between atoms: C_9  and  C_10
REMARK    5  A    between atoms: C_9  and  C_11
REMARK    6  A    between atoms: C_11  and  O_13
REMARK                            x       y       z     vdW  Elec       q    Type
REMARK                         _______ _______ _______ _____ _____    ______ ____
ROOT
ATOM      1  C   UNL     1       6.502   4.898  16.314  0.00  0.00    +0.000 A 
ATOM      2  C   UNL     1       7.317   5.520  17.264  0.00  0.00    +0.000 A 
ATOM      3  C   UNL     1       6.930   5.546  18.605  0.00  0.00    +0.000 A 
ATOM      4  C   UNL     1       5.734   4.951  19.007  0.00  0.00    +0.000 A 
ATOM      5  C   UNL     1       4.889   4.339  18.071  0.00  0.00    +0.000 A 
ATOM      6  C   UNL     1       5.289   4.315  16.722  0.00  0.00    +0.000 A 
ENDROOT
BRANCH   1   8
ATOM      7  C   UNL     1       6.101   3.921  13.953  0.00  0.00    +0.000 C 
ATOM      8  C   UNL     1       6.889   4.819  14.873  0.00  0.00    +0.000 C 
ATOM      9  O   UNL     1       7.834   5.487  14.457  0.00  0.00    +0.000 OA
ENDBRANCH   1   8
BRANCH   5  10
ATOM     10  C   UNL     1       3.600   3.643  18.492  0.00  0.00    +0.000 C 
ATOM     11  C   UNL     1       2.747   3.322  17.262  0.00  0.00    +0.000 C 
BRANCH  10  12
ATOM     12  C   UNL     1       3.818   2.388  19.333  0.00  0.00    +0.000 C 
ATOM     13  O   UNL     1       3.778   2.344  20.556  0.00  0.00    +0.000 OA
BRANCH  12  14
ATOM     14  O   UNL     1       4.083   1.282  18.593  0.00  0.00    +0.000 OA
ATOM     15  H   UNL     1       3.807   1.365  17.658  0.00  0.00    +0.000 HD
ENDBRANCH  12  14
ENDBRANCH  10  12
ENDBRANCH   5  10
TORSDOF 4
ENDMDL
MODEL 7
REMARK VINA RESULT:      -6.4      0.929      1.288
REMARK  Name = 
REMARK  6 active torsions:
REMARK  status: ('A' for Active; 'I' for Inactive)
REMARK    1  A    between atoms: C_1  and  C_2
REMARK    2  A    between atoms: C_2  and  C_4
REMARK    3  A    between atoms: C_8  and  C_9
REMARK    4  A    between atoms: C_9  and  C_10
REMARK    5  A    between atoms: C_9  and  C_11
REMARK    6  A    between atoms: C_11  and  O_13
REMARK                            x       y       z     vdW  Elec       q    Type
REMARK                         _______ _______ _______ _____ _____    ______ ____
ROOT
ATOM      1  C   UNL     1       3.004   4.585  18.390  0.00  0.00    +0.000 A 
ATOM      2  C   UNL     1       2.869   5.976  18.422  0.00  0.00    +0.000 A 
ATOM      3  C   UNL     1       3.690   6.774  17.626  0.00  0.00    +0.000 A 
ATOM      4  C   UNL     1       4.646   6.194  16.791  0.00  0.00    +0.000 A 
ATOM      5  C   UNL     1       4.814   4.804  16.755  0.00  0.00    +0.000 A 
ATOM      6  C   UNL     1       3.980   4.006  17.560  0.00  0.00    +0.000 A 
ENDROOT
BRANCH   1   8
ATOM      7  C   UNL     1       1.220   2.714  18.493  0.00  0.00    +0.000 C 
ATOM      8  C   UNL     1       2.127   3.688  19.203  0.00  0.00    +0.000 C 
ATOM      9  O   UNL     1       2.160   3.750  20.430  0.00  0.00    +0.000 OA
ENDBRANCH   1   8
BRANCH   5  10
ATOM     10  C   UNL     1       5.820   4.144  15.819  0.00  0.00    +0.000 C 
ATOM     11  C   UNL     1       5.389   4.333  14.362  0.00  0.00    +0.000 C 
BRANCH  10  12
ATOM     12  C   UNL     1       7.257   4.619  16.018  0.00  0.00    +0.000 C 
ATOM     13  O   UNL     1       7.946   4.387  17.003  0.00  0.00    +0.000 OA
BRANCH  12  14
ATOM     14  O   UNL     1       7.729   5.359  14.983  0.00  0.00    +0.000 OA
ATOM     15  H   UNL     1       7.023   5.702  14.398  0.00  0.00    +0.000 HD
ENDBRANCH  12  14
ENDBRANCH  10  12
ENDBRANCH   5  10
TORSDOF 4
ENDMDL
MODEL 8
REMARK VINA RESULT:      -6.4      2.085      2.489
REMARK  Name = 
REMARK  6 active torsions:
REMARK  status: ('A' for Active; 'I' for Inactive)
REMARK    1  A    between atoms: C_1  and  C_2
REMARK    2  A    between atoms: C_2  and  C_4
REMARK    3  A    between atoms: C_8  and  C_9
REMARK    4  A    between atoms: C_9  and  C_10
REMARK    5  A    between atoms: C_9  and  C_11
REMARK    6  A    between atoms: C_11  and  O_13
REMARK                            x       y       z     vdW  Elec       q    Type
REMARK                         _______ _______ _______ _____ _____    ______ ____
ROOT
ATOM      1  C   UNL     1       3.934   3.974  19.440  0.00  0.00    +0.000 A 
ATOM      2  C   UNL     1       2.808   4.567  18.861  0.00  0.00    +0.000 A 
ATOM      3  C   UNL     1       2.962   5.632  17.972  0.00  0.00    +0.000 A 
ATOM      4  C   UNL     1       4.233   6.109  17.653  0.00  0.00    +0.000 A 
ATOM      5  C   UNL     1       5.376   5.545  18.236  0.00  0.00    +0.000 A 
ATOM      6  C   UNL     1       5.212   4.469  19.128  0.00  0.00    +0.000 A 
ENDROOT
BRANCH   1   8
ATOM      7  C   UNL     1       2.585   2.678  21.228  0.00  0.00    +0.000 C 
ATOM      8  C   UNL     1       3.821   2.812  20.374  0.00  0.00    +0.000 C 
ATOM      9  O   UNL     1       4.727   1.983  20.429  0.00  0.00    +0.000 OA
ENDBRANCH   1   8
BRANCH   5  10
ATOM     10  C   UNL     1       6.777   6.018  17.869  0.00  0.00    +0.000 C 
ATOM     11  C   UNL     1       7.703   5.921  19.085  0.00  0.00    +0.000 C 
BRANCH  10  12
ATOM     12  C   UNL     1       7.387   5.289  16.674  0.00  0.00    +0.000 C 
ATOM     13  O   UNL     1       7.321   5.667  15.511  0.00  0.00    +0.000 OA
BRANCH  12  14
ATOM     14  O   UNL     1       8.020   4.138  17.010  0.00  0.00    +0.000 OA
ATOM     15  H   UNL     1       8.956   4.111  16.725  0.00  0.00    +0.000 HD
ENDBRANCH  12  14
ENDBRANCH  10  12
ENDBRANCH   5  10
TORSDOF 4
ENDMDL
MODEL 9
REMARK VINA RESULT:      -6.4      1.741      5.366
REMARK  Name = 
REMARK  6 active torsions:
REMARK  status: ('A' for Active; 'I' for Inactive)
REMARK    1  A    between atoms: C_1  and  C_2
REMARK    2  A    between atoms: C_2  and  C_4
REMARK    3  A    between atoms: C_8  and  C_9
REMARK    4  A    between atoms: C_9  and  C_10
REMARK    5  A    between atoms: C_9  and  C_11
REMARK    6  A    between atoms: C_11  and  O_13
REMARK                            x       y       z     vdW  Elec       q    Type
REMARK                         _______ _______ _______ _____ _____    ______ ____
ROOT
ATOM      1  C   UNL     1       6.124   4.597  16.239  0.00  0.00    +0.000 A 
ATOM      2  C   UNL     1       6.660   5.193  17.383  0.00  0.00    +0.000 A 
ATOM      3  C   UNL     1       6.026   5.032  18.615  0.00  0.00    +0.000 A 
ATOM      4  C   UNL     1       4.859   4.275  18.716  0.00  0.00    +0.000 A 
ATOM      5  C   UNL     1       4.290   3.683  17.580  0.00  0.00    +0.000 A 
ATOM      6  C   UNL     1       4.938   3.849  16.342  0.00  0.00    +0.000 A 
ENDROOT
BRANCH   1   8
ATOM      7  C   UNL     1       6.222   3.941  13.738  0.00  0.00    +0.000 C 
ATOM      8  C   UNL     1       6.784   4.717  14.903  0.00  0.00    +0.000 C 
ATOM      9  O   UNL     1       7.765   5.445  14.770  0.00  0.00    +0.000 OA
ENDBRANCH   1   8
BRANCH   5  10
ATOM     10  C   UNL     1       3.041   2.814  17.672  0.00  0.00    +0.000 C 
ATOM     11  C   UNL     1       3.337   1.547  18.478  0.00  0.00    +0.000 C 
BRANCH  10  12
ATOM     12  C   UNL     1       1.822   3.537  18.240  0.00  0.00    +0.000 C 
ATOM     13  O   UNL     1       1.444   3.472  19.403  0.00  0.00    +0.000 OA
BRANCH  12  14
ATOM     14  O   UNL     1       1.155   4.276  17.319  0.00  0.00    +0.000 OA
ATOM     15  H   UNL     1       0.558   3.745  16.753  0.00  0.00    +0.000 HD
ENDBRANCH  12  14
ENDBRANCH  10  12
ENDBRANCH   5  10
TORSDOF 4
ENDMDL
