MODEL 1
REMARK VINA RESULT:      -7.7      0.000      0.000
REMARK  Name = 
REMARK  7 active torsions:
REMARK  status: ('A' for Active; 'I' for Inactive)
REMARK    1  A    between atoms: C_1  and  C_2
REMARK    2  A    between atoms: C_2  and  C_3
REMARK    3  A    between atoms: C_3  and  C_4
REMARK    4  A    between atoms: C_4  and  C_5
REMARK    5  A    between atoms: C_5  and  C_6
REMARK    6  A    between atoms: N_10  and  N_11
REMARK    7  A    between atoms: N_11  and  C_12
REMARK                            x       y       z     vdW  Elec       q    Type
REMARK                         _______ _______ _______ _____ _____    ______ ____
ROOT
ATOM      1  C   UNL     1       6.467   6.268  17.540  0.00  0.00    +0.000 C 
ATOM      2  C   UNL     1       5.405   7.306  17.143  0.00  0.00    +0.000 C 
ATOM      3  C   UNL     1       6.689   5.300  16.360  0.00  0.00    +0.000 C 
ATOM      4  C   UNL     1       5.711   4.185  16.613  0.00  0.00    +0.000 C 
ATOM      5  O   UNL     1       5.476   3.268  15.835  0.00  0.00    +0.000 OA
ATOM      6  N   UNL     1       5.258   4.302  17.903  0.00  0.00    +0.000 N 
ATOM      7  C   UNL     1       5.910   5.306  18.592  0.00  0.00    +0.000 C 
ATOM      8  O   UNL     1       6.042   5.423  19.799  0.00  0.00    +0.000 OA
ENDROOT
BRANCH   6   9
ATOM      9  N   UNL     1       4.818   3.118  18.540  0.00  0.00    +0.000 N 
ATOM     10  H   UNL     1       4.725   2.377  17.838  0.00  0.00    +0.000 HD
BRANCH   9  11
ATOM     11  C   UNL     1       3.617   3.200  19.298  0.00  0.00    +0.000 A 
ATOM     12  C   UNL     1       3.690   2.664  20.598  0.00  0.00    +0.000 A 
ATOM     13  C   UNL     1       2.592   2.676  21.461  0.00  0.00    +0.000 A 
ATOM     14  C   UNL     1       1.384   3.212  21.032  0.00  0.00    +0.000 A 
ATOM     15  C   UNL     1       1.264   3.682  19.724  0.00  0.00    +0.000 A 
ATOM     16  C   UNL     1       2.360   3.647  18.850  0.00  0.00    +0.000 A 
ATOM     17 CL   UNL     1       2.046   4.116  17.213  0.00  0.00    +0.000 Cl
ENDBRANCH   9  11
ENDBRANCH   6   9
BRANCH   1  18
ATOM     18  C   UNL     1       7.794   6.940  17.964  0.00  0.00    +0.000 C 
BRANCH  18  19
ATOM     19  C   UNL     1       7.860   8.453  17.703  0.00  0.00    +0.000 C 
BRANCH  19  21
ATOM     20  C   UNL     1       9.033  10.602  18.215  0.00  0.00    +0.000 C 
ATOM     21  C   UNL     1       8.739   9.192  18.711  0.00  0.00    +0.000 C 
ENDBRANCH  19  21
ENDBRANCH  18  19
ENDBRANCH   1  18
TORSDOF 5
ENDMDL
MODEL 2
REMARK VINA RESULT:      -7.7      1.275      1.705
REMARK  Name = 
REMARK  7 active torsions:
REMARK  status: ('A' for Active; 'I' for Inactive)
REMARK    1  A    between atoms: C_1  and  C_2
REMARK    2  A    between atoms: C_2  and  C_3
REMARK    3  A    between atoms: C_3  and  C_4
REMARK    4  A    between atoms: C_4  and  C_5
REMARK    5  A    between atoms: C_5  and  C_6
REMARK    6  A    between atoms: N_10  and  N_11
REMARK    7  A    between atoms: N_11  and  C_12
REMARK                            x       y       z     vdW  Elec       q    Type
REMARK                         _______ _______ _______ _____ _____    ______ ____
ROOT
ATOM      1  C   UNL     1       6.579   6.398  17.462  0.00  0.00    +0.000 C 
ATOM      2  C   UNL     1       5.533   7.427  17.002  0.00  0.00    +0.000 C 
ATOM      3  C   UNL     1       6.997   5.533  16.256  0.00  0.00    +0.000 C 
ATOM      4  C   UNL     1       6.045   4.369  16.293  0.00  0.00    +0.000 C 
ATOM      5  O   UNL     1       5.955   3.508  15.426  0.00  0.00    +0.000 OA
ATOM      6  N   UNL     1       5.421   4.369  17.516  0.00  0.00    +0.000 N 
ATOM      7  C   UNL     1       5.931   5.338  18.357  0.00  0.00    +0.000 C 
ATOM      8  O   UNL     1       5.898   5.365  19.577  0.00  0.00    +0.000 OA
ENDROOT
BRANCH   6   9
ATOM      9  N   UNL     1       4.953   3.125  18.000  0.00  0.00    +0.000 N 
ATOM     10  H   UNL     1       5.043   2.423  17.257  0.00  0.00    +0.000 HD
BRANCH   9  11
ATOM     11  C   UNL     1       3.631   3.090  18.522  0.00  0.00    +0.000 A 
ATOM     12  C   UNL     1       2.658   3.736  17.734  0.00  0.00    +0.000 A 
ATOM     13  C   UNL     1       1.315   3.780  18.116  0.00  0.00    +0.000 A 
ATOM     14  C   UNL     1       0.918   3.193  19.311  0.00  0.00    +0.000 A 
ATOM     15  C   UNL     1       1.873   2.611  20.143  0.00  0.00    +0.000 A 
ATOM     16  C   UNL     1       3.225   2.587  19.772  0.00  0.00    +0.000 A 
ATOM     17 CL   UNL     1       4.331   1.976  20.954  0.00  0.00    +0.000 Cl
ENDBRANCH   9  11
ENDBRANCH   6   9
BRANCH   1  18
ATOM     18  C   UNL     1       7.807   7.080  18.110  0.00  0.00    +0.000 C 
BRANCH  18  19
ATOM     19  C   UNL     1       7.982   8.563  17.748  0.00  0.00    +0.000 C 
BRANCH  19  21
ATOM     20  C   UNL     1       9.161  10.713  18.245  0.00  0.00    +0.000 C 
ATOM     21  C   UNL     1       8.799   9.335  18.784  0.00  0.00    +0.000 C 
ENDBRANCH  19  21
ENDBRANCH  18  19
ENDBRANCH   1  18
TORSDOF 5
ENDMDL
MODEL 3
REMARK VINA RESULT:      -7.4      2.470      3.880
REMARK  Name = 
REMARK  7 active torsions:
REMARK  status: ('A' for Active; 'I' for Inactive)
REMARK    1  A    between atoms: C_1  and  C_2
REMARK    2  A    between atoms: C_2  and  C_3
REMARK    3  A    between atoms: C_3  and  C_4
REMARK    4  A    between atoms: C_4  and  C_5
REMARK    5  A    between atoms: C_5  and  C_6
REMARK    6  A    between atoms: N_10  and  N_11
REMARK    7  A    between atoms: N_11  and  C_12
REMARK                            x       y       z     vdW  Elec       q    Type
REMARK                         _______ _______ _______ _____ _____    ______ ____
ROOT
ATOM      1  C   UNL     1       6.265   5.223  16.930  0.00  0.00    +0.000 C 
ATOM      2  C   UNL     1       7.049   5.262  18.253  0.00  0.00    +0.000 C 
ATOM      3  C   UNL     1       5.713   6.631  16.632  0.00  0.00    +0.000 C 
ATOM      4  C   UNL     1       4.351   6.633  17.273  0.00  0.00    +0.000 C 
ATOM      5  O   UNL     1       3.626   7.615  17.376  0.00  0.00    +0.000 OA
ATOM      6  N   UNL     1       4.022   5.335  17.574  0.00  0.00    +0.000 N 
ATOM      7  C   UNL     1       4.962   4.440  17.102  0.00  0.00    +0.000 C 
ATOM      8  O   UNL     1       4.809   3.255  16.851  0.00  0.00    +0.000 OA
ENDROOT
BRANCH   6   9
ATOM      9  N   UNL     1       2.645   5.018  17.632  0.00  0.00    +0.000 N 
ATOM     10  H   UNL     1       2.099   5.875  17.498  0.00  0.00    +0.000 HD
BRANCH   9  11
ATOM     11  C   UNL     1       2.185   4.347  18.799  0.00  0.00    +0.000 A 
ATOM     12  C   UNL     1       1.852   2.990  18.620  0.00  0.00    +0.000 A 
ATOM     13  C   UNL     1       1.390   2.201  19.675  0.00  0.00    +0.000 A 
ATOM     14  C   UNL     1       1.232   2.762  20.937  0.00  0.00    +0.000 A 
ATOM     15  C   UNL     1       1.483   4.120  21.124  0.00  0.00    +0.000 A 
ATOM     16  C   UNL     1       1.925   4.918  20.059  0.00  0.00    +0.000 A 
ATOM     17 CL   UNL     1       2.055   6.614  20.378  0.00  0.00    +0.000 Cl
ENDBRANCH   9  11
ENDBRANCH   6   9
BRANCH   1  18
ATOM     18  C   UNL     1       7.140   4.710  15.762  0.00  0.00    +0.000 C 
BRANCH  18  19
ATOM     19  C   UNL     1       6.569   4.986  14.363  0.00  0.00    +0.000 C 
BRANCH  19  21
ATOM     20  C   UNL     1       6.581   3.698  12.218  0.00  0.00    +0.000 C 
ATOM     21  C   UNL     1       6.086   3.718  13.659  0.00  0.00    +0.000 C 
ENDBRANCH  19  21
ENDBRANCH  18  19
ENDBRANCH   1  18
TORSDOF 5
ENDMDL
MODEL 4
REMARK VINA RESULT:      -7.2      2.247      3.738
REMARK  Name = 
REMARK  7 active torsions:
REMARK  status: ('A' for Active; 'I' for Inactive)
REMARK    1  A    between atoms: C_1  and  C_2
REMARK    2  A    between atoms: C_2  and  C_3
REMARK    3  A    between atoms: C_3  and  C_4
REMARK    4  A    between atoms: C_4  and  C_5
REMARK    5  A    between atoms: C_5  and  C_6
REMARK    6  A    between atoms: N_10  and  N_11
REMARK    7  A    between atoms: N_11  and  C_12
REMARK                            x       y       z     vdW  Elec       q    Type
REMARK                         _______ _______ _______ _____ _____    ______ ____
ROOT
ATOM      1  C   UNL     1       6.302   5.592  17.455  0.00  0.00    +0.000 C 
ATOM      2  C   UNL     1       7.439   6.491  17.970  0.00  0.00    +0.000 C 
ATOM      3  C   UNL     1       5.252   6.468  16.744  0.00  0.00    +0.000 C 
ATOM      4  C   UNL     1       4.279   6.830  17.834  0.00  0.00    +0.000 C 
ATOM      5  O   UNL     1       3.357   7.628  17.714  0.00  0.00    +0.000 OA
ATOM      6  N   UNL     1       4.520   6.011  18.908  0.00  0.00    +0.000 N 
ATOM      7  C   UNL     1       5.473   5.053  18.624  0.00  0.00    +0.000 C 
ATOM      8  O   UNL     1       5.639   3.975  19.172  0.00  0.00    +0.000 OA
ENDROOT
BRANCH   6   9
ATOM      9  N   UNL     1       3.435   5.756  19.779  0.00  0.00    +0.000 N 
ATOM     10  H   UNL     1       3.792   5.648  20.734  0.00  0.00    +0.000 HD
BRANCH   9  11
ATOM     11  C   UNL     1       2.598   4.650  19.462  0.00  0.00    +0.000 A 
ATOM     12  C   UNL     1       2.122   4.619  18.136  0.00  0.00    +0.000 A 
ATOM     13  C   UNL     1       1.294   3.592  17.678  0.00  0.00    +0.000 A 
ATOM     14  C   UNL     1       0.907   2.578  18.547  0.00  0.00    +0.000 A 
ATOM     15  C   UNL     1       1.305   2.626  19.882  0.00  0.00    +0.000 A 
ATOM     16  C   UNL     1       2.117   3.670  20.349  0.00  0.00    +0.000 A 
ATOM     17 CL   UNL     1       2.416   3.701  22.053  0.00  0.00    +0.000 Cl
ENDBRANCH   9  11
ENDBRANCH   6   9
BRANCH   1  18
ATOM     18  C   UNL     1       6.831   4.483  16.515  0.00  0.00    +0.000 C 
BRANCH  18  19
ATOM     19  C   UNL     1       5.772   3.870  15.586  0.00  0.00    +0.000 C 
BRANCH  19  21
ATOM     20  C   UNL     1       7.216   4.992  13.879  0.00  0.00    +0.000 C 
ATOM     21  C   UNL     1       6.185   3.895  14.115  0.00  0.00    +0.000 C 
ENDBRANCH  19  21
ENDBRANCH  18  19
ENDBRANCH   1  18
TORSDOF 5
ENDMDL
MODEL 5
REMARK VINA RESULT:      -7.2      2.067      3.738
REMARK  Name = 
REMARK  7 active torsions:
REMARK  status: ('A' for Active; 'I' for Inactive)
REMARK    1  A    between atoms: C_1  and  C_2
REMARK    2  A    between atoms: C_2  and  C_3
REMARK    3  A    between atoms: C_3  and  C_4
REMARK    4  A    between atoms: C_4  and  C_5
REMARK    5  A    between atoms: C_5  and  C_6
REMARK    6  A    between atoms: N_10  and  N_11
REMARK    7  A    between atoms: N_11  and  C_12
REMARK                            x       y       z     vdW  Elec       q    Type
REMARK                         _______ _______ _______ _____ _____    ______ ____
ROOT
ATOM      1  C   UNL     1       6.427   5.921  16.746  0.00  0.00    +0.000 C 
ATOM      2  C   UNL     1       7.307   7.144  17.055  0.00  0.00    +0.000 C 
ATOM      3  C   UNL     1       5.000   6.400  16.416  0.00  0.00    +0.000 C 
ATOM      4  C   UNL     1       4.294   6.393  17.745  0.00  0.00    +0.000 C 
ATOM      5  O   UNL     1       3.168   6.831  17.944  0.00  0.00    +0.000 OA
ATOM      6  N   UNL     1       5.068   5.687  18.633  0.00  0.00    +0.000 N 
ATOM      7  C   UNL     1       6.165   5.114  18.020  0.00  0.00    +0.000 C 
ATOM      8  O   UNL     1       6.811   4.148  18.392  0.00  0.00    +0.000 OA
ENDROOT
BRANCH   6   9
ATOM      9  N   UNL     1       4.400   5.065  19.713  0.00  0.00    +0.000 N 
ATOM     10  H   UNL     1       5.088   4.570  20.290  0.00  0.00    +0.000 HD
BRANCH   9  11
ATOM     11  C   UNL     1       3.334   4.179  19.391  0.00  0.00    +0.000 A 
ATOM     12  C   UNL     1       3.658   3.159  18.476  0.00  0.00    +0.000 A 
ATOM     13  C   UNL     1       2.715   2.212  18.068  0.00  0.00    +0.000 A 
ATOM     14  C   UNL     1       1.416   2.279  18.555  0.00  0.00    +0.000 A 
ATOM     15  C   UNL     1       1.051   3.322  19.405  0.00  0.00    +0.000 A 
ATOM     16  C   UNL     1       1.991   4.287  19.796  0.00  0.00    +0.000 A 
ATOM     17 CL   UNL     1       1.382   5.613  20.727  0.00  0.00    +0.000 Cl
ENDBRANCH   9  11
ENDBRANCH   6   9
BRANCH   1  18
ATOM     18  C   UNL     1       7.011   5.073  15.592  0.00  0.00    +0.000 C 
BRANCH  18  19
ATOM     19  C   UNL     1       6.125   3.899  15.146  0.00  0.00    +0.000 C 
BRANCH  19  21
ATOM     20  C   UNL     1       6.443   3.631  12.678  0.00  0.00    +0.000 C 
ATOM     21  C   UNL     1       5.498   4.119  13.770  0.00  0.00    +0.000 C 
ENDBRANCH  19  21
ENDBRANCH  18  19
ENDBRANCH   1  18
TORSDOF 5
ENDMDL
MODEL 6
REMARK VINA RESULT:      -7.1      2.170      3.940
REMARK  Name = 
REMARK  7 active torsions:
REMARK  status: ('A' for Active; 'I' for Inactive)
REMARK    1  A    between atoms: C_1  and  C_2
REMARK    2  A    between atoms: C_2  and  C_3
REMARK    3  A    between atoms: C_3  and  C_4
REMARK    4  A    between atoms: C_4  and  C_5
REMARK    5  A    between atoms: C_5  and  C_6
REMARK    6  A    between atoms: N_10  and  N_11
REMARK    7  A    between atoms: N_11  and  C_12
REMARK                            x       y       z     vdW  Elec       q    Type
REMARK                         _______ _______ _______ _____ _____    ______ ____
ROOT
ATOM      1  C   UNL     1       6.390   5.851  16.931  0.00  0.00    +0.000 C 
ATOM      2  C   UNL     1       7.398   6.947  17.316  0.00  0.00    +0.000 C 
ATOM      3  C   UNL     1       5.078   6.515  16.468  0.00  0.00    +0.000 C 
ATOM      4  C   UNL     1       4.261   6.625  17.727  0.00  0.00    +0.000 C 
ATOM      5  O   UNL     1       3.191   7.216  17.819  0.00  0.00    +0.000 OA
ATOM      6  N   UNL     1       4.845   5.834  18.684  0.00  0.00    +0.000 N 
ATOM      7  C   UNL     1       5.905   5.107  18.177  0.00  0.00    +0.000 C 
ATOM      8  O   UNL     1       6.376   4.068  18.610  0.00  0.00    +0.000 OA
ENDROOT
BRANCH   6   9
ATOM      9  N   UNL     1       4.003   5.325  19.700  0.00  0.00    +0.000 N 
ATOM     10  H   UNL     1       4.578   5.045  20.501  0.00  0.00    +0.000 HD
BRANCH   9  11
ATOM     11  C   UNL     1       3.138   4.253  19.346  0.00  0.00    +0.000 A 
ATOM     12  C   UNL     1       1.947   4.633  18.697  0.00  0.00    +0.000 A 
ATOM     13  C   UNL     1       1.002   3.690  18.286  0.00  0.00    +0.000 A 
ATOM     14  C   UNL     1       1.221   2.341  18.534  0.00  0.00    +0.000 A 
ATOM     15  C   UNL     1       2.356   1.946  19.239  0.00  0.00    +0.000 A 
ATOM     16  C   UNL     1       3.294   2.894  19.674  0.00  0.00    +0.000 A 
ATOM     17 CL   UNL     1       4.579   2.298  20.669  0.00  0.00    +0.000 Cl
ENDBRANCH   9  11
ENDBRANCH   6   9
BRANCH   1  18
ATOM     18  C   UNL     1       6.955   4.914  15.838  0.00  0.00    +0.000 C 
BRANCH  18  19
ATOM     19  C   UNL     1       5.890   4.213  14.980  0.00  0.00    +0.000 C 
BRANCH  19  21
ATOM     20  C   UNL     1       5.172   3.593  12.665  0.00  0.00    +0.000 C 
ATOM     21  C   UNL     1       6.360   3.946  13.550  0.00  0.00    +0.000 C 
ENDBRANCH  19  21
ENDBRANCH  18  19
ENDBRANCH   1  18
TORSDOF 5
ENDMDL
MODEL 7
REMARK VINA RESULT:      -7.1      2.156      3.671
REMARK  Name = 
REMARK  7 active torsions:
REMARK  status: ('A' for Active; 'I' for Inactive)
REMARK    1  A    between atoms: C_1  and  C_2
REMARK    2  A    between atoms: C_2  and  C_3
REMARK    3  A    between atoms: C_3  and  C_4
REMARK    4  A    between atoms: C_4  and  C_5
REMARK    5  A    between atoms: C_5  and  C_6
REMARK    6  A    between atoms: N_10  and  N_11
REMARK    7  A    between atoms: N_11  and  C_12
REMARK                            x       y       z     vdW  Elec       q    Type
REMARK                         _______ _______ _______ _____ _____    ______ ____
ROOT
ATOM      1  C   UNL     1       5.643   5.515  17.444  0.00  0.00    +0.000 C 
ATOM      2  C   UNL     1       6.883   6.357  17.789  0.00  0.00    +0.000 C 
ATOM      3  C   UNL     1       4.630   6.400  16.691  0.00  0.00    +0.000 C 
ATOM      4  C   UNL     1       3.763   6.972  17.780  0.00  0.00    +0.000 C 
ATOM      5  O   UNL     1       2.907   7.833  17.616  0.00  0.00    +0.000 OA
ATOM      6  N   UNL     1       4.000   6.260  18.930  0.00  0.00    +0.000 N 
ATOM      7  C   UNL     1       4.846   5.191  18.710  0.00  0.00    +0.000 C 
ATOM      8  O   UNL     1       4.953   4.171  19.372  0.00  0.00    +0.000 OA
ENDROOT
BRANCH   6   9
ATOM      9  N   UNL     1       2.953   6.207  19.880  0.00  0.00    +0.000 N 
ATOM     10  H   UNL     1       3.301   6.559  20.778  0.00  0.00    +0.000 HD
BRANCH   9  11
ATOM     11  C   UNL     1       2.325   4.947  20.080  0.00  0.00    +0.000 A 
ATOM     12  C   UNL     1       2.534   4.367  21.347  0.00  0.00    +0.000 A 
ATOM     13  C   UNL     1       1.977   3.133  21.691  0.00  0.00    +0.000 A 
ATOM     14  C   UNL     1       1.210   2.440  20.762  0.00  0.00    +0.000 A 
ATOM     15  C   UNL     1       1.050   2.957  19.478  0.00  0.00    +0.000 A 
ATOM     16  C   UNL     1       1.629   4.184  19.124  0.00  0.00    +0.000 A 
ATOM     17 CL   UNL     1       1.487   4.645  17.462  0.00  0.00    +0.000 Cl
ENDBRANCH   9  11
ENDBRANCH   6   9
BRANCH   1  18
ATOM     18  C   UNL     1       6.013   4.264  16.615  0.00  0.00    +0.000 C 
BRANCH  18  19
ATOM     19  C   UNL     1       5.447   4.249  15.187  0.00  0.00    +0.000 C 
BRANCH  19  21
ATOM     20  C   UNL     1       6.148   3.614  12.871  0.00  0.00    +0.000 C 
ATOM     21  C   UNL     1       6.527   4.404  14.117  0.00  0.00    +0.000 C 
ENDBRANCH  19  21
ENDBRANCH  18  19
ENDBRANCH   1  18
TORSDOF 5
ENDMDL
MODEL 8
REMARK VINA RESULT:      -7.1      2.361      3.970
REMARK  Name = 
REMARK  7 active torsions:
REMARK  status: ('A' for Active; 'I' for Inactive)
REMARK    1  A    between atoms: C_1  and  C_2
REMARK    2  A    between atoms: C_2  and  C_3
REMARK    3  A    between atoms: C_3  and  C_4
REMARK    4  A    between atoms: C_4  and  C_5
REMARK    5  A    between atoms: C_5  and  C_6
REMARK    6  A    between atoms: N_10  and  N_11
REMARK    7  A    between atoms: N_11  and  C_12
REMARK                            x       y       z     vdW  Elec       q    Type
REMARK                         _______ _______ _______ _____ _____    ______ ____
ROOT
ATOM      1  C   UNL     1       6.126   5.205  16.717  0.00  0.00    +0.000 C 
ATOM      2  C   UNL     1       7.065   5.224  17.935  0.00  0.00    +0.000 C 
ATOM      3  C   UNL     1       5.554   6.620  16.502  0.00  0.00    +0.000 C 
ATOM      4  C   UNL     1       4.281   6.626  17.304  0.00  0.00    +0.000 C 
ATOM      5  O   UNL     1       3.582   7.613  17.503  0.00  0.00    +0.000 OA
ATOM      6  N   UNL     1       3.979   5.328  17.631  0.00  0.00    +0.000 N 
ATOM      7  C   UNL     1       4.846   4.430  17.040  0.00  0.00    +0.000 C 
ATOM      8  O   UNL     1       4.652   3.249  16.799  0.00  0.00    +0.000 OA
ENDROOT
BRANCH   6   9
ATOM      9  N   UNL     1       2.616   5.021  17.854  0.00  0.00    +0.000 N 
ATOM     10  H   UNL     1       2.069   5.888  17.821  0.00  0.00    +0.000 HD
BRANCH   9  11
ATOM     11  C   UNL     1       2.300   4.312  19.046  0.00  0.00    +0.000 A 
ATOM     12  C   UNL     1       2.445   5.047  20.238  0.00  0.00    +0.000 A 
ATOM     13  C   UNL     1       2.168   4.485  21.486  0.00  0.00    +0.000 A 
ATOM     14  C   UNL     1       1.754   3.162  21.570  0.00  0.00    +0.000 A 
ATOM     15  C   UNL     1       1.672   2.391  20.411  0.00  0.00    +0.000 A 
ATOM     16  C   UNL     1       1.974   2.947  19.160  0.00  0.00    +0.000 A 
ATOM     17 CL   UNL     1       1.984   1.853  17.819  0.00  0.00    +0.000 Cl
ENDBRANCH   9  11
ENDBRANCH   6   9
BRANCH   1  18
ATOM     18  C   UNL     1       6.847   4.696  15.447  0.00  0.00    +0.000 C 
BRANCH  18  19
ATOM     19  C   UNL     1       5.919   4.113  14.371  0.00  0.00    +0.000 C 
BRANCH  19  21
ATOM     20  C   UNL     1       5.673   3.237  12.040  0.00  0.00    +0.000 C 
ATOM     21  C   UNL     1       6.621   3.902  13.031  0.00  0.00    +0.000 C 
ENDBRANCH  19  21
ENDBRANCH  18  19
ENDBRANCH   1  18
TORSDOF 5
ENDMDL
MODEL 9
REMARK VINA RESULT:      -7.0      1.571      2.051
REMARK  Name = 
REMARK  7 active torsions:
REMARK  status: ('A' for Active; 'I' for Inactive)
REMARK    1  A    between atoms: C_1  and  C_2
REMARK    2  A    between atoms: C_2  and  C_3
REMARK    3  A    between atoms: C_3  and  C_4
REMARK    4  A    between atoms: C_4  and  C_5
REMARK    5  A    between atoms: C_5  and  C_6
REMARK    6  A    between atoms: N_10  and  N_11
REMARK    7  A    between atoms: N_11  and  C_12
REMARK                            x       y       z     vdW  Elec       q    Type
REMARK                         _______ _______ _______ _____ _____    ______ ____
ROOT
ATOM      1  C   UNL     1       6.573   5.991  17.222  0.00  0.00    +0.000 C 
ATOM      2  C   UNL     1       6.480   5.002  16.048  0.00  0.00    +0.000 C 
ATOM      3  C   UNL     1       7.032   5.231  18.482  0.00  0.00    +0.000 C 
ATOM      4  C   UNL     1       5.748   4.797  19.136  0.00  0.00    +0.000 C 
ATOM      5  O   UNL     1       5.672   4.051  20.105  0.00  0.00    +0.000 OA
ATOM      6  N   UNL     1       4.719   5.494  18.554  0.00  0.00    +0.000 N 
ATOM      7  C   UNL     1       5.176   6.439  17.658  0.00  0.00    +0.000 C 
ATOM      8  O   UNL     1       4.605   7.449  17.277  0.00  0.00    +0.000 OA
ENDROOT
BRANCH   6   9
ATOM      9  N   UNL     1       3.559   5.699  19.337  0.00  0.00    +0.000 N 
ATOM     10  H   UNL     1       3.839   5.991  20.279  0.00  0.00    +0.000 HD
BRANCH   9  11
ATOM     11  C   UNL     1       2.645   4.614  19.435  0.00  0.00    +0.000 A 
ATOM     12  C   UNL     1       2.161   4.352  20.732  0.00  0.00    +0.000 A 
ATOM     13  C   UNL     1       1.254   3.320  20.982  0.00  0.00    +0.000 A 
ATOM     14  C   UNL     1       0.823   2.511  19.938  0.00  0.00    +0.000 A 
ATOM     15  C   UNL     1       1.343   2.703  18.659  0.00  0.00    +0.000 A 
ATOM     16  C   UNL     1       2.272   3.724  18.411  0.00  0.00    +0.000 A 
ATOM     17 CL   UNL     1       2.957   3.764  16.822  0.00  0.00    +0.000 Cl
ENDBRANCH   9  11
ENDBRANCH   6   9
BRANCH   1  18
ATOM     18  C   UNL     1       7.524   7.168  16.904  0.00  0.00    +0.000 C 
BRANCH  18  19
ATOM     19  C   UNL     1       8.112   7.870  18.138  0.00  0.00    +0.000 C 
BRANCH  19  21
ATOM     20  C   UNL     1       9.142   9.977  19.010  0.00  0.00    +0.000 C 
ATOM     21  C   UNL     1       8.188   9.388  17.978  0.00  0.00    +0.000 C 
ENDBRANCH  19  21
ENDBRANCH  18  19
ENDBRANCH   1  18
TORSDOF 5
ENDMDL
