MODEL 1
REMARK VINA RESULT:      -7.7      0.000      0.000
REMARK  Name = 
REMARK  8 active torsions:
REMARK  status: ('A' for Active; 'I' for Inactive)
REMARK    1  A    between atoms: C_1  and  C_2
REMARK    2  A    between atoms: C_2  and  C_3
REMARK    3  A    between atoms: N_5  and  C_6
REMARK    4  A    between atoms: C_9  and  C_10
REMARK    5  A    between atoms: C_10  and  O_12
REMARK    6  A    between atoms: O_12  and  C_13
REMARK    7  A    between atoms: C_13  and  C_14
REMARK    8  A    between atoms: C_14  and  C_16
REMARK                            x       y       z     vdW  Elec       q    Type
REMARK                         _______ _______ _______ _____ _____    ______ ____
ROOT
ATOM      1  C   UNL     1       5.579   4.077  16.284  0.00  0.00    +0.000 C 
ATOM      2  O   UNL     1       6.082   3.383  15.415  0.00  0.00    +0.000 OA
ENDROOT
BRANCH   1   6
ATOM      3  C   UNL     1       7.846   7.168  18.247  0.00  0.00    +0.000 A 
ATOM      4  C   UNL     1       7.945   5.825  18.619  0.00  0.00    +0.000 A 
ATOM      5  C   UNL     1       7.182   4.843  17.986  0.00  0.00    +0.000 A 
ATOM      6  C   UNL     1       6.292   5.189  16.973  0.00  0.00    +0.000 A 
ATOM      7  C   UNL     1       6.158   6.538  16.611  0.00  0.00    +0.000 A 
ATOM      8  C   UNL     1       6.924   7.523  17.255  0.00  0.00    +0.000 A 
BRANCH   3  11
ATOM      9  C   UNL     1       8.637   9.511  18.466  0.00  0.00    +0.000 C 
ATOM     10  O   UNL     1       7.886  10.023  17.641  0.00  0.00    +0.000 OA
ATOM     11  N   UNL     1       8.637   8.177  18.842  0.00  0.00    +0.000 N 
ATOM     12  H   UNL     1       9.152   7.925  19.678  0.00  0.00    +0.000 HD
BRANCH   9  14
ATOM     13  C   UNL     1      10.237  11.420  18.270  0.00  0.00    +0.000 C 
ATOM     14  C   UNL     1       9.682  10.340  19.189  0.00  0.00    +0.000 C 
ENDBRANCH   9  14
ENDBRANCH   3  11
ENDBRANCH   1   6
BRANCH   1  15
ATOM     15  O   UNL     1       4.301   3.992  16.714  0.00  0.00    +0.000 OA
BRANCH  15  16
ATOM     16  C   UNL     1       4.020   2.841  17.525  0.00  0.00    +0.000 C 
BRANCH  16  17
ATOM     17  C   UNL     1       4.050   3.254  18.993  0.00  0.00    +0.000 C 
ATOM     18  O   UNL     1       4.821   2.726  19.800  0.00  0.00    +0.000 OA
BRANCH  17  19
ATOM     19  C   UNL     1       3.176   4.353  19.504  0.00  0.00    +0.000 A 
ATOM     20  C   UNL     1       3.599   5.660  19.182  0.00  0.00    +0.000 A 
ATOM     21  C   UNL     1       2.912   6.782  19.656  0.00  0.00    +0.000 A 
ATOM     22  C   UNL     1       1.794   6.609  20.460  0.00  0.00    +0.000 A 
ATOM     23 CL   UNL     1       0.955   7.980  21.070  0.00  0.00    +0.000 Cl
ATOM     24  C   UNL     1       1.357   5.328  20.789  0.00  0.00    +0.000 A 
ATOM     25  C   UNL     1       2.046   4.199  20.319  0.00  0.00    +0.000 A 
ATOM     26 CL   UNL     1       1.445   2.683  20.879  0.00  0.00    +0.000 Cl
ENDBRANCH  17  19
ENDBRANCH  16  17
ENDBRANCH  15  16
ENDBRANCH   1  15
TORSDOF 7
ENDMDL
MODEL 2
REMARK VINA RESULT:      -7.7      4.040      5.779
REMARK  Name = 
REMARK  8 active torsions:
REMARK  status: ('A' for Active; 'I' for Inactive)
REMARK    1  A    between atoms: C_1  and  C_2
REMARK    2  A    between atoms: C_2  and  C_3
REMARK    3  A    between atoms: N_5  and  C_6
REMARK    4  A    between atoms: C_9  and  C_10
REMARK    5  A    between atoms: C_10  and  O_12
REMARK    6  A    between atoms: O_12  and  C_13
REMARK    7  A    between atoms: C_13  and  C_14
REMARK    8  A    between atoms: C_14  and  C_16
REMARK                            x       y       z     vdW  Elec       q    Type
REMARK                         _______ _______ _______ _____ _____    ______ ____
ROOT
ATOM      1  C   UNL     1       1.602   4.532  20.370  0.00  0.00    +0.000 C 
ATOM      2  O   UNL     1       0.724   3.829  19.895  0.00  0.00    +0.000 OA
ENDROOT
BRANCH   1   6
ATOM      3  C   UNL     1       1.702   8.772  19.619  0.00  0.00    +0.000 A 
ATOM      4  C   UNL     1       2.213   7.844  18.708  0.00  0.00    +0.000 A 
ATOM      5  C   UNL     1       2.194   6.477  18.983  0.00  0.00    +0.000 A 
ATOM      6  C   UNL     1       1.670   6.009  20.185  0.00  0.00    +0.000 A 
ATOM      7  C   UNL     1       1.183   6.930  21.124  0.00  0.00    +0.000 A 
ATOM      8  C   UNL     1       1.210   8.306  20.845  0.00  0.00    +0.000 A 
BRANCH   3  11
ATOM      9  C   UNL     1       0.571  10.848  18.861  0.00  0.00    +0.000 C 
ATOM     10  O   UNL     1      -0.551  10.380  18.690  0.00  0.00    +0.000 OA
ATOM     11  N   UNL     1       1.670  10.158  19.349  0.00  0.00    +0.000 N 
ATOM     12  H   UNL     1       2.472  10.703  19.645  0.00  0.00    +0.000 HD
BRANCH   9  14
ATOM     13  C   UNL     1       2.362  12.515  18.350  0.00  0.00    +0.000 C 
ATOM     14  C   UNL     1       0.866  12.302  18.542  0.00  0.00    +0.000 C 
ENDBRANCH   9  14
ENDBRANCH   3  11
ENDBRANCH   1   6
BRANCH   1  15
ATOM     15  O   UNL     1       2.602   4.105  21.171  0.00  0.00    +0.000 OA
BRANCH  15  16
ATOM     16  C   UNL     1       2.929   2.714  21.026  0.00  0.00    +0.000 C 
BRANCH  16  17
ATOM     17  C   UNL     1       4.224   2.594  20.228  0.00  0.00    +0.000 C 
ATOM     18  O   UNL     1       5.112   1.799  20.550  0.00  0.00    +0.000 OA
BRANCH  17  19
ATOM     19  C   UNL     1       4.447   3.403  18.992  0.00  0.00    +0.000 A 
ATOM     20  C   UNL     1       5.369   4.463  19.122  0.00  0.00    +0.000 A 
ATOM     21  C   UNL     1       5.618   5.342  18.064  0.00  0.00    +0.000 A 
ATOM     22  C   UNL     1       4.947   5.170  16.861  0.00  0.00    +0.000 A 
ATOM     23 CL   UNL     1       5.226   6.258  15.559  0.00  0.00    +0.000 Cl
ATOM     24  C   UNL     1       4.035   4.128  16.709  0.00  0.00    +0.000 A 
ATOM     25  C   UNL     1       3.778   3.247  17.770  0.00  0.00    +0.000 A 
ATOM     26 CL   UNL     1       2.561   2.063  17.467  0.00  0.00    +0.000 Cl
ENDBRANCH  17  19
ENDBRANCH  16  17
ENDBRANCH  15  16
ENDBRANCH   1  15
TORSDOF 7
ENDMDL
MODEL 3
REMARK VINA RESULT:      -7.6      4.093      6.512
REMARK  Name = 
REMARK  8 active torsions:
REMARK  status: ('A' for Active; 'I' for Inactive)
REMARK    1  A    between atoms: C_1  and  C_2
REMARK    2  A    between atoms: C_2  and  C_3
REMARK    3  A    between atoms: N_5  and  C_6
REMARK    4  A    between atoms: C_9  and  C_10
REMARK    5  A    between atoms: C_10  and  O_12
REMARK    6  A    between atoms: O_12  and  C_13
REMARK    7  A    between atoms: C_13  and  C_14
REMARK    8  A    between atoms: C_14  and  C_16
REMARK                            x       y       z     vdW  Elec       q    Type
REMARK                         _______ _______ _______ _____ _____    ______ ____
ROOT
ATOM      1  C   UNL     1       3.035   5.428  19.207  0.00  0.00    +0.000 C 
ATOM      2  O   UNL     1       3.254   4.803  20.233  0.00  0.00    +0.000 OA
ENDROOT
BRANCH   1   6
ATOM      3  C   UNL     1       1.399   9.402  18.935  0.00  0.00    +0.000 A 
ATOM      4  C   UNL     1       2.038   8.787  17.856  0.00  0.00    +0.000 A 
ATOM      5  C   UNL     1       2.584   7.509  17.975  0.00  0.00    +0.000 A 
ATOM      6  C   UNL     1       2.510   6.821  19.182  0.00  0.00    +0.000 A 
ATOM      7  C   UNL     1       1.900   7.439  20.284  0.00  0.00    +0.000 A 
ATOM      8  C   UNL     1       1.357   8.728  20.162  0.00  0.00    +0.000 A 
BRANCH   3  11
ATOM      9  C   UNL     1      -0.533  10.909  18.535  0.00  0.00    +0.000 C 
ATOM     10  O   UNL     1      -1.401  10.047  18.419  0.00  0.00    +0.000 OA
ATOM     11  N   UNL     1       0.800  10.678  18.832  0.00  0.00    +0.000 N 
ATOM     12  H   UNL     1       1.363  11.473  19.112  0.00  0.00    +0.000 HD
BRANCH   9  14
ATOM     13  C   UNL     1       0.251  13.250  18.917  0.00  0.00    +0.000 C 
ATOM     14  C   UNL     1      -0.866  12.378  18.360  0.00  0.00    +0.000 C 
ENDBRANCH   9  14
ENDBRANCH   3  11
ENDBRANCH   1   6
BRANCH   1  15
ATOM     15  O   UNL     1       3.284   4.989  17.954  0.00  0.00    +0.000 OA
BRANCH  15  16
ATOM     16  C   UNL     1       4.120   3.824  17.885  0.00  0.00    +0.000 C 
BRANCH  16  17
ATOM     17  C   UNL     1       5.345   4.147  17.035  0.00  0.00    +0.000 C 
ATOM     18  O   UNL     1       5.659   3.455  16.061  0.00  0.00    +0.000 OA
BRANCH  17  19
ATOM     19  C   UNL     1       6.189   5.345  17.320  0.00  0.00    +0.000 A 
ATOM     20  C   UNL     1       7.096   5.205  18.393  0.00  0.00    +0.000 A 
ATOM     21  C   UNL     1       7.895   6.272  18.811  0.00  0.00    +0.000 A 
ATOM     22  C   UNL     1       7.797   7.496  18.162  0.00  0.00    +0.000 A 
ATOM     23 CL   UNL     1       8.756   8.823  18.682  0.00  0.00    +0.000 Cl
ATOM     24  C   UNL     1       6.910   7.656  17.100  0.00  0.00    +0.000 A 
ATOM     25  C   UNL     1       6.103   6.589  16.679  0.00  0.00    +0.000 A 
ATOM     26 CL   UNL     1       4.992   6.960  15.413  0.00  0.00    +0.000 Cl
ENDBRANCH  17  19
ENDBRANCH  16  17
ENDBRANCH  15  16
ENDBRANCH   1  15
TORSDOF 7
ENDMDL
MODEL 4
REMARK VINA RESULT:      -7.6      4.123      6.563
REMARK  Name = 
REMARK  8 active torsions:
REMARK  status: ('A' for Active; 'I' for Inactive)
REMARK    1  A    between atoms: C_1  and  C_2
REMARK    2  A    between atoms: C_2  and  C_3
REMARK    3  A    between atoms: N_5  and  C_6
REMARK    4  A    between atoms: C_9  and  C_10
REMARK    5  A    between atoms: C_10  and  O_12
REMARK    6  A    between atoms: O_12  and  C_13
REMARK    7  A    between atoms: C_13  and  C_14
REMARK    8  A    between atoms: C_14  and  C_16
REMARK                            x       y       z     vdW  Elec       q    Type
REMARK                         _______ _______ _______ _____ _____    ______ ____
ROOT
ATOM      1  C   UNL     1       3.265   5.610  19.032  0.00  0.00    +0.000 C 
ATOM      2  O   UNL     1       3.876   5.144  19.981  0.00  0.00    +0.000 OA
ENDROOT
BRANCH   1   6
ATOM      3  C   UNL     1       1.196   9.370  19.381  0.00  0.00    +0.000 A 
ATOM      4  C   UNL     1       1.275   8.465  20.442  0.00  0.00    +0.000 A 
ATOM      5  C   UNL     1       1.929   7.241  20.299  0.00  0.00    +0.000 A 
ATOM      6  C   UNL     1       2.509   6.892  19.083  0.00  0.00    +0.000 A 
ATOM      7  C   UNL     1       2.408   7.776  17.998  0.00  0.00    +0.000 A 
ATOM      8  C   UNL     1       1.744   9.005  18.146  0.00  0.00    +0.000 A 
BRANCH   3  11
ATOM      9  C   UNL     1      -0.721  10.927  19.121  0.00  0.00    +0.000 C 
ATOM     10  O   UNL     1      -1.545  10.116  18.706  0.00  0.00    +0.000 OA
ATOM     11  N   UNL     1       0.577  10.634  19.510  0.00  0.00    +0.000 N 
ATOM     12  H   UNL     1       1.081  11.342  20.032  0.00  0.00    +0.000 HD
BRANCH   9  14
ATOM     13  C   UNL     1      -0.337  13.221  18.209  0.00  0.00    +0.000 C 
ATOM     14  C   UNL     1      -1.073  12.396  19.256  0.00  0.00    +0.000 C 
ENDBRANCH   9  14
ENDBRANCH   3  11
ENDBRANCH   1   6
BRANCH   1  15
ATOM     15  O   UNL     1       3.223   5.080  17.790  0.00  0.00    +0.000 OA
BRANCH  15  16
ATOM     16  C   UNL     1       3.943   3.846  17.644  0.00  0.00    +0.000 C 
BRANCH  16  17
ATOM     17  C   UNL     1       5.234   4.118  16.877  0.00  0.00    +0.000 C 
ATOM     18  O   UNL     1       5.585   3.411  15.928  0.00  0.00    +0.000 OA
BRANCH  17  19
ATOM     19  C   UNL     1       6.103   5.284  17.217  0.00  0.00    +0.000 A 
ATOM     20  C   UNL     1       7.017   5.071  18.271  0.00  0.00    +0.000 A 
ATOM     21  C   UNL     1       7.840   6.100  18.737  0.00  0.00    +0.000 A 
ATOM     22  C   UNL     1       7.759   7.357  18.153  0.00  0.00    +0.000 A 
ATOM     23 CL   UNL     1       8.748   8.638  18.733  0.00  0.00    +0.000 Cl
ATOM     24  C   UNL     1       6.866   7.590  17.110  0.00  0.00    +0.000 A 
ATOM     25  C   UNL     1       6.035   6.561  16.642  0.00  0.00    +0.000 A 
ATOM     26 CL   UNL     1       4.919   7.019  15.409  0.00  0.00    +0.000 Cl
ENDBRANCH  17  19
ENDBRANCH  16  17
ENDBRANCH  15  16
ENDBRANCH   1  15
TORSDOF 7
ENDMDL
MODEL 5
REMARK VINA RESULT:      -7.4      1.316      1.921
REMARK  Name = 
REMARK  8 active torsions:
REMARK  status: ('A' for Active; 'I' for Inactive)
REMARK    1  A    between atoms: C_1  and  C_2
REMARK    2  A    between atoms: C_2  and  C_3
REMARK    3  A    between atoms: N_5  and  C_6
REMARK    4  A    between atoms: C_9  and  C_10
REMARK    5  A    between atoms: C_10  and  O_12
REMARK    6  A    between atoms: O_12  and  C_13
REMARK    7  A    between atoms: C_13  and  C_14
REMARK    8  A    between atoms: C_14  and  C_16
REMARK                            x       y       z     vdW  Elec       q    Type
REMARK                         _______ _______ _______ _____ _____    ______ ____
ROOT
ATOM      1  C   UNL     1       5.388   4.096  18.643  0.00  0.00    +0.000 C 
ATOM      2  O   UNL     1       5.482   3.498  19.704  0.00  0.00    +0.000 OA
ENDROOT
BRANCH   1   6
ATOM      3  C   UNL     1       7.489   7.734  17.696  0.00  0.00    +0.000 A 
ATOM      4  C   UNL     1       6.276   7.398  17.092  0.00  0.00    +0.000 A 
ATOM      5  C   UNL     1       5.625   6.202  17.394  0.00  0.00    +0.000 A 
ATOM      6  C   UNL     1       6.183   5.309  18.304  0.00  0.00    +0.000 A 
ATOM      7  C   UNL     1       7.418   5.616  18.894  0.00  0.00    +0.000 A 
ATOM      8  C   UNL     1       8.072   6.819  18.582  0.00  0.00    +0.000 A 
BRANCH   3  11
ATOM      9  C   UNL     1       8.771   9.741  18.399  0.00  0.00    +0.000 C 
ATOM     10  O   UNL     1       8.924   9.441  19.580  0.00  0.00    +0.000 OA
ATOM     11  N   UNL     1       8.150   8.956  17.440  0.00  0.00    +0.000 N 
ATOM     12  H   UNL     1       8.277   9.215  16.468  0.00  0.00    +0.000 HD
BRANCH   9  14
ATOM     13  C   UNL     1       9.477  12.063  18.989  0.00  0.00    +0.000 C 
ATOM     14  C   UNL     1       9.281  11.063  17.858  0.00  0.00    +0.000 C 
ENDBRANCH   9  14
ENDBRANCH   3  11
ENDBRANCH   1   6
BRANCH   1  15
ATOM     15  O   UNL     1       4.607   3.730  17.604  0.00  0.00    +0.000 OA
BRANCH  15  16
ATOM     16  C   UNL     1       3.735   2.623  17.874  0.00  0.00    +0.000 C 
BRANCH  16  17
ATOM     17  C   UNL     1       2.323   3.153  18.105  0.00  0.00    +0.000 C 
ATOM     18  O   UNL     1       1.327   2.535  17.717  0.00  0.00    +0.000 OA
BRANCH  17  19
ATOM     19  C   UNL     1       2.088   4.424  18.855  0.00  0.00    +0.000 A 
ATOM     20  C   UNL     1       2.252   5.608  18.104  0.00  0.00    +0.000 A 
ATOM     21  C   UNL     1       2.132   6.866  18.700  0.00  0.00    +0.000 A 
ATOM     22  C   UNL     1       1.846   6.956  20.056  0.00  0.00    +0.000 A 
ATOM     23 CL   UNL     1       1.719   8.498  20.806  0.00  0.00    +0.000 Cl
ATOM     24  C   UNL     1       1.677   5.801  20.815  0.00  0.00    +0.000 A 
ATOM     25  C   UNL     1       1.802   4.535  20.222  0.00  0.00    +0.000 A 
ATOM     26 CL   UNL     1       1.656   3.198  21.302  0.00  0.00    +0.000 Cl
ENDBRANCH  17  19
ENDBRANCH  16  17
ENDBRANCH  15  16
ENDBRANCH   1  15
TORSDOF 7
ENDMDL
MODEL 6
REMARK VINA RESULT:      -7.4      3.420      6.272
REMARK  Name = 
REMARK  8 active torsions:
REMARK  status: ('A' for Active; 'I' for Inactive)
REMARK    1  A    between atoms: C_1  and  C_2
REMARK    2  A    between atoms: C_2  and  C_3
REMARK    3  A    between atoms: N_5  and  C_6
REMARK    4  A    between atoms: C_9  and  C_10
REMARK    5  A    between atoms: C_10  and  O_12
REMARK    6  A    between atoms: O_12  and  C_13
REMARK    7  A    between atoms: C_13  and  C_14
REMARK    8  A    between atoms: C_14  and  C_16
REMARK                            x       y       z     vdW  Elec       q    Type
REMARK                         _______ _______ _______ _____ _____    ______ ____
ROOT
ATOM      1  C   UNL     1       2.692   3.653  17.650  0.00  0.00    +0.000 C 
ATOM      2  O   UNL     1       1.887   3.397  16.768  0.00  0.00    +0.000 OA
ENDROOT
BRANCH   1   6
ATOM      3  C   UNL     1       1.981   6.852  20.444  0.00  0.00    +0.000 A 
ATOM      4  C   UNL     1       2.495   7.083  19.166  0.00  0.00    +0.000 A 
ATOM      5  C   UNL     1       2.742   6.029  18.286  0.00  0.00    +0.000 A 
ATOM      6  C   UNL     1       2.489   4.716  18.673  0.00  0.00    +0.000 A 
ATOM      7  C   UNL     1       2.003   4.465  19.965  0.00  0.00    +0.000 A 
ATOM      8  C   UNL     1       1.762   5.529  20.849  0.00  0.00    +0.000 A 
BRANCH   3  11
ATOM      9  C   UNL     1       0.793   8.934  21.087  0.00  0.00    +0.000 C 
ATOM     10  O   UNL     1       0.068   9.029  20.100  0.00  0.00    +0.000 OA
ATOM     11  N   UNL     1       1.683   7.902  21.340  0.00  0.00    +0.000 N 
ATOM     12  H   UNL     1       2.060   7.828  22.278  0.00  0.00    +0.000 HD
BRANCH   9  14
ATOM     13  C   UNL     1      -0.538   9.935  22.951  0.00  0.00    +0.000 C 
ATOM     14  C   UNL     1       0.771   9.992  22.175  0.00  0.00    +0.000 C 
ENDBRANCH   9  14
ENDBRANCH   3  11
ENDBRANCH   1   6
BRANCH   1  15
ATOM     15  O   UNL     1       3.848   2.990  17.873  0.00  0.00    +0.000 OA
BRANCH  15  16
ATOM     16  C   UNL     1       4.873   3.775  18.501  0.00  0.00    +0.000 C 
BRANCH  16  17
ATOM     17  C   UNL     1       5.847   4.259  17.431  0.00  0.00    +0.000 C 
ATOM     18  O   UNL     1       6.056   3.608  16.403  0.00  0.00    +0.000 OA
BRANCH  17  19
ATOM     19  C   UNL     1       6.551   5.570  17.564  0.00  0.00    +0.000 A 
ATOM     20  C   UNL     1       7.537   5.626  18.573  0.00  0.00    +0.000 A 
ATOM     21  C   UNL     1       8.222   6.812  18.852  0.00  0.00    +0.000 A 
ATOM     22  C   UNL     1       7.930   7.958  18.124  0.00  0.00    +0.000 A 
ATOM     23 CL   UNL     1       8.748   9.429  18.473  0.00  0.00    +0.000 Cl
ATOM     24  C   UNL     1       6.963   7.925  17.122  0.00  0.00    +0.000 A 
ATOM     25  C   UNL     1       6.269   6.737  16.842  0.00  0.00    +0.000 A 
ATOM     26 CL   UNL     1       5.040   6.868  15.639  0.00  0.00    +0.000 Cl
ENDBRANCH  17  19
ENDBRANCH  16  17
ENDBRANCH  15  16
ENDBRANCH   1  15
TORSDOF 7
ENDMDL
MODEL 7
REMARK VINA RESULT:      -7.4      2.655      4.869
REMARK  Name = 
REMARK  8 active torsions:
REMARK  status: ('A' for Active; 'I' for Inactive)
REMARK    1  A    between atoms: C_1  and  C_2
REMARK    2  A    between atoms: C_2  and  C_3
REMARK    3  A    between atoms: N_5  and  C_6
REMARK    4  A    between atoms: C_9  and  C_10
REMARK    5  A    between atoms: C_10  and  O_12
REMARK    6  A    between atoms: O_12  and  C_13
REMARK    7  A    between atoms: C_13  and  C_14
REMARK    8  A    between atoms: C_14  and  C_16
REMARK                            x       y       z     vdW  Elec       q    Type
REMARK                         _______ _______ _______ _____ _____    ______ ____
ROOT
ATOM      1  C   UNL     1       8.082   8.099  18.188  0.00  0.00    +0.000 C 
ATOM      2  O   UNL     1       8.526   7.244  18.938  0.00  0.00    +0.000 OA
ENDROOT
BRANCH   1   6
ATOM      3  C   UNL     1       9.287  12.224  18.477  0.00  0.00    +0.000 A 
ATOM      4  C   UNL     1       9.831  11.232  19.297  0.00  0.00    +0.000 A 
ATOM      5  C   UNL     1       9.407   9.907  19.204  0.00  0.00    +0.000 A 
ATOM      6  C   UNL     1       8.419   9.546  18.292  0.00  0.00    +0.000 A 
ATOM      7  C   UNL     1       7.840  10.537  17.485  0.00  0.00    +0.000 A 
ATOM      8  C   UNL     1       8.265  11.872  17.587  0.00  0.00    +0.000 A 
BRANCH   3  11
ATOM      9  C   UNL     1      10.840  14.060  17.859  0.00  0.00    +0.000 C 
ATOM     10  O   UNL     1      11.539  13.433  17.067  0.00  0.00    +0.000 OA
ATOM     11  N   UNL     1       9.727  13.566  18.521  0.00  0.00    +0.000 N 
ATOM     12  H   UNL     1       9.115  14.236  18.974  0.00  0.00    +0.000 HD
BRANCH   9  14
ATOM     13  C   UNL     1      11.943  15.600  19.488  0.00  0.00    +0.000 C 
ATOM     14  C   UNL     1      11.147  15.507  18.193  0.00  0.00    +0.000 C 
ENDBRANCH   9  14
ENDBRANCH   3  11
ENDBRANCH   1   6
BRANCH   1  15
ATOM     15  O   UNL     1       7.278   7.872  17.127  0.00  0.00    +0.000 OA
BRANCH  15  16
ATOM     16  C   UNL     1       6.897   6.499  16.952  0.00  0.00    +0.000 C 
BRANCH  16  17
ATOM     17  C   UNL     1       5.501   6.450  16.337  0.00  0.00    +0.000 C 
ATOM     18  O   UNL     1       5.249   6.997  15.259  0.00  0.00    +0.000 OA
BRANCH  17  19
ATOM     19  C   UNL     1       4.393   5.694  16.994  0.00  0.00    +0.000 A 
ATOM     20  C   UNL     1       4.423   4.295  16.808  0.00  0.00    +0.000 A 
ATOM     21  C   UNL     1       3.408   3.475  17.310  0.00  0.00    +0.000 A 
ATOM     22  C   UNL     1       2.349   4.045  18.005  0.00  0.00    +0.000 A 
ATOM     23 CL   UNL     1       1.082   3.051  18.605  0.00  0.00    +0.000 Cl
ATOM     24  C   UNL     1       2.301   5.423  18.202  0.00  0.00    +0.000 A 
ATOM     25  C   UNL     1       3.315   6.250  17.696  0.00  0.00    +0.000 A 
ATOM     26 CL   UNL     1       3.077   7.941  17.940  0.00  0.00    +0.000 Cl
ENDBRANCH  17  19
ENDBRANCH  16  17
ENDBRANCH  15  16
ENDBRANCH   1  15
TORSDOF 7
ENDMDL
MODEL 8
REMARK VINA RESULT:      -7.4      4.465      6.710
REMARK  Name = 
REMARK  8 active torsions:
REMARK  status: ('A' for Active; 'I' for Inactive)
REMARK    1  A    between atoms: C_1  and  C_2
REMARK    2  A    between atoms: C_2  and  C_3
REMARK    3  A    between atoms: N_5  and  C_6
REMARK    4  A    between atoms: C_9  and  C_10
REMARK    5  A    between atoms: C_10  and  O_12
REMARK    6  A    between atoms: O_12  and  C_13
REMARK    7  A    between atoms: C_13  and  C_14
REMARK    8  A    between atoms: C_14  and  C_16
REMARK                            x       y       z     vdW  Elec       q    Type
REMARK                         _______ _______ _______ _____ _____    ______ ____
ROOT
ATOM      1  C   UNL     1       2.442   6.069  19.593  0.00  0.00    +0.000 C 
ATOM      2  O   UNL     1       2.404   5.467  20.655  0.00  0.00    +0.000 OA
ENDROOT
BRANCH   1   6
ATOM      3  C   UNL     1       1.120  10.110  18.912  0.00  0.00    +0.000 A 
ATOM      4  C   UNL     1       1.822   9.386  17.946  0.00  0.00    +0.000 A 
ATOM      5  C   UNL     1       2.263   8.087  18.197  0.00  0.00    +0.000 A 
ATOM      6  C   UNL     1       2.020   7.487  19.429  0.00  0.00    +0.000 A 
ATOM      7  C   UNL     1       1.345   8.214  20.422  0.00  0.00    +0.000 A 
ATOM      8  C   UNL     1       0.907   9.524  20.166  0.00  0.00    +0.000 A 
BRANCH   3  11
ATOM      9  C   UNL     1       1.393  12.564  18.654  0.00  0.00    +0.000 C 
ATOM     10  O   UNL     1       2.617  12.610  18.748  0.00  0.00    +0.000 OA
ATOM     11  N   UNL     1       0.624  11.411  18.670  0.00  0.00    +0.000 N 
ATOM     12  H   UNL     1      -0.341  11.487  18.371  0.00  0.00    +0.000 HD
BRANCH   9  14
ATOM     13  C   UNL     1      -0.811  13.651  19.106  0.00  0.00    +0.000 C 
ATOM     14  C   UNL     1       0.575  13.832  18.501  0.00  0.00    +0.000 C 
ENDBRANCH   9  14
ENDBRANCH   3  11
ENDBRANCH   1   6
BRANCH   1  15
ATOM     15  O   UNL     1       2.919   5.576  18.429  0.00  0.00    +0.000 OA
BRANCH  15  16
ATOM     16  C   UNL     1       3.262   4.182  18.468  0.00  0.00    +0.000 C 
BRANCH  16  17
ATOM     17  C   UNL     1       4.781   4.046  18.397  0.00  0.00    +0.000 C 
ATOM     18  O   UNL     1       5.436   3.602  19.345  0.00  0.00    +0.000 OA
BRANCH  17  19
ATOM     19  C   UNL     1       5.530   4.402  17.155  0.00  0.00    +0.000 A 
ATOM     20  C   UNL     1       4.928   3.992  15.947  0.00  0.00    +0.000 A 
ATOM     21  C   UNL     1       5.557   4.198  14.716  0.00  0.00    +0.000 A 
ATOM     22  C   UNL     1       6.799   4.819  14.679  0.00  0.00    +0.000 A 
ATOM     23 CL   UNL     1       7.595   5.057  13.174  0.00  0.00    +0.000 Cl
ATOM     24  C   UNL     1       7.411   5.234  15.859  0.00  0.00    +0.000 A 
ATOM     25  C   UNL     1       6.785   5.025  17.097  0.00  0.00    +0.000 A 
ATOM     26 CL   UNL     1       7.700   5.510  18.476  0.00  0.00    +0.000 Cl
ENDBRANCH  17  19
ENDBRANCH  16  17
ENDBRANCH  15  16
ENDBRANCH   1  15
TORSDOF 7
ENDMDL
MODEL 9
REMARK VINA RESULT:      -7.4      4.567      7.116
REMARK  Name = 
REMARK  8 active torsions:
REMARK  status: ('A' for Active; 'I' for Inactive)
REMARK    1  A    between atoms: C_1  and  C_2
REMARK    2  A    between atoms: C_2  and  C_3
REMARK    3  A    between atoms: N_5  and  C_6
REMARK    4  A    between atoms: C_9  and  C_10
REMARK    5  A    between atoms: C_10  and  O_12
REMARK    6  A    between atoms: O_12  and  C_13
REMARK    7  A    between atoms: C_13  and  C_14
REMARK    8  A    between atoms: C_14  and  C_16
REMARK                            x       y       z     vdW  Elec       q    Type
REMARK                         _______ _______ _______ _____ _____    ______ ____
ROOT
ATOM      1  C   UNL     1       3.410   6.913  17.901  0.00  0.00    +0.000 C 
ATOM      2  O   UNL     1       4.415   7.279  17.313  0.00  0.00    +0.000 OA
ENDROOT
BRANCH   1   6
ATOM      3  C   UNL     1       0.526   9.576  19.674  0.00  0.00    +0.000 A 
ATOM      4  C   UNL     1       0.977   9.736  18.362  0.00  0.00    +0.000 A 
ATOM      5  C   UNL     1       1.931   8.877  17.816  0.00  0.00    +0.000 A 
ATOM      6  C   UNL     1       2.464   7.842  18.579  0.00  0.00    +0.000 A 
ATOM      7  C   UNL     1       2.046   7.688  19.909  0.00  0.00    +0.000 A 
ATOM      8  C   UNL     1       1.089   8.560  20.456  0.00  0.00    +0.000 A 
BRANCH   3  11
ATOM      9  C   UNL     1      -0.231  11.436  21.134  0.00  0.00    +0.000 C 
ATOM     10  O   UNL     1       0.875  11.839  21.484  0.00  0.00    +0.000 OA
ATOM     11  N   UNL     1      -0.469  10.405  20.239  0.00  0.00    +0.000 N 
ATOM     12  H   UNL     1      -1.409  10.311  19.871  0.00  0.00    +0.000 HD
BRANCH   9  14
ATOM     13  C   UNL     1      -1.233  12.733  23.019  0.00  0.00    +0.000 C 
ATOM     14  C   UNL     1      -1.498  12.069  21.675  0.00  0.00    +0.000 C 
ENDBRANCH   9  14
ENDBRANCH   3  11
ENDBRANCH   1   6
BRANCH   1  15
ATOM     15  O   UNL     1       2.968   5.639  17.982  0.00  0.00    +0.000 OA
BRANCH  15  16
ATOM     16  C   UNL     1       3.832   4.753  18.710  0.00  0.00    +0.000 C 
BRANCH  16  17
ATOM     17  C   UNL     1       4.435   3.744  17.738  0.00  0.00    +0.000 C 
ATOM     18  O   UNL     1       4.175   2.540  17.810  0.00  0.00    +0.000 OA
BRANCH  17  19
ATOM     19  C   UNL     1       5.330   4.184  16.625  0.00  0.00    +0.000 A 
ATOM     20  C   UNL     1       4.794   4.042  15.327  0.00  0.00    +0.000 A 
ATOM     21  C   UNL     1       5.550   4.349  14.193  0.00  0.00    +0.000 A 
ATOM     22  C   UNL     1       6.854   4.803  14.342  0.00  0.00    +0.000 A 
ATOM     23 CL   UNL     1       7.804   5.161  12.955  0.00  0.00    +0.000 Cl
ATOM     24  C   UNL     1       7.403   4.952  15.614  0.00  0.00    +0.000 A 
ATOM     25  C   UNL     1       6.648   4.641  16.756  0.00  0.00    +0.000 A 
ATOM     26 CL   UNL     1       7.486   4.789  18.256  0.00  0.00    +0.000 Cl
ENDBRANCH  17  19
ENDBRANCH  16  17
ENDBRANCH  15  16
ENDBRANCH   1  15
TORSDOF 7
ENDMDL
