MODEL 1
REMARK VINA RESULT:      -8.8      0.000      0.000
REMARK  Name = 
REMARK  8 active torsions:
REMARK  status: ('A' for Active; 'I' for Inactive)
REMARK    1  A    between atoms: C_2  and  C_17
REMARK    2  A    between atoms: N_3  and  C_4
REMARK    3  A    between atoms: C_6  and  C_7
REMARK    4  A    between atoms: C_17  and  C_18
REMARK    5  A    between atoms: C_17  and  N_25
REMARK    6  A    between atoms: C_18  and  C_19
REMARK    7  A    between atoms: N_25  and  C_26
REMARK    8  A    between atoms: C_26  and  C_27
REMARK                            x       y       z     vdW  Elec       q    Type
REMARK                         _______ _______ _______ _____ _____    ______ ____
ROOT
ATOM      1  C   UNL     1       2.293   7.742  18.099  0.00  0.00    +0.000 C 
ENDROOT
BRANCH   1   3
ATOM      2  O   UNL     1       1.790  10.019  17.543  0.00  0.00    +0.000 OA
ATOM      3  C   UNL     1       1.582   9.085  18.317  0.00  0.00    +0.000 C 
ATOM      4  N   UNL     1       0.767   9.177  19.433  0.00  0.00    +0.000 N 
ATOM      5  H   UNL     1       0.879   8.452  20.141  0.00  0.00    +0.000 HD
BRANCH   4   6
ATOM      6  C   UNL     1      -0.070  10.236  19.732  0.00  0.00    +0.000 A 
ATOM      7  C   UNL     1      -1.279  10.434  19.179  0.00  0.00    +0.000 A 
ATOM      8  C   UNL     1      -2.123  11.566  19.504  0.00  0.00    +0.000 A 
ATOM      9  C   UNL     1      -1.702  12.433  20.439  0.00  0.00    +0.000 A 
ATOM     10  N   UNL     1      -0.489  12.256  21.060  0.00  0.00    +0.000 N 
ATOM     11  C   UNL     1       0.388  11.229  20.775  0.00  0.00    +0.000 A 
ATOM     12  O   UNL     1       1.482  11.125  21.323  0.00  0.00    +0.000 OA
ATOM     13  H   UNL     1      -0.173  12.927  21.750  0.00  0.00    +0.000 HD
BRANCH   8  14
ATOM     14  C   UNL     1      -3.400  11.804  18.816  0.00  0.00    +0.000 A 
ATOM     15  C   UNL     1      -4.456  12.413  19.496  0.00  0.00    +0.000 A 
ATOM     16  C   UNL     1      -5.634  12.642  18.807  0.00  0.00    +0.000 A 
ATOM     17  N   UNL     1      -5.818  12.315  17.509  0.00  0.00    +0.000 NA
ATOM     18  C   UNL     1      -4.774  11.748  16.869  0.00  0.00    +0.000 A 
ATOM     19  C   UNL     1      -3.556  11.477  17.469  0.00  0.00    +0.000 A 
ENDBRANCH   8  14
ENDBRANCH   4   6
ENDBRANCH   1   3
BRANCH   1  20
ATOM     20  N   UNL     1       3.499   7.860  17.230  0.00  0.00    +0.000 NA
ATOM     21  H   UNL     1       3.736   8.854  17.153  0.00  0.00    +0.000 HD
BRANCH  20  22
ATOM     22  C   UNL     1       4.615   7.156  17.872  0.00  0.00    +0.000 C 
BRANCH  22  23
ATOM     23  C   UNL     1       5.307   6.130  16.959  0.00  0.00    +0.000 C 
ATOM     24  C   UNL     1       5.272   4.693  17.507  0.00  0.00    +0.000 C 
ATOM     25  C   UNL     1       6.031   4.503  18.813  0.00  0.00    +0.000 C 
ATOM     26  S   UNL     1       7.741   4.986  18.674  0.00  0.00    +0.000 S 
ATOM     27  O   UNL     1       8.264   5.163  20.015  0.00  0.00    +0.000 OA
ATOM     28  O   UNL     1       8.391   4.093  17.735  0.00  0.00    +0.000 OA
ATOM     29  C   UNL     1       7.643   6.596  17.919  0.00  0.00    +0.000 C 
ATOM     30  C   UNL     1       6.758   6.582  16.680  0.00  0.00    +0.000 C 
ENDBRANCH  22  23
ENDBRANCH  20  22
ENDBRANCH   1  20
BRANCH   1  31
ATOM     31  C   UNL     1       2.521   7.051  19.472  0.00  0.00    +0.000 C 
BRANCH  31  32
ATOM     32  C   UNL     1       2.102   5.597  19.576  0.00  0.00    +0.000 A 
ATOM     33  C   UNL     1       1.942   4.979  20.824  0.00  0.00    +0.000 A 
ATOM     34  C   UNL     1       1.492   3.661  20.917  0.00  0.00    +0.000 A 
ATOM     35  C   UNL     1       1.188   2.943  19.764  0.00  0.00    +0.000 A 
ATOM     36  C   UNL     1       1.343   3.541  18.515  0.00  0.00    +0.000 A 
ATOM     37  C   UNL     1       1.798   4.858  18.421  0.00  0.00    +0.000 A 
ENDBRANCH  31  32
ENDBRANCH   1  31
TORSDOF 8
ENDMDL
MODEL 2
REMARK VINA RESULT:      -8.8      2.797      4.089
REMARK  Name = 
REMARK  8 active torsions:
REMARK  status: ('A' for Active; 'I' for Inactive)
REMARK    1  A    between atoms: C_2  and  C_17
REMARK    2  A    between atoms: N_3  and  C_4
REMARK    3  A    between atoms: C_6  and  C_7
REMARK    4  A    between atoms: C_17  and  C_18
REMARK    5  A    between atoms: C_17  and  N_25
REMARK    6  A    between atoms: C_18  and  C_19
REMARK    7  A    between atoms: N_25  and  C_26
REMARK    8  A    between atoms: C_26  and  C_27
REMARK                            x       y       z     vdW  Elec       q    Type
REMARK                         _______ _______ _______ _____ _____    ______ ____
ROOT
ATOM      1  C   UNL     1       2.083   7.544  18.389  0.00  0.00    +0.000 C 
ENDROOT
BRANCH   1   3
ATOM      2  O   UNL     1       1.522   8.999  20.211  0.00  0.00    +0.000 OA
ATOM      3  C   UNL     1       1.582   8.865  18.989  0.00  0.00    +0.000 C 
ATOM      4  N   UNL     1       1.169   9.833  18.089  0.00  0.00    +0.000 N 
ATOM      5  H   UNL     1       1.005   9.525  17.130  0.00  0.00    +0.000 HD
BRANCH   4   6
ATOM      6  C   UNL     1       0.824  11.134  18.409  0.00  0.00    +0.000 A 
ATOM      7  C   UNL     1       1.635  12.196  18.270  0.00  0.00    +0.000 A 
ATOM      8  C   UNL     1       1.245  13.543  18.632  0.00  0.00    +0.000 A 
ATOM      9  C   UNL     1      -0.003  13.752  19.080  0.00  0.00    +0.000 A 
ATOM     10  N   UNL     1      -0.884  12.704  19.207  0.00  0.00    +0.000 N 
ATOM     11  C   UNL     1      -0.574  11.390  18.923  0.00  0.00    +0.000 A 
ATOM     12  O   UNL     1      -1.375  10.474  19.087  0.00  0.00    +0.000 OA
ATOM     13  H   UNL     1      -1.817  12.871  19.565  0.00  0.00    +0.000 HD
BRANCH   8  14
ATOM     14  C   UNL     1       2.186  14.670  18.554  0.00  0.00    +0.000 A 
ATOM     15  C   UNL     1       3.545  14.431  18.343  0.00  0.00    +0.000 A 
ATOM     16  C   UNL     1       4.395  15.519  18.252  0.00  0.00    +0.000 A 
ATOM     17  N   UNL     1       3.983  16.802  18.349  0.00  0.00    +0.000 NA
ATOM     18  C   UNL     1       2.661  17.006  18.531  0.00  0.00    +0.000 A 
ATOM     19  C   UNL     1       1.731  15.986  18.636  0.00  0.00    +0.000 A 
ENDBRANCH   8  14
ENDBRANCH   4   6
ENDBRANCH   1   3
BRANCH   1  20
ATOM     20  N   UNL     1       3.035   7.746  17.259  0.00  0.00    +0.000 NA
ATOM     21  H   UNL     1       3.091   8.751  17.070  0.00  0.00    +0.000 HD
BRANCH  20  22
ATOM     22  C   UNL     1       4.361   7.267  17.665  0.00  0.00    +0.000 C 
BRANCH  22  23
ATOM     23  C   UNL     1       5.009   6.307  16.653  0.00  0.00    +0.000 C 
ATOM     24  C   UNL     1       4.989   4.835  17.098  0.00  0.00    +0.000 C 
ATOM     25  C   UNL     1       5.801   4.550  18.355  0.00  0.00    +0.000 C 
ATOM     26  S   UNL     1       7.506   5.039  18.181  0.00  0.00    +0.000 S 
ATOM     27  O   UNL     1       8.085   5.118  19.508  0.00  0.00    +0.000 OA
ATOM     28  O   UNL     1       8.112   4.213  17.153  0.00  0.00    +0.000 OA
ATOM     29  C   UNL     1       7.385   6.698  17.546  0.00  0.00    +0.000 C 
ATOM     30  C   UNL     1       6.449   6.775  16.348  0.00  0.00    +0.000 C 
ENDBRANCH  22  23
ENDBRANCH  20  22
ENDBRANCH   1  20
BRANCH   1  31
ATOM     31  C   UNL     1       2.586   6.619  19.532  0.00  0.00    +0.000 C 
BRANCH  31  32
ATOM     32  C   UNL     1       1.997   5.222  19.581  0.00  0.00    +0.000 A 
ATOM     33  C   UNL     1       1.754   4.500  18.404  0.00  0.00    +0.000 A 
ATOM     34  C   UNL     1       1.275   3.190  18.455  0.00  0.00    +0.000 A 
ATOM     35  C   UNL     1       1.038   2.579  19.684  0.00  0.00    +0.000 A 
ATOM     36  C   UNL     1       1.273   3.283  20.863  0.00  0.00    +0.000 A 
ATOM     37  C   UNL     1       1.748   4.596  20.812  0.00  0.00    +0.000 A 
ENDBRANCH  31  32
ENDBRANCH   1  31
TORSDOF 8
ENDMDL
MODEL 3
REMARK VINA RESULT:      -8.8      2.835      4.049
REMARK  Name = 
REMARK  8 active torsions:
REMARK  status: ('A' for Active; 'I' for Inactive)
REMARK    1  A    between atoms: C_2  and  C_17
REMARK    2  A    between atoms: N_3  and  C_4
REMARK    3  A    between atoms: C_6  and  C_7
REMARK    4  A    between atoms: C_17  and  C_18
REMARK    5  A    between atoms: C_17  and  N_25
REMARK    6  A    between atoms: C_18  and  C_19
REMARK    7  A    between atoms: N_25  and  C_26
REMARK    8  A    between atoms: C_26  and  C_27
REMARK                            x       y       z     vdW  Elec       q    Type
REMARK                         _______ _______ _______ _____ _____    ______ ____
ROOT
ATOM      1  C   UNL     1       2.040   7.644  18.517  0.00  0.00    +0.000 C 
ENDROOT
BRANCH   1   3
ATOM      2  O   UNL     1       1.314   9.131  20.252  0.00  0.00    +0.000 OA
ATOM      3  C   UNL     1       1.510   8.984  19.045  0.00  0.00    +0.000 C 
ATOM      4  N   UNL     1       1.231   9.953  18.097  0.00  0.00    +0.000 N 
ATOM      5  H   UNL     1       1.169   9.640  17.128  0.00  0.00    +0.000 HD
BRANCH   4   6
ATOM      6  C   UNL     1       0.888  11.266  18.366  0.00  0.00    +0.000 A 
ATOM      7  C   UNL     1       1.740  12.304  18.317  0.00  0.00    +0.000 A 
ATOM      8  C   UNL     1       1.349  13.665  18.621  0.00  0.00    +0.000 A 
ATOM      9  C   UNL     1       0.063  13.913  18.918  0.00  0.00    +0.000 A 
ATOM     10  N   UNL     1      -0.856  12.891  18.948  0.00  0.00    +0.000 N 
ATOM     11  C   UNL     1      -0.552  11.566  18.712  0.00  0.00    +0.000 A 
ATOM     12  O   UNL     1      -1.394  10.674  18.786  0.00  0.00    +0.000 OA
ATOM     13  H   UNL     1      -1.820  13.087  19.193  0.00  0.00    +0.000 HD
BRANCH   8  14
ATOM     14  C   UNL     1       2.324  14.765  18.647  0.00  0.00    +0.000 A 
ATOM     15  C   UNL     1       1.986  15.983  19.239  0.00  0.00    +0.000 A 
ATOM     16  C   UNL     1       2.940  16.985  19.264  0.00  0.00    +0.000 A 
ATOM     17  N   UNL     1       4.183  16.851  18.754  0.00  0.00    +0.000 NA
ATOM     18  C   UNL     1       4.491  15.656  18.207  0.00  0.00    +0.000 A 
ATOM     19  C   UNL     1       3.609  14.591  18.132  0.00  0.00    +0.000 A 
ENDBRANCH   8  14
ENDBRANCH   4   6
ENDBRANCH   1   3
BRANCH   1  20
ATOM     20  N   UNL     1       3.002   7.806  17.388  0.00  0.00    +0.000 NA
ATOM     21  H   UNL     1       3.116   8.809  17.213  0.00  0.00    +0.000 HD
BRANCH  20  22
ATOM     22  C   UNL     1       4.298   7.246  17.788  0.00  0.00    +0.000 C 
BRANCH  22  23
ATOM     23  C   UNL     1       4.906   6.291  16.748  0.00  0.00    +0.000 C 
ATOM     24  C   UNL     1       4.919   4.819  17.194  0.00  0.00    +0.000 C 
ATOM     25  C   UNL     1       5.789   4.541  18.412  0.00  0.00    +0.000 C 
ATOM     26  S   UNL     1       7.481   5.043  18.159  0.00  0.00    +0.000 S 
ATOM     27  O   UNL     1       8.119   5.128  19.458  0.00  0.00    +0.000 OA
ATOM     28  O   UNL     1       8.046   4.222  17.105  0.00  0.00    +0.000 OA
ATOM     29  C   UNL     1       7.318   6.701  17.531  0.00  0.00    +0.000 C 
ATOM     30  C   UNL     1       6.328   6.770  16.376  0.00  0.00    +0.000 C 
ENDBRANCH  22  23
ENDBRANCH  20  22
ENDBRANCH   1  20
BRANCH   1  31
ATOM     31  C   UNL     1       2.544   6.784  19.709  0.00  0.00    +0.000 C 
BRANCH  31  32
ATOM     32  C   UNL     1       2.089   5.337  19.739  0.00  0.00    +0.000 A 
ATOM     33  C   UNL     1       1.958   4.647  20.953  0.00  0.00    +0.000 A 
ATOM     34  C   UNL     1       1.475   3.337  20.982  0.00  0.00    +0.000 A 
ATOM     35  C   UNL     1       1.108   2.701  19.799  0.00  0.00    +0.000 A 
ATOM     36  C   UNL     1       1.233   3.371  18.585  0.00  0.00    +0.000 A 
ATOM     37  C   UNL     1       1.721   4.680  18.554  0.00  0.00    +0.000 A 
ENDBRANCH  31  32
ENDBRANCH   1  31
TORSDOF 8
ENDMDL
MODEL 4
REMARK VINA RESULT:      -8.7      1.367      1.848
REMARK  Name = 
REMARK  8 active torsions:
REMARK  status: ('A' for Active; 'I' for Inactive)
REMARK    1  A    between atoms: C_2  and  C_17
REMARK    2  A    between atoms: N_3  and  C_4
REMARK    3  A    between atoms: C_6  and  C_7
REMARK    4  A    between atoms: C_17  and  C_18
REMARK    5  A    between atoms: C_17  and  N_25
REMARK    6  A    between atoms: C_18  and  C_19
REMARK    7  A    between atoms: N_25  and  C_26
REMARK    8  A    between atoms: C_26  and  C_27
REMARK                            x       y       z     vdW  Elec       q    Type
REMARK                         _______ _______ _______ _____ _____    ______ ____
ROOT
ATOM      1  C   UNL     1       2.137   7.416  18.483  0.00  0.00    +0.000 C 
ENDROOT
BRANCH   1   3
ATOM      2  O   UNL     1       1.412   8.644  20.410  0.00  0.00    +0.000 OA
ATOM      3  C   UNL     1       1.487   8.618  19.182  0.00  0.00    +0.000 C 
ATOM      4  N   UNL     1       0.966   9.601  18.358  0.00  0.00    +0.000 N 
ATOM      5  H   UNL     1       0.839   9.356  17.377  0.00  0.00    +0.000 HD
BRANCH   4   6
ATOM      6  C   UNL     1       0.474  10.824  18.778  0.00  0.00    +0.000 A 
ATOM      7  C   UNL     1      -0.743  11.015  19.315  0.00  0.00    +0.000 A 
ATOM      8  C   UNL     1      -1.232  12.314  19.728  0.00  0.00    +0.000 A 
ATOM      9  C   UNL     1      -0.414  13.373  19.617  0.00  0.00    +0.000 A 
ATOM     10  N   UNL     1       0.853  13.226  19.106  0.00  0.00    +0.000 N 
ATOM     11  C   UNL     1       1.374  12.031  18.653  0.00  0.00    +0.000 A 
ATOM     12  O   UNL     1       2.498  11.945  18.165  0.00  0.00    +0.000 OA
ATOM     13  H   UNL     1       1.455  14.036  19.008  0.00  0.00    +0.000 HD
BRANCH   8  14
ATOM     14  C   UNL     1      -2.601  12.504  20.229  0.00  0.00    +0.000 A 
ATOM     15  C   UNL     1      -3.691  12.220  19.405  0.00  0.00    +0.000 A 
ATOM     16  C   UNL     1      -4.964  12.389  19.920  0.00  0.00    +0.000 A 
ATOM     17  N   UNL     1      -5.213  12.808  21.180  0.00  0.00    +0.000 NA
ATOM     18  C   UNL     1      -4.141  13.055  21.963  0.00  0.00    +0.000 A 
ATOM     19  C   UNL     1      -2.829  12.918  21.541  0.00  0.00    +0.000 A 
ENDBRANCH   8  14
ENDBRANCH   4   6
ENDBRANCH   1   3
BRANCH   1  20
ATOM     20  N   UNL     1       3.066   7.816  17.386  0.00  0.00    +0.000 NA
ATOM     21  H   UNL     1       3.077   8.840  17.341  0.00  0.00    +0.000 HD
BRANCH  20  22
ATOM     22  C   UNL     1       4.416   7.343  17.713  0.00  0.00    +0.000 C 
BRANCH  22  23
ATOM     23  C   UNL     1       5.016   6.404  16.654  0.00  0.00    +0.000 C 
ATOM     24  C   UNL     1       4.974   4.919  17.052  0.00  0.00    +0.000 C 
ATOM     25  C   UNL     1       5.811   4.575  18.277  0.00  0.00    +0.000 C 
ATOM     26  S   UNL     1       7.522   5.031  18.073  0.00  0.00    +0.000 S 
ATOM     27  O   UNL     1       8.136   5.055  19.386  0.00  0.00    +0.000 OA
ATOM     28  O   UNL     1       8.082   4.227  17.004  0.00  0.00    +0.000 OA
ATOM     29  C   UNL     1       7.422   6.713  17.496  0.00  0.00    +0.000 C 
ATOM     30  C   UNL     1       6.458   6.850  16.326  0.00  0.00    +0.000 C 
ENDBRANCH  22  23
ENDBRANCH  20  22
ENDBRANCH   1  20
BRANCH   1  31
ATOM     31  C   UNL     1       2.736   6.461  19.553  0.00  0.00    +0.000 C 
BRANCH  31  32
ATOM     32  C   UNL     1       2.138   5.069  19.628  0.00  0.00    +0.000 A 
ATOM     33  C   UNL     1       1.873   4.463  20.864  0.00  0.00    +0.000 A 
ATOM     34  C   UNL     1       1.261   3.210  20.929  0.00  0.00    +0.000 A 
ATOM     35  C   UNL     1       0.898   2.547  19.760  0.00  0.00    +0.000 A 
ATOM     36  C   UNL     1       1.157   3.134  18.523  0.00  0.00    +0.000 A 
ATOM     37  C   UNL     1       1.773   4.386  18.457  0.00  0.00    +0.000 A 
ENDBRANCH  31  32
ENDBRANCH   1  31
TORSDOF 8
ENDMDL
MODEL 5
REMARK VINA RESULT:      -8.7      1.258      1.701
REMARK  Name = 
REMARK  8 active torsions:
REMARK  status: ('A' for Active; 'I' for Inactive)
REMARK    1  A    between atoms: C_2  and  C_17
REMARK    2  A    between atoms: N_3  and  C_4
REMARK    3  A    between atoms: C_6  and  C_7
REMARK    4  A    between atoms: C_17  and  C_18
REMARK    5  A    between atoms: C_17  and  N_25
REMARK    6  A    between atoms: C_18  and  C_19
REMARK    7  A    between atoms: N_25  and  C_26
REMARK    8  A    between atoms: C_26  and  C_27
REMARK                            x       y       z     vdW  Elec       q    Type
REMARK                         _______ _______ _______ _____ _____    ______ ____
ROOT
ATOM      1  C   UNL     1       2.110   7.542  18.570  0.00  0.00    +0.000 C 
ENDROOT
BRANCH   1   3
ATOM      2  O   UNL     1       1.362   8.829  20.450  0.00  0.00    +0.000 OA
ATOM      3  C   UNL     1       1.407   8.740  19.222  0.00  0.00    +0.000 C 
ATOM      4  N   UNL     1       0.807   9.645  18.364  0.00  0.00    +0.000 N 
ATOM      5  H   UNL     1       0.669   9.339  17.401  0.00  0.00    +0.000 HD
BRANCH   4   6
ATOM      6  C   UNL     1       0.253  10.858  18.732  0.00  0.00    +0.000 A 
ATOM      7  C   UNL     1      -1.021  11.028  19.125  0.00  0.00    +0.000 A 
ATOM      8  C   UNL     1      -1.572  12.318  19.488  0.00  0.00    +0.000 A 
ATOM      9  C   UNL     1      -0.760  13.388  19.481  0.00  0.00    +0.000 A 
ATOM     10  N   UNL     1       0.560  13.261  19.120  0.00  0.00    +0.000 N 
ATOM     11  C   UNL     1       1.146  12.076  18.722  0.00  0.00    +0.000 A 
ATOM     12  O   UNL     1       2.320  12.009  18.368  0.00  0.00    +0.000 OA
ATOM     13  H   UNL     1       1.158  14.079  19.099  0.00  0.00    +0.000 HD
BRANCH   8  14
ATOM     14  C   UNL     1      -2.992  12.487  19.827  0.00  0.00    +0.000 A 
ATOM     15  C   UNL     1      -3.357  13.213  20.962  0.00  0.00    +0.000 A 
ATOM     16  C   UNL     1      -4.704  13.370  21.234  0.00  0.00    +0.000 A 
ATOM     17  N   UNL     1      -5.689  12.866  20.459  0.00  0.00    +0.000 NA
ATOM     18  C   UNL     1      -5.310  12.187  19.356  0.00  0.00    +0.000 A 
ATOM     19  C   UNL     1      -3.989  11.974  18.997  0.00  0.00    +0.000 A 
ENDBRANCH   8  14
ENDBRANCH   4   6
ENDBRANCH   1   3
BRANCH   1  20
ATOM     20  N   UNL     1       3.127   7.949  17.557  0.00  0.00    +0.000 NA
ATOM     21  H   UNL     1       3.218   8.969  17.594  0.00  0.00    +0.000 HD
BRANCH  20  22
ATOM     22  C   UNL     1       4.416   7.345  17.911  0.00  0.00    +0.000 C 
BRANCH  22  23
ATOM     23  C   UNL     1       4.976   6.404  16.832  0.00  0.00    +0.000 C 
ATOM     24  C   UNL     1       4.946   4.919  17.231  0.00  0.00    +0.000 C 
ATOM     25  C   UNL     1       5.825   4.574  18.426  0.00  0.00    +0.000 C 
ATOM     26  S   UNL     1       7.529   5.027  18.162  0.00  0.00    +0.000 S 
ATOM     27  O   UNL     1       8.189   5.050  19.452  0.00  0.00    +0.000 OA
ATOM     28  O   UNL     1       8.049   4.221  17.074  0.00  0.00    +0.000 OA
ATOM     29  C   UNL     1       7.412   6.709  17.588  0.00  0.00    +0.000 C 
ATOM     30  C   UNL     1       6.407   6.847  16.452  0.00  0.00    +0.000 C 
ENDBRANCH  22  23
ENDBRANCH  20  22
ENDBRANCH   1  20
BRANCH   1  31
ATOM     31  C   UNL     1       2.617   6.577  19.678  0.00  0.00    +0.000 C 
BRANCH  31  32
ATOM     32  C   UNL     1       2.031   5.178  19.677  0.00  0.00    +0.000 A 
ATOM     33  C   UNL     1       1.713   4.530  18.475  0.00  0.00    +0.000 A 
ATOM     34  C   UNL     1       1.236   3.218  18.475  0.00  0.00    +0.000 A 
ATOM     35  C   UNL     1       1.079   2.531  19.676  0.00  0.00    +0.000 A 
ATOM     36  C   UNL     1       1.390   3.160  20.879  0.00  0.00    +0.000 A 
ATOM     37  C   UNL     1       1.862   4.475  20.880  0.00  0.00    +0.000 A 
ENDBRANCH  31  32
ENDBRANCH   1  31
TORSDOF 8
ENDMDL
MODEL 6
REMARK VINA RESULT:      -8.7      1.871      3.677
REMARK  Name = 
REMARK  8 active torsions:
REMARK  status: ('A' for Active; 'I' for Inactive)
REMARK    1  A    between atoms: C_2  and  C_17
REMARK    2  A    between atoms: N_3  and  C_4
REMARK    3  A    between atoms: C_6  and  C_7
REMARK    4  A    between atoms: C_17  and  C_18
REMARK    5  A    between atoms: C_17  and  N_25
REMARK    6  A    between atoms: C_18  and  C_19
REMARK    7  A    between atoms: N_25  and  C_26
REMARK    8  A    between atoms: C_26  and  C_27
REMARK                            x       y       z     vdW  Elec       q    Type
REMARK                         _______ _______ _______ _____ _____    ______ ____
ROOT
ATOM      1  C   UNL     1       3.011   7.454  18.197  0.00  0.00    +0.000 C 
ENDROOT
BRANCH   1   3
ATOM      2  O   UNL     1       2.164   9.553  17.406  0.00  0.00    +0.000 OA
ATOM      3  C   UNL     1       2.138   8.712  18.305  0.00  0.00    +0.000 C 
ATOM      4  N   UNL     1       1.393   8.847  19.464  0.00  0.00    +0.000 N 
ATOM      5  H   UNL     1       1.649   8.244  20.245  0.00  0.00    +0.000 HD
BRANCH   4   6
ATOM      6  C   UNL     1       0.438   9.820  19.697  0.00  0.00    +0.000 A 
ATOM      7  C   UNL     1      -0.656  10.015  18.941  0.00  0.00    +0.000 A 
ATOM      8  C   UNL     1      -1.627  11.056  19.206  0.00  0.00    +0.000 A 
ATOM      9  C   UNL     1      -1.455  11.835  20.287  0.00  0.00    +0.000 A 
ATOM     10  N   UNL     1      -0.371  11.655  21.112  0.00  0.00    +0.000 N 
ATOM     11  C   UNL     1       0.617  10.714  20.902  0.00  0.00    +0.000 A 
ATOM     12  O   UNL     1       1.593  10.608  21.640  0.00  0.00    +0.000 OA
ATOM     13  H   UNL     1      -0.241  12.261  21.913  0.00  0.00    +0.000 HD
BRANCH   8  14
ATOM     14  C   UNL     1      -2.765  11.302  18.309  0.00  0.00    +0.000 A 
ATOM     15  C   UNL     1      -2.666  10.986  16.953  0.00  0.00    +0.000 A 
ATOM     16  C   UNL     1      -3.767  11.210  16.146  0.00  0.00    +0.000 A 
ATOM     17  N   UNL     1      -4.938  11.710  16.597  0.00  0.00    +0.000 NA
ATOM     18  C   UNL     1      -5.015  11.986  17.916  0.00  0.00    +0.000 A 
ATOM     19  C   UNL     1      -3.970  11.799  18.805  0.00  0.00    +0.000 A 
ENDBRANCH   8  14
ENDBRANCH   4   6
ENDBRANCH   1   3
BRANCH   1  20
ATOM     20  N   UNL     1       2.261   6.270  17.687  0.00  0.00    +0.000 NA
ATOM     21  H   UNL     1       2.862   5.780  17.017  0.00  0.00    +0.000 HD
BRANCH  20  22
ATOM     22  C   UNL     1       1.974   5.371  18.810  0.00  0.00    +0.000 C 
BRANCH  22  23
ATOM     23  C   UNL     1       1.583   3.948  18.380  0.00  0.00    +0.000 C 
ATOM     24  C   UNL     1       1.367   2.984  19.559  0.00  0.00    +0.000 C 
ATOM     25  C   UNL     1       2.617   2.722  20.389  0.00  0.00    +0.000 C 
ATOM     26  S   UNL     1       3.956   2.079  19.405  0.00  0.00    +0.000 S 
ATOM     27  O   UNL     1       5.184   2.247  20.158  0.00  0.00    +0.000 OA
ATOM     28  O   UNL     1       3.566   0.776  18.901  0.00  0.00    +0.000 OA
ATOM     29  C   UNL     1       4.015   3.203  18.025  0.00  0.00    +0.000 C 
ATOM     30  C   UNL     1       2.640   3.396  17.399  0.00  0.00    +0.000 C 
ENDBRANCH  22  23
ENDBRANCH  20  22
ENDBRANCH   1  20
BRANCH   1  31
ATOM     31  C   UNL     1       4.319   7.800  17.432  0.00  0.00    +0.000 C 
BRANCH  31  32
ATOM     32  C   UNL     1       5.217   6.633  17.066  0.00  0.00    +0.000 A 
ATOM     33  C   UNL     1       5.169   6.058  15.789  0.00  0.00    +0.000 A 
ATOM     34  C   UNL     1       6.044   5.029  15.435  0.00  0.00    +0.000 A 
ATOM     35  C   UNL     1       6.985   4.566  16.350  0.00  0.00    +0.000 A 
ATOM     36  C   UNL     1       7.045   5.125  17.624  0.00  0.00    +0.000 A 
ATOM     37  C   UNL     1       6.167   6.151  17.981  0.00  0.00    +0.000 A 
ENDBRANCH  31  32
ENDBRANCH   1  31
TORSDOF 8
ENDMDL
MODEL 7
REMARK VINA RESULT:      -8.7      0.832      1.202
REMARK  Name = 
REMARK  8 active torsions:
REMARK  status: ('A' for Active; 'I' for Inactive)
REMARK    1  A    between atoms: C_2  and  C_17
REMARK    2  A    between atoms: N_3  and  C_4
REMARK    3  A    between atoms: C_6  and  C_7
REMARK    4  A    between atoms: C_17  and  C_18
REMARK    5  A    between atoms: C_17  and  N_25
REMARK    6  A    between atoms: C_18  and  C_19
REMARK    7  A    between atoms: N_25  and  C_26
REMARK    8  A    between atoms: C_26  and  C_27
REMARK                            x       y       z     vdW  Elec       q    Type
REMARK                         _______ _______ _______ _____ _____    ______ ____
ROOT
ATOM      1  C   UNL     1       2.374   7.251  18.749  0.00  0.00    +0.000 C 
ENDROOT
BRANCH   1   3
ATOM      2  O   UNL     1       1.903   9.311  17.616  0.00  0.00    +0.000 OA
ATOM      3  C   UNL     1       1.715   8.632  18.626  0.00  0.00    +0.000 C 
ATOM      4  N   UNL     1       0.971   9.059  19.712  0.00  0.00    +0.000 N 
ATOM      5  H   UNL     1       1.104   8.550  20.586  0.00  0.00    +0.000 HD
BRANCH   4   6
ATOM      6  C   UNL     1       0.182  10.194  19.750  0.00  0.00    +0.000 A 
ATOM      7  C   UNL     1      -1.016  10.313  19.154  0.00  0.00    +0.000 A 
ATOM      8  C   UNL     1      -1.808  11.525  19.201  0.00  0.00    +0.000 A 
ATOM      9  C   UNL     1      -1.349  12.565  19.916  0.00  0.00    +0.000 A 
ATOM     10  N   UNL     1      -0.145  12.482  20.574  0.00  0.00    +0.000 N 
ATOM     11  C   UNL     1       0.685  11.380  20.541  0.00  0.00    +0.000 A 
ATOM     12  O   UNL     1       1.773  11.357  21.110  0.00  0.00    +0.000 OA
ATOM     13  H   UNL     1       0.201  13.280  21.094  0.00  0.00    +0.000 HD
BRANCH   8  14
ATOM     14  C   UNL     1      -3.073  11.654  18.463  0.00  0.00    +0.000 A 
ATOM     15  C   UNL     1      -3.144  11.260  17.126  0.00  0.00    +0.000 A 
ATOM     16  C   UNL     1      -4.358  11.375  16.473  0.00  0.00    +0.000 A 
ATOM     17  N   UNL     1      -5.483  11.842  17.058  0.00  0.00    +0.000 NA
ATOM     18  C   UNL     1      -5.392  12.195  18.358  0.00  0.00    +0.000 A 
ATOM     19  C   UNL     1      -4.224  12.119  19.098  0.00  0.00    +0.000 A 
ENDBRANCH   8  14
ENDBRANCH   4   6
ENDBRANCH   1   3
BRANCH   1  20
ATOM     20  N   UNL     1       3.827   7.270  18.409  0.00  0.00    +0.000 NA
ATOM     21  H   UNL     1       4.315   6.669  19.080  0.00  0.00    +0.000 HD
BRANCH  20  22
ATOM     22  C   UNL     1       4.004   6.718  17.062  0.00  0.00    +0.000 C 
BRANCH  22  23
ATOM     23  C   UNL     1       4.615   5.307  17.046  0.00  0.00    +0.000 C 
ATOM     24  C   UNL     1       4.927   4.754  18.447  0.00  0.00    +0.000 C 
ATOM     25  C   UNL     1       5.987   5.539  19.208  0.00  0.00    +0.000 C 
ATOM     26  S   UNL     1       7.525   5.638  18.313  0.00  0.00    +0.000 S 
ATOM     27  O   UNL     1       8.309   6.711  18.891  0.00  0.00    +0.000 OA
ATOM     28  O   UNL     1       8.069   4.299  18.195  0.00  0.00    +0.000 OA
ATOM     29  C   UNL     1       7.011   6.163  16.690  0.00  0.00    +0.000 C 
ATOM     30  C   UNL     1       5.876   5.300  16.154  0.00  0.00    +0.000 C 
ENDBRANCH  22  23
ENDBRANCH  20  22
ENDBRANCH   1  20
BRANCH   1  31
ATOM     31  C   UNL     1       2.017   6.632  20.129  0.00  0.00    +0.000 C 
BRANCH  31  32
ATOM     32  C   UNL     1       1.903   5.120  20.183  0.00  0.00    +0.000 A 
ATOM     33  C   UNL     1       2.267   4.410  21.336  0.00  0.00    +0.000 A 
ATOM     34  C   UNL     1       2.098   3.026  21.406  0.00  0.00    +0.000 A 
ATOM     35  C   UNL     1       1.555   2.332  20.328  0.00  0.00    +0.000 A 
ATOM     36  C   UNL     1       1.189   3.022  19.174  0.00  0.00    +0.000 A 
ATOM     37  C   UNL     1       1.362   4.406  19.102  0.00  0.00    +0.000 A 
ENDBRANCH  31  32
ENDBRANCH   1  31
TORSDOF 8
ENDMDL
MODEL 8
REMARK VINA RESULT:      -8.6      1.633      3.108
REMARK  Name = 
REMARK  8 active torsions:
REMARK  status: ('A' for Active; 'I' for Inactive)
REMARK    1  A    between atoms: C_2  and  C_17
REMARK    2  A    between atoms: N_3  and  C_4
REMARK    3  A    between atoms: C_6  and  C_7
REMARK    4  A    between atoms: C_17  and  C_18
REMARK    5  A    between atoms: C_17  and  N_25
REMARK    6  A    between atoms: C_18  and  C_19
REMARK    7  A    between atoms: N_25  and  C_26
REMARK    8  A    between atoms: C_26  and  C_27
REMARK                            x       y       z     vdW  Elec       q    Type
REMARK                         _______ _______ _______ _____ _____    ______ ____
ROOT
ATOM      1  C   UNL     1       2.190   7.728  17.934  0.00  0.00    +0.000 C 
ENDROOT
BRANCH   1   3
ATOM      2  O   UNL     1       2.222  10.114  17.691  0.00  0.00    +0.000 OA
ATOM      3  C   UNL     1       1.626   9.139  18.152  0.00  0.00    +0.000 C 
ATOM      4  N   UNL     1       0.477   9.232  18.918  0.00  0.00    +0.000 N 
ATOM      5  H   UNL     1       0.226   8.411  19.468  0.00  0.00    +0.000 HD
BRANCH   4   6
ATOM      6  C   UNL     1      -0.270  10.381  19.112  0.00  0.00    +0.000 A 
ATOM      7  C   UNL     1      -0.087  11.250  20.120  0.00  0.00    +0.000 A 
ATOM      8  C   UNL     1      -0.900  12.435  20.301  0.00  0.00    +0.000 A 
ATOM      9  C   UNL     1      -1.850  12.708  19.392  0.00  0.00    +0.000 A 
ATOM     10  N   UNL     1      -2.054  11.868  18.323  0.00  0.00    +0.000 N 
ATOM     11  C   UNL     1      -1.350  10.701  18.106  0.00  0.00    +0.000 A 
ATOM     12  O   UNL     1      -1.588   9.955  17.159  0.00  0.00    +0.000 OA
ATOM     13  H   UNL     1      -2.787  12.073  17.654  0.00  0.00    +0.000 HD
BRANCH   8  14
ATOM     14  C   UNL     1      -0.735  13.319  21.465  0.00  0.00    +0.000 A 
ATOM     15  C   UNL     1       0.124  14.417  21.390  0.00  0.00    +0.000 A 
ATOM     16  C   UNL     1       0.234  15.238  22.498  0.00  0.00    +0.000 A 
ATOM     17  N   UNL     1      -0.448  15.042  23.648  0.00  0.00    +0.000 NA
ATOM     18  C   UNL     1      -1.288  13.986  23.686  0.00  0.00    +0.000 A 
ATOM     19  C   UNL     1      -1.468  13.105  22.632  0.00  0.00    +0.000 A 
ENDBRANCH   8  14
ENDBRANCH   4   6
ENDBRANCH   1   3
BRANCH   1  20
ATOM     20  N   UNL     1       3.314   7.700  16.954  0.00  0.00    +0.000 NA
ATOM     21  H   UNL     1       3.488   8.661  16.645  0.00  0.00    +0.000 HD
BRANCH  20  22
ATOM     22  C   UNL     1       4.516   7.195  17.627  0.00  0.00    +0.000 C 
BRANCH  22  23
ATOM     23  C   UNL     1       5.316   6.183  16.791  0.00  0.00    +0.000 C 
ATOM     24  C   UNL     1       5.239   4.743  17.323  0.00  0.00    +0.000 C 
ATOM     25  C   UNL     1       5.852   4.552  18.704  0.00  0.00    +0.000 C 
ATOM     26  S   UNL     1       7.561   5.056  18.758  0.00  0.00    +0.000 S 
ATOM     27  O   UNL     1       7.931   5.230  20.149  0.00  0.00    +0.000 OA
ATOM     28  O   UNL     1       8.321   4.177  17.890  0.00  0.00    +0.000 OA
ATOM     29  C   UNL     1       7.527   6.670  18.004  0.00  0.00    +0.000 C 
ATOM     30  C   UNL     1       6.783   6.654  16.676  0.00  0.00    +0.000 C 
ENDBRANCH  22  23
ENDBRANCH  20  22
ENDBRANCH   1  20
BRANCH   1  31
ATOM     31  C   UNL     1       2.484   7.073  19.312  0.00  0.00    +0.000 C 
BRANCH  31  32
ATOM     32  C   UNL     1       2.067   5.624  19.475  0.00  0.00    +0.000 A 
ATOM     33  C   UNL     1       1.912   5.057  20.747  0.00  0.00    +0.000 A 
ATOM     34  C   UNL     1       1.463   3.743  20.894  0.00  0.00    +0.000 A 
ATOM     35  C   UNL     1       1.157   2.979  19.771  0.00  0.00    +0.000 A 
ATOM     36  C   UNL     1       1.308   3.527  18.499  0.00  0.00    +0.000 A 
ATOM     37  C   UNL     1       1.761   4.840  18.351  0.00  0.00    +0.000 A 
ENDBRANCH  31  32
ENDBRANCH   1  31
TORSDOF 8
ENDMDL
MODEL 9
REMARK VINA RESULT:      -8.6      1.914      2.430
REMARK  Name = 
REMARK  8 active torsions:
REMARK  status: ('A' for Active; 'I' for Inactive)
REMARK    1  A    between atoms: C_2  and  C_17
REMARK    2  A    between atoms: N_3  and  C_4
REMARK    3  A    between atoms: C_6  and  C_7
REMARK    4  A    between atoms: C_17  and  C_18
REMARK    5  A    between atoms: C_17  and  N_25
REMARK    6  A    between atoms: C_18  and  C_19
REMARK    7  A    between atoms: N_25  and  C_26
REMARK    8  A    between atoms: C_26  and  C_27
REMARK                            x       y       z     vdW  Elec       q    Type
REMARK                         _______ _______ _______ _____ _____    ______ ____
ROOT
ATOM      1  C   UNL     1       2.906   6.738  18.393  0.00  0.00    +0.000 C 
ENDROOT
BRANCH   1   3
ATOM      2  O   UNL     1       1.902   8.106  20.086  0.00  0.00    +0.000 OA
ATOM      3  C   UNL     1       2.075   7.933  18.880  0.00  0.00    +0.000 C 
ATOM      4  N   UNL     1       1.515   8.735  17.900  0.00  0.00    +0.000 N 
ATOM      5  H   UNL     1       1.492   8.353  16.954  0.00  0.00    +0.000 HD
BRANCH   4   6
ATOM      6  C   UNL     1       0.860   9.933  18.118  0.00  0.00    +0.000 A 
ATOM      7  C   UNL     1      -0.462  10.056  18.324  0.00  0.00    +0.000 A 
ATOM      8  C   UNL     1      -1.117  11.331  18.533  0.00  0.00    +0.000 A 
ATOM      9  C   UNL     1      -0.362  12.441  18.574  0.00  0.00    +0.000 A 
ATOM     10  N   UNL     1       0.999  12.366  18.404  0.00  0.00    +0.000 N 
ATOM     11  C   UNL     1       1.689  11.196  18.159  0.00  0.00    +0.000 A 
ATOM     12  O   UNL     1       2.903  11.173  17.973  0.00  0.00    +0.000 OA
ATOM     13  H   UNL     1       1.556  13.213  18.417  0.00  0.00    +0.000 HD
BRANCH   8  14
ATOM     14  C   UNL     1      -2.577  11.441  18.665  0.00  0.00    +0.000 A 
ATOM     15  C   UNL     1      -3.129  12.315  19.604  0.00  0.00    +0.000 A 
ATOM     16  C   UNL     1      -4.507  12.408  19.681  0.00  0.00    +0.000 A 
ATOM     17  N   UNL     1      -5.351  11.704  18.895  0.00  0.00    +0.000 NA
ATOM     18  C   UNL     1      -4.791  10.882  17.982  0.00  0.00    +0.000 A 
ATOM     19  C   UNL     1      -3.425  10.719  17.826  0.00  0.00    +0.000 A 
ENDBRANCH   8  14
ENDBRANCH   4   6
ENDBRANCH   1   3
BRANCH   1  20
ATOM     20  N   UNL     1       3.932   6.304  19.385  0.00  0.00    +0.000 NA
ATOM     21  H   UNL     1       3.474   5.690  20.065  0.00  0.00    +0.000 HD
BRANCH  20  22
ATOM     22  C   UNL     1       4.973   5.541  18.686  0.00  0.00    +0.000 C 
BRANCH  22  23
ATOM     23  C   UNL     1       6.006   6.421  17.963  0.00  0.00    +0.000 C 
ATOM     24  C   UNL     1       5.539   6.915  16.583  0.00  0.00    +0.000 C 
ATOM     25  C   UNL     1       5.314   5.806  15.565  0.00  0.00    +0.000 C 
ATOM     26  S   UNL     1       6.773   4.813  15.316  0.00  0.00    +0.000 S 
ATOM     27  O   UNL     1       6.368   3.577  14.676  0.00  0.00    +0.000 OA
ATOM     28  O   UNL     1       7.800   5.653  14.729  0.00  0.00    +0.000 OA
ATOM     29  C   UNL     1       7.277   4.418  16.978  0.00  0.00    +0.000 C 
ATOM     30  C   UNL     1       7.347   5.661  17.855  0.00  0.00    +0.000 C 
ENDBRANCH  22  23
ENDBRANCH  20  22
ENDBRANCH   1  20
BRANCH   1  31
ATOM     31  C   UNL     1       1.953   5.622  17.883  0.00  0.00    +0.000 C 
BRANCH  31  32
ATOM     32  C   UNL     1       1.768   4.422  18.792  0.00  0.00    +0.000 A 
ATOM     33  C   UNL     1       2.076   3.128  18.350  0.00  0.00    +0.000 A 
ATOM     34  C   UNL     1       1.969   2.034  19.211  0.00  0.00    +0.000 A 
ATOM     35  C   UNL     1       1.560   2.219  20.529  0.00  0.00    +0.000 A 
ATOM     36  C   UNL     1       1.249   3.498  20.984  0.00  0.00    +0.000 A 
ATOM     37  C   UNL     1       1.352   4.592  20.122  0.00  0.00    +0.000 A 
ENDBRANCH  31  32
ENDBRANCH   1  31
TORSDOF 8
ENDMDL
