MODEL 1
REMARK VINA RESULT:      -9.3      0.000      0.000
REMARK  Name = 
REMARK  4 active torsions:
REMARK  status: ('A' for Active; 'I' for Inactive)
REMARK    1  A    between atoms: C_1  and  C_2
REMARK    2  A    between atoms: C_4  and  C_5
REMARK    3  A    between atoms: C_4  and  C_11
REMARK    4  A    between atoms: C_15  and  C_16
REMARK                            x       y       z     vdW  Elec       q    Type
REMARK                         _______ _______ _______ _____ _____    ______ ____
ROOT
ATOM      1  C   UNL     1       0.696   2.406  19.020  0.00  0.00    +0.000 C 
ATOM      2  C   UNL     1       1.636   3.533  19.249  0.00  0.00    +0.000 C 
ATOM      3  N   UNL     1       2.023   4.377  18.354  0.00  0.00    +0.000 NA
ATOM      4  C   UNL     1       2.987   5.258  19.100  0.00  0.00    +0.000 C 
ATOM      5  N   UNL     1       2.961   4.853  20.549  0.00  0.00    +0.000 NA
ATOM      6  C   UNL     1       2.207   3.812  20.590  0.00  0.00    +0.000 C 
ATOM      7  N   UNL     1       1.960   3.089  21.711  0.00  0.00    +0.000 N 
ATOM      8  H   UNL     1       2.231   3.546  22.573  0.00  0.00    +0.000 HD
ATOM      9  H   UNL     1       1.124   2.519  21.769  0.00  0.00    +0.000 HD
ENDROOT
BRANCH   4  10
ATOM     10  C   UNL     1       4.433   5.033  18.598  0.00  0.00    +0.000 A 
ATOM     11  C   UNL     1       5.552   5.469  19.333  0.00  0.00    +0.000 A 
ATOM     12  C   UNL     1       6.838   5.409  18.791  0.00  0.00    +0.000 A 
ATOM     13  C   UNL     1       7.032   4.896  17.511  0.00  0.00    +0.000 A 
ATOM     14  C   UNL     1       5.945   4.416  16.784  0.00  0.00    +0.000 A 
ATOM     15  C   UNL     1       4.658   4.480  17.325  0.00  0.00    +0.000 A 
ENDBRANCH   4  10
BRANCH   4  16
ATOM     16  C   UNL     1       2.527   6.717  18.925  0.00  0.00    +0.000 A 
ATOM     17  C   UNL     1       2.804   7.450  17.763  0.00  0.00    +0.000 A 
ATOM     18  C   UNL     1       2.401   8.779  17.644  0.00  0.00    +0.000 A 
ATOM     19  C   UNL     1       1.709   9.398  18.688  0.00  0.00    +0.000 A 
ATOM     20  C   UNL     1       1.418   8.712  19.880  0.00  0.00    +0.000 A 
ATOM     21  C   UNL     1       1.844   7.371  19.971  0.00  0.00    +0.000 A 
BRANCH  20  22
ATOM     22  C   UNL     1       0.707   9.370  20.999  0.00  0.00    +0.000 A 
ATOM     23  C   UNL     1      -0.314  10.309  20.786  0.00  0.00    +0.000 A 
ATOM     24  C   UNL     1      -0.978  10.899  21.861  0.00  0.00    +0.000 A 
ATOM     25  C   UNL     1      -0.598  10.544  23.142  0.00  0.00    +0.000 A 
ATOM     26  N   UNL     1       0.377   9.655  23.410  0.00  0.00    +0.000 NA
ATOM     27  C   UNL     1       0.994   9.092  22.340  0.00  0.00    +0.000 A 
ENDBRANCH  20  22
ENDBRANCH   4  16
TORSDOF 3
ENDMDL
MODEL 2
REMARK VINA RESULT:      -9.2      2.239      7.175
REMARK  Name = 
REMARK  4 active torsions:
REMARK  status: ('A' for Active; 'I' for Inactive)
REMARK    1  A    between atoms: C_1  and  C_2
REMARK    2  A    between atoms: C_4  and  C_5
REMARK    3  A    between atoms: C_4  and  C_11
REMARK    4  A    between atoms: C_15  and  C_16
REMARK                            x       y       z     vdW  Elec       q    Type
REMARK                         _______ _______ _______ _____ _____    ______ ____
ROOT
ATOM      1  C   UNL     1       1.943   2.870  21.382  0.00  0.00    +0.000 C 
ATOM      2  C   UNL     1       2.379   3.742  20.260  0.00  0.00    +0.000 C 
ATOM      3  N   UNL     1       3.285   4.656  20.333  0.00  0.00    +0.000 NA
ATOM      4  C   UNL     1       3.292   5.249  18.951  0.00  0.00    +0.000 C 
ATOM      5  N   UNL     1       2.359   4.439  18.092  0.00  0.00    +0.000 NA
ATOM      6  C   UNL     1       1.804   3.606  18.899  0.00  0.00    +0.000 C 
ATOM      7  N   UNL     1       0.842   2.719  18.540  0.00  0.00    +0.000 N 
ATOM      8  H   UNL     1       0.736   2.595  17.542  0.00  0.00    +0.000 HD
ATOM      9  H   UNL     1       0.694   1.885  19.097  0.00  0.00    +0.000 HD
ENDROOT
BRANCH   4  10
ATOM     10  C   UNL     1       2.738   6.694  18.974  0.00  0.00    +0.000 A 
ATOM     11  C   UNL     1       2.083   7.220  20.103  0.00  0.00    +0.000 A 
ATOM     12  C   UNL     1       1.443   8.462  20.050  0.00  0.00    +0.000 A 
ATOM     13  C   UNL     1       1.461   9.206  18.874  0.00  0.00    +0.000 A 
ATOM     14  C   UNL     1       2.143   8.725  17.759  0.00  0.00    +0.000 A 
ATOM     15  C   UNL     1       2.780   7.482  17.810  0.00  0.00    +0.000 A 
ENDBRANCH   4  10
BRANCH   4  16
ATOM     16  C   UNL     1       4.735   5.184  18.414  0.00  0.00    +0.000 A 
ATOM     17  C   UNL     1       5.846   5.394  19.242  0.00  0.00    +0.000 A 
ATOM     18  C   UNL     1       7.139   5.359  18.724  0.00  0.00    +0.000 A 
ATOM     19  C   UNL     1       7.342   5.108  17.365  0.00  0.00    +0.000 A 
ATOM     20  C   UNL     1       6.262   4.904  16.489  0.00  0.00    +0.000 A 
ATOM     21  C   UNL     1       4.967   4.952  17.043  0.00  0.00    +0.000 A 
BRANCH  20  22
ATOM     22  C   UNL     1       6.471   4.663  15.044  0.00  0.00    +0.000 A 
ATOM     23  C   UNL     1       5.696   3.744  14.320  0.00  0.00    +0.000 A 
ATOM     24  C   UNL     1       5.904   3.550  12.955  0.00  0.00    +0.000 A 
ATOM     25  C   UNL     1       6.902   4.279  12.334  0.00  0.00    +0.000 A 
ATOM     26  N   UNL     1       7.682   5.170  12.975  0.00  0.00    +0.000 NA
ATOM     27  C   UNL     1       7.443   5.341  14.300  0.00  0.00    +0.000 A 
ENDBRANCH  20  22
ENDBRANCH   4  16
TORSDOF 3
ENDMDL
MODEL 3
REMARK VINA RESULT:      -9.2      1.347      3.601
REMARK  Name = 
REMARK  4 active torsions:
REMARK  status: ('A' for Active; 'I' for Inactive)
REMARK    1  A    between atoms: C_1  and  C_2
REMARK    2  A    between atoms: C_4  and  C_5
REMARK    3  A    between atoms: C_4  and  C_11
REMARK    4  A    between atoms: C_15  and  C_16
REMARK                            x       y       z     vdW  Elec       q    Type
REMARK                         _______ _______ _______ _____ _____    ______ ____
ROOT
ATOM      1  C   UNL     1       6.920   5.153  18.757  0.00  0.00    +0.000 C 
ATOM      2  C   UNL     1       5.450   5.302  18.602  0.00  0.00    +0.000 C 
ATOM      3  N   UNL     1       4.662   5.870  19.451  0.00  0.00    +0.000 NA
ATOM      4  C   UNL     1       3.302   5.704  18.829  0.00  0.00    +0.000 C 
ATOM      5  N   UNL     1       3.486   5.088  17.468  0.00  0.00    +0.000 NA
ATOM      6  C   UNL     1       4.741   4.817  17.392  0.00  0.00    +0.000 C 
ATOM      7  N   UNL     1       5.326   4.192  16.339  0.00  0.00    +0.000 N 
ATOM      8  H   UNL     1       4.752   4.144  15.507  0.00  0.00    +0.000 HD
ATOM      9  H   UNL     1       6.319   4.311  16.173  0.00  0.00    +0.000 HD
ENDROOT
BRANCH   4  10
ATOM     10  C   UNL     1       2.441   4.718  19.653  0.00  0.00    +0.000 A 
ATOM     11  C   UNL     1       2.669   4.500  21.025  0.00  0.00    +0.000 A 
ATOM     12  C   UNL     1       1.995   3.488  21.714  0.00  0.00    +0.000 A 
ATOM     13  C   UNL     1       1.071   2.687  21.050  0.00  0.00    +0.000 A 
ATOM     14  C   UNL     1       0.797   2.915  19.703  0.00  0.00    +0.000 A 
ATOM     15  C   UNL     1       1.472   3.925  19.013  0.00  0.00    +0.000 A 
ENDBRANCH   4  10
BRANCH   4  16
ATOM     16  C   UNL     1       2.657   7.098  18.722  0.00  0.00    +0.000 A 
ATOM     17  C   UNL     1       2.800   7.898  17.580  0.00  0.00    +0.000 A 
ATOM     18  C   UNL     1       2.230   9.169  17.523  0.00  0.00    +0.000 A 
ATOM     19  C   UNL     1       1.502   9.660  18.610  0.00  0.00    +0.000 A 
ATOM     20  C   UNL     1       1.341   8.905  19.784  0.00  0.00    +0.000 A 
ATOM     21  C   UNL     1       1.934   7.626  19.813  0.00  0.00    +0.000 A 
BRANCH  20  22
ATOM     22  C   UNL     1       0.593   9.430  20.947  0.00  0.00    +0.000 A 
ATOM     23  C   UNL     1       0.751   8.903  22.238  0.00  0.00    +0.000 A 
ATOM     24  C   UNL     1       0.045   9.431  23.319  0.00  0.00    +0.000 A 
ATOM     25  C   UNL     1      -0.824  10.481  23.084  0.00  0.00    +0.000 A 
ATOM     26  N   UNL     1      -1.023  11.025  21.869  0.00  0.00    +0.000 NA
ATOM     27  C   UNL     1      -0.311  10.493  20.843  0.00  0.00    +0.000 A 
ENDBRANCH  20  22
ENDBRANCH   4  16
TORSDOF 3
ENDMDL
MODEL 4
REMARK VINA RESULT:      -9.2      0.625      1.371
REMARK  Name = 
REMARK  4 active torsions:
REMARK  status: ('A' for Active; 'I' for Inactive)
REMARK    1  A    between atoms: C_1  and  C_2
REMARK    2  A    between atoms: C_4  and  C_5
REMARK    3  A    between atoms: C_4  and  C_11
REMARK    4  A    between atoms: C_15  and  C_16
REMARK                            x       y       z     vdW  Elec       q    Type
REMARK                         _______ _______ _______ _____ _____    ______ ____
ROOT
ATOM      1  C   UNL     1       0.788   2.578  19.084  0.00  0.00    +0.000 C 
ATOM      2  C   UNL     1       1.706   3.734  19.251  0.00  0.00    +0.000 C 
ATOM      3  N   UNL     1       2.008   4.588  18.334  0.00  0.00    +0.000 NA
ATOM      4  C   UNL     1       2.991   5.500  19.016  0.00  0.00    +0.000 C 
ATOM      5  N   UNL     1       3.073   5.095  20.463  0.00  0.00    +0.000 NA
ATOM      6  C   UNL     1       2.356   4.031  20.552  0.00  0.00    +0.000 C 
ATOM      7  N   UNL     1       2.206   3.302  21.687  0.00  0.00    +0.000 N 
ATOM      8  H   UNL     1       2.519   3.767  22.529  0.00  0.00    +0.000 HD
ATOM      9  H   UNL     1       1.393   2.706  21.798  0.00  0.00    +0.000 HD
ENDROOT
BRANCH   4  10
ATOM     10  C   UNL     1       4.407   5.319  18.420  0.00  0.00    +0.000 A 
ATOM     11  C   UNL     1       4.611   4.765  17.142  0.00  0.00    +0.000 A 
ATOM     12  C   UNL     1       5.896   4.454  16.689  0.00  0.00    +0.000 A 
ATOM     13  C   UNL     1       7.001   4.707  17.497  0.00  0.00    +0.000 A 
ATOM     14  C   UNL     1       6.826   5.297  18.746  0.00  0.00    +0.000 A 
ATOM     15  C   UNL     1       5.541   5.605  19.202  0.00  0.00    +0.000 A 
ENDBRANCH   4  10
BRANCH   4  16
ATOM     16  C   UNL     1       2.476   6.944  18.874  0.00  0.00    +0.000 A 
ATOM     17  C   UNL     1       2.734   7.717  17.734  0.00  0.00    +0.000 A 
ATOM     18  C   UNL     1       2.280   9.031  17.645  0.00  0.00    +0.000 A 
ATOM     19  C   UNL     1       1.556   9.595  18.698  0.00  0.00    +0.000 A 
ATOM     20  C   UNL     1       1.282   8.869  19.869  0.00  0.00    +0.000 A 
ATOM     21  C   UNL     1       1.759   7.544  19.931  0.00  0.00    +0.000 A 
BRANCH  20  22
ATOM     22  C   UNL     1       0.537   9.470  20.998  0.00  0.00    +0.000 A 
ATOM     23  C   UNL     1       0.593   8.942  22.297  0.00  0.00    +0.000 A 
ATOM     24  C   UNL     1      -0.106   9.541  23.344  0.00  0.00    +0.000 A 
ATOM     25  C   UNL     1      -0.868  10.662  23.068  0.00  0.00    +0.000 A 
ATOM     26  N   UNL     1      -0.967  11.210  21.842  0.00  0.00    +0.000 NA
ATOM     27  C   UNL     1      -0.264  10.608  20.849  0.00  0.00    +0.000 A 
ENDBRANCH  20  22
ENDBRANCH   4  16
TORSDOF 3
ENDMDL
MODEL 5
REMARK VINA RESULT:      -9.0      1.280      3.640
REMARK  Name = 
REMARK  4 active torsions:
REMARK  status: ('A' for Active; 'I' for Inactive)
REMARK    1  A    between atoms: C_1  and  C_2
REMARK    2  A    between atoms: C_4  and  C_5
REMARK    3  A    between atoms: C_4  and  C_11
REMARK    4  A    between atoms: C_15  and  C_16
REMARK                            x       y       z     vdW  Elec       q    Type
REMARK                         _______ _______ _______ _____ _____    ______ ____
ROOT
ATOM      1  C   UNL     1       7.103   5.200  18.566  0.00  0.00    +0.000 C 
ATOM      2  C   UNL     1       5.626   5.296  18.431  0.00  0.00    +0.000 C 
ATOM      3  N   UNL     1       4.828   5.812  19.303  0.00  0.00    +0.000 NA
ATOM      4  C   UNL     1       3.468   5.609  18.692  0.00  0.00    +0.000 C 
ATOM      5  N   UNL     1       3.658   5.034  17.314  0.00  0.00    +0.000 NA
ATOM      6  C   UNL     1       4.922   4.814  17.217  0.00  0.00    +0.000 C 
ATOM      7  N   UNL     1       5.517   4.238  16.143  0.00  0.00    +0.000 N 
ATOM      8  H   UNL     1       4.935   4.188  15.317  0.00  0.00    +0.000 HD
ATOM      9  H   UNL     1       6.503   4.399  15.968  0.00  0.00    +0.000 HD
ENDROOT
BRANCH   4  10
ATOM     10  C   UNL     1       2.656   4.571  19.502  0.00  0.00    +0.000 A 
ATOM     11  C   UNL     1       1.530   3.923  18.961  0.00  0.00    +0.000 A 
ATOM     12  C   UNL     1       0.711   3.117  19.757  0.00  0.00    +0.000 A 
ATOM     13  C   UNL     1       1.012   2.932  21.104  0.00  0.00    +0.000 A 
ATOM     14  C   UNL     1       2.147   3.528  21.649  0.00  0.00    +0.000 A 
ATOM     15  C   UNL     1       2.964   4.336  20.854  0.00  0.00    +0.000 A 
ENDBRANCH   4  10
BRANCH   4  16
ATOM     16  C   UNL     1       2.769   6.980  18.628  0.00  0.00    +0.000 A 
ATOM     17  C   UNL     1       2.798   7.776  17.475  0.00  0.00    +0.000 A 
ATOM     18  C   UNL     1       2.182   9.026  17.455  0.00  0.00    +0.000 A 
ATOM     19  C   UNL     1       1.521   9.500  18.591  0.00  0.00    +0.000 A 
ATOM     20  C   UNL     1       1.475   8.748  19.777  0.00  0.00    +0.000 A 
ATOM     21  C   UNL     1       2.113   7.491  19.767  0.00  0.00    +0.000 A 
BRANCH  20  22
ATOM     22  C   UNL     1       0.799   9.256  20.991  0.00  0.00    +0.000 A 
ATOM     23  C   UNL     1      -0.374  10.025  20.927  0.00  0.00    +0.000 A 
ATOM     24  C   UNL     1      -0.999  10.475  22.090  0.00  0.00    +0.000 A 
ATOM     25  C   UNL     1      -0.428  10.155  23.308  0.00  0.00    +0.000 A 
ATOM     26  N   UNL     1       0.699   9.428  23.434  0.00  0.00    +0.000 NA
ATOM     27  C   UNL     1       1.274   8.997  22.282  0.00  0.00    +0.000 A 
ENDBRANCH  20  22
ENDBRANCH   4  16
TORSDOF 3
ENDMDL
MODEL 6
REMARK VINA RESULT:      -8.9      2.177      7.245
REMARK  Name = 
REMARK  4 active torsions:
REMARK  status: ('A' for Active; 'I' for Inactive)
REMARK    1  A    between atoms: C_1  and  C_2
REMARK    2  A    between atoms: C_4  and  C_5
REMARK    3  A    between atoms: C_4  and  C_11
REMARK    4  A    between atoms: C_15  and  C_16
REMARK                            x       y       z     vdW  Elec       q    Type
REMARK                         _______ _______ _______ _____ _____    ______ ____
ROOT
ATOM      1  C   UNL     1       2.172   2.542  21.370  0.00  0.00    +0.000 C 
ATOM      2  C   UNL     1       2.522   3.423  20.226  0.00  0.00    +0.000 C 
ATOM      3  N   UNL     1       3.349   4.411  20.268  0.00  0.00    +0.000 NA
ATOM      4  C   UNL     1       3.293   4.973  18.874  0.00  0.00    +0.000 C 
ATOM      5  N   UNL     1       2.422   4.068  18.043  0.00  0.00    +0.000 NA
ATOM      6  C   UNL     1       1.947   3.210  18.874  0.00  0.00    +0.000 C 
ATOM      7  N   UNL     1       1.059   2.237  18.546  0.00  0.00    +0.000 N 
ATOM      8  H   UNL     1       0.954   2.083  17.551  0.00  0.00    +0.000 HD
ATOM      9  H   UNL     1       0.987   1.406  19.121  0.00  0.00    +0.000 HD
ENDROOT
BRANCH   4  10
ATOM     10  C   UNL     1       2.620   6.365  18.873  0.00  0.00    +0.000 A 
ATOM     11  C   UNL     1       2.634   7.198  17.738  0.00  0.00    +0.000 A 
ATOM     12  C   UNL     1       2.170   8.514  17.805  0.00  0.00    +0.000 A 
ATOM     13  C   UNL     1       1.670   9.018  19.002  0.00  0.00    +0.000 A 
ATOM     14  C   UNL     1       1.604   8.197  20.126  0.00  0.00    +0.000 A 
ATOM     15  C   UNL     1       2.071   6.882  20.061  0.00  0.00    +0.000 A 
ENDBRANCH   4  10
BRANCH   4  16
ATOM     16  C   UNL     1       4.730   5.016  18.322  0.00  0.00    +0.000 A 
ATOM     17  C   UNL     1       5.830   5.320  19.136  0.00  0.00    +0.000 A 
ATOM     18  C   UNL     1       7.116   5.381  18.604  0.00  0.00    +0.000 A 
ATOM     19  C   UNL     1       7.325   5.136  17.244  0.00  0.00    +0.000 A 
ATOM     20  C   UNL     1       6.255   4.841  16.382  0.00  0.00    +0.000 A 
ATOM     21  C   UNL     1       4.966   4.791  16.950  0.00  0.00    +0.000 A 
BRANCH  20  22
ATOM     22  C   UNL     1       6.467   4.604  14.937  0.00  0.00    +0.000 A 
ATOM     23  C   UNL     1       7.478   5.255  14.213  0.00  0.00    +0.000 A 
ATOM     24  C   UNL     1       7.666   4.998  12.856  0.00  0.00    +0.000 A 
ATOM     25  C   UNL     1       6.822   4.094  12.236  0.00  0.00    +0.000 A 
ATOM     26  N   UNL     1       5.831   3.443  12.875  0.00  0.00    +0.000 NA
ATOM     27  C   UNL     1       5.685   3.709  14.198  0.00  0.00    +0.000 A 
ENDBRANCH  20  22
ENDBRANCH   4  16
TORSDOF 3
ENDMDL
MODEL 7
REMARK VINA RESULT:      -8.1      2.643      7.480
REMARK  Name = 
REMARK  4 active torsions:
REMARK  status: ('A' for Active; 'I' for Inactive)
REMARK    1  A    between atoms: C_1  and  C_2
REMARK    2  A    between atoms: C_4  and  C_5
REMARK    3  A    between atoms: C_4  and  C_11
REMARK    4  A    between atoms: C_15  and  C_16
REMARK                            x       y       z     vdW  Elec       q    Type
REMARK                         _______ _______ _______ _____ _____    ______ ____
ROOT
ATOM      1  C   UNL     1       1.419   8.495  17.877  0.00  0.00    +0.000 C 
ATOM      2  C   UNL     1       2.223   7.316  18.289  0.00  0.00    +0.000 C 
ATOM      3  N   UNL     1       2.707   6.425  17.492  0.00  0.00    +0.000 NA
ATOM      4  C   UNL     1       3.381   5.454  18.422  0.00  0.00    +0.000 C 
ATOM      5  N   UNL     1       3.305   6.017  19.816  0.00  0.00    +0.000 NA
ATOM      6  C   UNL     1       2.578   7.073  19.709  0.00  0.00    +0.000 C 
ATOM      7  N   UNL     1       2.209   7.857  20.754  0.00  0.00    +0.000 N 
ATOM      8  H   UNL     1       2.724   7.688  21.608  0.00  0.00    +0.000 HD
ATOM      9  H   UNL     1       1.948   8.822  20.590  0.00  0.00    +0.000 HD
ENDROOT
BRANCH   4  10
ATOM     10  C   UNL     1       2.624   4.105  18.444  0.00  0.00    +0.000 A 
ATOM     11  C   UNL     1       1.245   4.029  18.713  0.00  0.00    +0.000 A 
ATOM     12  C   UNL     1       0.613   2.796  18.894  0.00  0.00    +0.000 A 
ATOM     13  C   UNL     1       1.344   1.616  18.793  0.00  0.00    +0.000 A 
ATOM     14  C   UNL     1       2.701   1.665  18.482  0.00  0.00    +0.000 A 
ATOM     15  C   UNL     1       3.334   2.898  18.304  0.00  0.00    +0.000 A 
ENDBRANCH   4  10
BRANCH   4  16
ATOM     16  C   UNL     1       4.844   5.299  17.967  0.00  0.00    +0.000 A 
ATOM     17  C   UNL     1       5.916   5.404  18.863  0.00  0.00    +0.000 A 
ATOM     18  C   UNL     1       7.232   5.288  18.418  0.00  0.00    +0.000 A 
ATOM     19  C   UNL     1       7.497   5.062  17.065  0.00  0.00    +0.000 A 
ATOM     20  C   UNL     1       6.458   4.963  16.123  0.00  0.00    +0.000 A 
ATOM     21  C   UNL     1       5.139   5.089  16.604  0.00  0.00    +0.000 A 
BRANCH  20  22
ATOM     22  C   UNL     1       6.734   4.748  14.686  0.00  0.00    +0.000 A 
ATOM     23  C   UNL     1       6.068   3.767  13.935  0.00  0.00    +0.000 A 
ATOM     24  C   UNL     1       6.337   3.600  12.577  0.00  0.00    +0.000 A 
ATOM     25  C   UNL     1       7.286   4.417  11.990  0.00  0.00    +0.000 A 
ATOM     26  N   UNL     1       7.963   5.370  12.659  0.00  0.00    +0.000 NA
ATOM     27  C   UNL     1       7.667   5.513  13.976  0.00  0.00    +0.000 A 
ENDBRANCH  20  22
ENDBRANCH   4  16
TORSDOF 3
ENDMDL
MODEL 8
REMARK VINA RESULT:      -8.1      1.147      1.497
REMARK  Name = 
REMARK  4 active torsions:
REMARK  status: ('A' for Active; 'I' for Inactive)
REMARK    1  A    between atoms: C_1  and  C_2
REMARK    2  A    between atoms: C_4  and  C_5
REMARK    3  A    between atoms: C_4  and  C_11
REMARK    4  A    between atoms: C_15  and  C_16
REMARK                            x       y       z     vdW  Elec       q    Type
REMARK                         _______ _______ _______ _____ _____    ______ ____
ROOT
ATOM      1  C   UNL     1       2.023   2.554  17.855  0.00  0.00    +0.000 C 
ATOM      2  C   UNL     1       2.590   3.813  18.403  0.00  0.00    +0.000 C 
ATOM      3  N   UNL     1       2.896   4.859  17.712  0.00  0.00    +0.000 NA
ATOM      4  C   UNL     1       3.461   5.802  18.739  0.00  0.00    +0.000 C 
ATOM      5  N   UNL     1       3.293   5.169  20.094  0.00  0.00    +0.000 NA
ATOM      6  C   UNL     1       2.835   3.991  19.856  0.00  0.00    +0.000 C 
ATOM      7  N   UNL     1       2.594   3.056  20.810  0.00  0.00    +0.000 N 
ATOM      8  H   UNL     1       2.589   3.414  21.757  0.00  0.00    +0.000 HD
ATOM      9  H   UNL     1       1.934   2.309  20.627  0.00  0.00    +0.000 HD
ENDROOT
BRANCH   4  10
ATOM     10  C   UNL     1       4.980   5.999  18.522  0.00  0.00    +0.000 A 
ATOM     11  C   UNL     1       5.492   6.622  17.368  0.00  0.00    +0.000 A 
ATOM     12  C   UNL     1       6.865   6.642  17.110  0.00  0.00    +0.000 A 
ATOM     13  C   UNL     1       7.752   6.054  18.007  0.00  0.00    +0.000 A 
ATOM     14  C   UNL     1       7.271   5.472  19.177  0.00  0.00    +0.000 A 
ATOM     15  C   UNL     1       5.898   5.449  19.435  0.00  0.00    +0.000 A 
ENDBRANCH   4  10
BRANCH   4  16
ATOM     16  C   UNL     1       2.679   7.126  18.646  0.00  0.00    +0.000 A 
ATOM     17  C   UNL     1       2.641   7.886  17.469  0.00  0.00    +0.000 A 
ATOM     18  C   UNL     1       1.951   9.096  17.424  0.00  0.00    +0.000 A 
ATOM     19  C   UNL     1       1.281   9.564  18.557  0.00  0.00    +0.000 A 
ATOM     20  C   UNL     1       1.300   8.847  19.766  0.00  0.00    +0.000 A 
ATOM     21  C   UNL     1       2.011   7.631  19.781  0.00  0.00    +0.000 A 
BRANCH  20  22
ATOM     22  C   UNL     1       0.613   9.351  20.975  0.00  0.00    +0.000 A 
ATOM     23  C   UNL     1      -0.082   8.501  21.850  0.00  0.00    +0.000 A 
ATOM     24  C   UNL     1      -0.704   9.003  22.992  0.00  0.00    +0.000 A 
ATOM     25  C   UNL     1      -0.630  10.362  23.237  0.00  0.00    +0.000 A 
ATOM     26  N   UNL     1       0.016  11.228  22.433  0.00  0.00    +0.000 NA
ATOM     27  C   UNL     1       0.620  10.703  21.337  0.00  0.00    +0.000 A 
ENDBRANCH  20  22
ENDBRANCH   4  16
TORSDOF 3
ENDMDL
MODEL 9
REMARK VINA RESULT:      -8.1      2.470      7.445
REMARK  Name = 
REMARK  4 active torsions:
REMARK  status: ('A' for Active; 'I' for Inactive)
REMARK    1  A    between atoms: C_1  and  C_2
REMARK    2  A    between atoms: C_4  and  C_5
REMARK    3  A    between atoms: C_4  and  C_11
REMARK    4  A    between atoms: C_15  and  C_16
REMARK                            x       y       z     vdW  Elec       q    Type
REMARK                         _______ _______ _______ _____ _____    ______ ____
ROOT
ATOM      1  C   UNL     1       1.494   8.700  17.994  0.00  0.00    +0.000 C 
ATOM      2  C   UNL     1       2.226   7.469  18.389  0.00  0.00    +0.000 C 
ATOM      3  N   UNL     1       2.669   6.570  17.577  0.00  0.00    +0.000 NA
ATOM      4  C   UNL     1       3.276   5.543  18.493  0.00  0.00    +0.000 C 
ATOM      5  N   UNL     1       3.215   6.078  19.898  0.00  0.00    +0.000 NA
ATOM      6  C   UNL     1       2.549   7.175  19.807  0.00  0.00    +0.000 C 
ATOM      7  N   UNL     1       2.212   7.955  20.865  0.00  0.00    +0.000 N 
ATOM      8  H   UNL     1       2.706   7.739  21.721  0.00  0.00    +0.000 HD
ATOM      9  H   UNL     1       2.007   8.938  20.720  0.00  0.00    +0.000 HD
ENDROOT
BRANCH   4  10
ATOM     10  C   UNL     1       2.445   4.238  18.475  0.00  0.00    +0.000 A 
ATOM     11  C   UNL     1       1.309   4.068  19.288  0.00  0.00    +0.000 A 
ATOM     12  C   UNL     1       0.671   2.829  19.385  0.00  0.00    +0.000 A 
ATOM     13  C   UNL     1       1.146   1.741  18.658  0.00  0.00    +0.000 A 
ATOM     14  C   UNL     1       2.241   1.898  17.812  0.00  0.00    +0.000 A 
ATOM     15  C   UNL     1       2.882   3.136  17.717  0.00  0.00    +0.000 A 
ENDBRANCH   4  10
BRANCH   4  16
ATOM     16  C   UNL     1       4.733   5.316  18.050  0.00  0.00    +0.000 A 
ATOM     17  C   UNL     1       5.800   5.353  18.958  0.00  0.00    +0.000 A 
ATOM     18  C   UNL     1       7.113   5.174  18.525  0.00  0.00    +0.000 A 
ATOM     19  C   UNL     1       7.380   4.950  17.172  0.00  0.00    +0.000 A 
ATOM     20  C   UNL     1       6.348   4.916  16.218  0.00  0.00    +0.000 A 
ATOM     21  C   UNL     1       5.032   5.107  16.687  0.00  0.00    +0.000 A 
BRANCH  20  22
ATOM     22  C   UNL     1       6.627   4.704  14.781  0.00  0.00    +0.000 A 
ATOM     23  C   UNL     1       7.624   5.419  14.099  0.00  0.00    +0.000 A 
ATOM     24  C   UNL     1       7.877   5.184  12.748  0.00  0.00    +0.000 A 
ATOM     25  C   UNL     1       7.112   4.236  12.093  0.00  0.00    +0.000 A 
ATOM     26  N   UNL     1       6.139   3.522  12.691  0.00  0.00    +0.000 NA
ATOM     27  C   UNL     1       5.929   3.769  14.009  0.00  0.00    +0.000 A 
ENDBRANCH  20  22
ENDBRANCH   4  16
TORSDOF 3
ENDMDL
