MODEL 1
REMARK VINA RESULT:      -8.4      0.000      0.000
REMARK  Name = 
REMARK  6 active torsions:
REMARK  status: ('A' for Active; 'I' for Inactive)
REMARK    1  A    between atoms: C_1  and  N_2
REMARK    2  A    between atoms: N_7  and  C_8
REMARK    3  A    between atoms: C_8  and  C_9
REMARK    4  A    between atoms: C_12  and  C_13
REMARK    5  A    between atoms: C_14  and  C_15
REMARK    6  A    between atoms: N_17  and  O_18
REMARK                            x       y       z     vdW  Elec       q    Type
REMARK                         _______ _______ _______ _____ _____    ______ ____
ROOT
ATOM      1  C   UNL     1      -0.513  10.522  23.079  0.00  0.00    +0.000 C 
ATOM      2  N   UNL     1       0.246   9.850  22.059  0.00  0.00    +0.000 N 
ATOM      3  C   UNL     1       1.335   9.048  22.260  0.00  0.00    +0.000 A 
ATOM      4  N   UNL     1       1.812   8.583  21.125  0.00  0.00    +0.000 NA
ATOM      5  C   UNL     1       0.979   9.103  20.146  0.00  0.00    +0.000 A 
ATOM      6  C   UNL     1       0.945   8.980  18.746  0.00  0.00    +0.000 A 
ATOM      7  N   UNL     1       1.841   8.257  17.983  0.00  0.00    +0.000 N 
ATOM      8  N   UNL     1      -0.057   9.629  18.089  0.00  0.00    +0.000 NA
ATOM      9  C   UNL     1      -0.977  10.372  18.753  0.00  0.00    +0.000 A 
ATOM     10  N   UNL     1      -1.991  10.960  18.030  0.00  0.00    +0.000 N 
ATOM     11  C   UNL     1      -2.992  11.791  18.678  0.00  0.00    +0.000 C 
ATOM     12  C   UNL     1      -4.378  11.296  18.265  0.00  0.00    +0.000 C 
ATOM     13  C   UNL     1      -4.521  11.254  16.743  0.00  0.00    +0.000 C 
ATOM     14  C   UNL     1      -3.381  10.469  16.093  0.00  0.00    +0.000 C 
ATOM     15  C   UNL     1      -2.004  10.938  16.575  0.00  0.00    +0.000 C 
ATOM     16  N   UNL     1      -0.985  10.543  20.089  0.00  0.00    +0.000 NA
ATOM     17  C   UNL     1       0.000   9.893  20.716  0.00  0.00    +0.000 A 
ATOM     18  H   UNL     1       1.631   8.173  16.999  0.00  0.00    +0.000 HD
ENDROOT
BRANCH   7  19
ATOM     19  C   UNL     1       2.909   7.498  18.588  0.00  0.00    +0.000 C 
BRANCH  19  20
ATOM     20  C   UNL     1       3.624   6.661  17.552  0.00  0.00    +0.000 A 
ATOM     21  C   UNL     1       4.401   7.261  16.551  0.00  0.00    +0.000 A 
ATOM     22  C   UNL     1       5.102   6.478  15.625  0.00  0.00    +0.000 A 
ATOM     23  C   UNL     1       5.045   5.079  15.682  0.00  0.00    +0.000 A 
ATOM     24  C   UNL     1       4.225   4.486  16.649  0.00  0.00    +0.000 A 
ATOM     25  C   UNL     1       3.525   5.266  17.577  0.00  0.00    +0.000 A 
BRANCH  23  26
ATOM     26  C   UNL     1       5.815   4.284  14.708  0.00  0.00    +0.000 C 
ATOM     27  C   UNL     1       5.583   4.314  13.385  0.00  0.00    +0.000 C 
BRANCH  27  28
ATOM     28  C   UNL     1       6.374   3.480  12.449  0.00  0.00    +0.000 C 
ATOM     29  O   UNL     1       7.388   3.863  11.879  0.00  0.00    +0.000 OA
ATOM     30  N   UNL     1       5.855   2.222  12.286  0.00  0.00    +0.000 N 
ATOM     31  H   UNL     1       5.039   1.850  12.756  0.00  0.00    +0.000 HD
BRANCH  30  32
ATOM     32  O   UNL     1       6.554   1.344  11.430  0.00  0.00    +0.000 OA
ATOM     33  H   UNL     1       7.373   1.850  11.238  0.00  0.00    +0.000 HD
ENDBRANCH  30  32
ENDBRANCH  27  28
ENDBRANCH  23  26
ENDBRANCH  19  20
ENDBRANCH   7  19
TORSDOF 5
ENDMDL
MODEL 2
REMARK VINA RESULT:      -8.2      4.028      5.101
REMARK  Name = 
REMARK  6 active torsions:
REMARK  status: ('A' for Active; 'I' for Inactive)
REMARK    1  A    between atoms: C_1  and  N_2
REMARK    2  A    between atoms: N_7  and  C_8
REMARK    3  A    between atoms: C_8  and  C_9
REMARK    4  A    between atoms: C_12  and  C_13
REMARK    5  A    between atoms: C_14  and  C_15
REMARK    6  A    between atoms: N_17  and  O_18
REMARK                            x       y       z     vdW  Elec       q    Type
REMARK                         _______ _______ _______ _____ _____    ______ ____
ROOT
ATOM      1  C   UNL     1      -1.398  14.652  22.860  0.00  0.00    +0.000 C 
ATOM      2  N   UNL     1      -0.835  13.786  21.859  0.00  0.00    +0.000 N 
ATOM      3  C   UNL     1       0.489  13.486  21.705  0.00  0.00    +0.000 A 
ATOM      4  N   UNL     1       0.687  12.666  20.695  0.00  0.00    +0.000 NA
ATOM      5  C   UNL     1      -0.576  12.416  20.182  0.00  0.00    +0.000 A 
ATOM      6  C   UNL     1      -1.045  11.625  19.119  0.00  0.00    +0.000 A 
ATOM      7  N   UNL     1      -0.256  10.876  18.269  0.00  0.00    +0.000 N 
ATOM      8  N   UNL     1      -2.392  11.598  18.911  0.00  0.00    +0.000 NA
ATOM      9  C   UNL     1      -3.245  12.311  19.688  0.00  0.00    +0.000 A 
ATOM     10  N   UNL     1      -4.597  12.197  19.452  0.00  0.00    +0.000 N 
ATOM     11  C   UNL     1      -5.562  12.955  20.232  0.00  0.00    +0.000 C 
ATOM     12  C   UNL     1      -6.620  11.990  20.769  0.00  0.00    +0.000 C 
ATOM     13  C   UNL     1      -7.258  11.181  19.640  0.00  0.00    +0.000 C 
ATOM     14  C   UNL     1      -6.200  10.495  18.773  0.00  0.00    +0.000 C 
ATOM     15  C   UNL     1      -5.114  11.469  18.303  0.00  0.00    +0.000 C 
ATOM     16  N   UNL     1      -2.855  13.101  20.707  0.00  0.00    +0.000 NA
ATOM     17  C   UNL     1      -1.533  13.108  20.900  0.00  0.00    +0.000 A 
ATOM     18  H   UNL     1      -0.739  10.275  17.617  0.00  0.00    +0.000 HD
ENDROOT
BRANCH   7  19
ATOM     19  C   UNL     1       1.176  10.803  18.435  0.00  0.00    +0.000 C 
BRANCH  19  20
ATOM     20  C   UNL     1       1.611   9.382  18.710  0.00  0.00    +0.000 A 
ATOM     21  C   UNL     1       2.215   8.606  17.711  0.00  0.00    +0.000 A 
ATOM     22  C   UNL     1       2.662   7.308  17.986  0.00  0.00    +0.000 A 
ATOM     23  C   UNL     1       2.518   6.757  19.267  0.00  0.00    +0.000 A 
ATOM     24  C   UNL     1       1.865   7.516  20.246  0.00  0.00    +0.000 A 
ATOM     25  C   UNL     1       1.420   8.814  19.974  0.00  0.00    +0.000 A 
BRANCH  23  26
ATOM     26  C   UNL     1       3.022   5.397  19.530  0.00  0.00    +0.000 C 
ATOM     27  C   UNL     1       2.669   4.677  20.608  0.00  0.00    +0.000 C 
BRANCH  27  28
ATOM     28  C   UNL     1       3.219   3.319  20.836  0.00  0.00    +0.000 C 
ATOM     29  O   UNL     1       2.833   2.563  21.719  0.00  0.00    +0.000 OA
ATOM     30  N   UNL     1       4.210   2.989  19.948  0.00  0.00    +0.000 N 
ATOM     31  H   UNL     1       4.541   3.566  19.186  0.00  0.00    +0.000 HD
BRANCH  30  32
ATOM     32  O   UNL     1       4.780   1.703  20.071  0.00  0.00    +0.000 OA
ATOM     33  H   UNL     1       5.522   1.744  19.430  0.00  0.00    +0.000 HD
ENDBRANCH  30  32
ENDBRANCH  27  28
ENDBRANCH  23  26
ENDBRANCH  19  20
ENDBRANCH   7  19
TORSDOF 5
ENDMDL
MODEL 3
REMARK VINA RESULT:      -8.2      3.884      5.860
REMARK  Name = 
REMARK  6 active torsions:
REMARK  status: ('A' for Active; 'I' for Inactive)
REMARK    1  A    between atoms: C_1  and  N_2
REMARK    2  A    between atoms: N_7  and  C_8
REMARK    3  A    between atoms: C_8  and  C_9
REMARK    4  A    between atoms: C_12  and  C_13
REMARK    5  A    between atoms: C_14  and  C_15
REMARK    6  A    between atoms: N_17  and  O_18
REMARK                            x       y       z     vdW  Elec       q    Type
REMARK                         _______ _______ _______ _____ _____    ______ ____
ROOT
ATOM      1  C   UNL     1      -5.005  11.717  18.288  0.00  0.00    +0.000 C 
ATOM      2  N   UNL     1      -3.588  11.480  18.357  0.00  0.00    +0.000 N 
ATOM      3  C   UNL     1      -2.830  10.837  17.419  0.00  0.00    +0.000 A 
ATOM      4  N   UNL     1      -1.565  10.776  17.775  0.00  0.00    +0.000 NA
ATOM      5  C   UNL     1      -1.504  11.424  18.999  0.00  0.00    +0.000 A 
ATOM      6  C   UNL     1      -0.453  11.703  19.890  0.00  0.00    +0.000 A 
ATOM      7  N   UNL     1       0.866  11.331  19.716  0.00  0.00    +0.000 N 
ATOM      8  N   UNL     1      -0.764  12.400  21.019  0.00  0.00    +0.000 NA
ATOM      9  C   UNL     1      -2.034  12.798  21.281  0.00  0.00    +0.000 A 
ATOM     10  N   UNL     1      -2.267  13.541  22.417  0.00  0.00    +0.000 N 
ATOM     11  C   UNL     1      -3.610  13.975  22.769  0.00  0.00    +0.000 C 
ATOM     12  C   UNL     1      -3.581  15.481  23.034  0.00  0.00    +0.000 C 
ATOM     13  C   UNL     1      -2.535  15.838  24.090  0.00  0.00    +0.000 C 
ATOM     14  C   UNL     1      -1.162  15.260  23.739  0.00  0.00    +0.000 C 
ATOM     15  C   UNL     1      -1.228  13.765  23.410  0.00  0.00    +0.000 C 
ATOM     16  N   UNL     1      -3.085  12.543  20.477  0.00  0.00    +0.000 NA
ATOM     17  C   UNL     1      -2.758  11.867  19.372  0.00  0.00    +0.000 A 
ATOM     18  H   UNL     1       1.528  11.692  20.386  0.00  0.00    +0.000 HD
ENDROOT
BRANCH   7  19
ATOM     19  C   UNL     1       1.303  10.632  18.532  0.00  0.00    +0.000 C 
BRANCH  19  20
ATOM     20  C   UNL     1       1.653   9.198  18.857  0.00  0.00    +0.000 A 
ATOM     21  C   UNL     1       1.427   8.672  20.136  0.00  0.00    +0.000 A 
ATOM     22  C   UNL     1       1.705   7.329  20.417  0.00  0.00    +0.000 A 
ATOM     23  C   UNL     1       2.212   6.480  19.424  0.00  0.00    +0.000 A 
ATOM     24  C   UNL     1       2.487   7.023  18.163  0.00  0.00    +0.000 A 
ATOM     25  C   UNL     1       2.208   8.364  17.880  0.00  0.00    +0.000 A 
BRANCH  23  26
ATOM     26  C   UNL     1       2.471   5.064  19.745  0.00  0.00    +0.000 C 
ATOM     27  C   UNL     1       3.527   4.383  19.271  0.00  0.00    +0.000 C 
BRANCH  27  28
ATOM     28  C   UNL     1       3.732   2.954  19.610  0.00  0.00    +0.000 C 
ATOM     29  O   UNL     1       2.829   2.131  19.683  0.00  0.00    +0.000 OA
ATOM     30  N   UNL     1       5.048   2.642  19.830  0.00  0.00    +0.000 N 
ATOM     31  H   UNL     1       5.831   3.278  19.752  0.00  0.00    +0.000 HD
BRANCH  30  32
ATOM     32  O   UNL     1       5.347   1.296  20.135  0.00  0.00    +0.000 OA
ATOM     33  H   UNL     1       4.461   0.875  20.103  0.00  0.00    +0.000 HD
ENDBRANCH  30  32
ENDBRANCH  27  28
ENDBRANCH  23  26
ENDBRANCH  19  20
ENDBRANCH   7  19
TORSDOF 5
ENDMDL
MODEL 4
REMARK VINA RESULT:      -8.2      5.572     10.399
REMARK  Name = 
REMARK  6 active torsions:
REMARK  status: ('A' for Active; 'I' for Inactive)
REMARK    1  A    between atoms: C_1  and  N_2
REMARK    2  A    between atoms: N_7  and  C_8
REMARK    3  A    between atoms: C_8  and  C_9
REMARK    4  A    between atoms: C_12  and  C_13
REMARK    5  A    between atoms: C_14  and  C_15
REMARK    6  A    between atoms: N_17  and  O_18
REMARK                            x       y       z     vdW  Elec       q    Type
REMARK                         _______ _______ _______ _____ _____    ______ ____
ROOT
ATOM      1  C   UNL     1       1.559   1.631  18.651  0.00  0.00    +0.000 C 
ATOM      2  N   UNL     1       1.523   2.941  19.243  0.00  0.00    +0.000 N 
ATOM      3  C   UNL     1       0.743   3.328  20.296  0.00  0.00    +0.000 A 
ATOM      4  N   UNL     1       0.934   4.594  20.602  0.00  0.00    +0.000 NA
ATOM      5  C   UNL     1       1.896   5.039  19.707  0.00  0.00    +0.000 A 
ATOM      6  C   UNL     1       2.532   6.277  19.514  0.00  0.00    +0.000 A 
ATOM      7  N   UNL     1       2.288   7.426  20.241  0.00  0.00    +0.000 N 
ATOM      8  N   UNL     1       3.469   6.348  18.527  0.00  0.00    +0.000 NA
ATOM      9  C   UNL     1       3.768   5.274  17.754  0.00  0.00    +0.000 A 
ATOM     10  N   UNL     1       4.760   5.403  16.807  0.00  0.00    +0.000 N 
ATOM     11  C   UNL     1       5.109   4.298  15.929  0.00  0.00    +0.000 C 
ATOM     12  C   UNL     1       6.622   4.084  15.993  0.00  0.00    +0.000 C 
ATOM     13  C   UNL     1       7.378   5.374  15.671  0.00  0.00    +0.000 C 
ATOM     14  C   UNL     1       6.896   6.539  16.538  0.00  0.00    +0.000 C 
ATOM     15  C   UNL     1       5.371   6.690  16.511  0.00  0.00    +0.000 C 
ATOM     16  N   UNL     1       3.178   4.069  17.877  0.00  0.00    +0.000 NA
ATOM     17  C   UNL     1       2.269   4.018  18.856  0.00  0.00    +0.000 A 
ATOM     18  H   UNL     1       2.895   8.212  20.060  0.00  0.00    +0.000 HD
ENDROOT
BRANCH   7  19
ATOM     19  C   UNL     1       1.349   7.442  21.336  0.00  0.00    +0.000 C 
BRANCH  19  20
ATOM     20  C   UNL     1       0.640   8.774  21.414  0.00  0.00    +0.000 A 
ATOM     21  C   UNL     1       0.587   9.629  20.304  0.00  0.00    +0.000 A 
ATOM     22  C   UNL     1      -0.114  10.840  20.367  0.00  0.00    +0.000 A 
ATOM     23  C   UNL     1      -0.782  11.221  21.538  0.00  0.00    +0.000 A 
ATOM     24  C   UNL     1      -0.681  10.389  22.661  0.00  0.00    +0.000 A 
ATOM     25  C   UNL     1       0.017   9.179  22.600  0.00  0.00    +0.000 A 
BRANCH  23  26
ATOM     26  C   UNL     1      -1.532  12.489  21.564  0.00  0.00    +0.000 C 
ATOM     27  C   UNL     1      -2.556  12.756  20.736  0.00  0.00    +0.000 C 
BRANCH  27  28
ATOM     28  C   UNL     1      -3.266  14.057  20.789  0.00  0.00    +0.000 C 
ATOM     29  O   UNL     1      -2.909  15.005  21.477  0.00  0.00    +0.000 OA
ATOM     30  N   UNL     1      -4.371  14.095  19.979  0.00  0.00    +0.000 N 
ATOM     31  H   UNL     1      -4.689  13.350  19.372  0.00  0.00    +0.000 HD
BRANCH  30  32
ATOM     32  O   UNL     1      -5.101  15.303  19.944  0.00  0.00    +0.000 OA
ATOM     33  H   UNL     1      -5.945  15.023  19.528  0.00  0.00    +0.000 HD
ENDBRANCH  30  32
ENDBRANCH  27  28
ENDBRANCH  23  26
ENDBRANCH  19  20
ENDBRANCH   7  19
TORSDOF 5
ENDMDL
MODEL 5
REMARK VINA RESULT:      -8.2      4.580      6.760
REMARK  Name = 
REMARK  6 active torsions:
REMARK  status: ('A' for Active; 'I' for Inactive)
REMARK    1  A    between atoms: C_1  and  N_2
REMARK    2  A    between atoms: N_7  and  C_8
REMARK    3  A    between atoms: C_8  and  C_9
REMARK    4  A    between atoms: C_12  and  C_13
REMARK    5  A    between atoms: C_14  and  C_15
REMARK    6  A    between atoms: N_17  and  O_18
REMARK                            x       y       z     vdW  Elec       q    Type
REMARK                         _______ _______ _______ _____ _____    ______ ____
ROOT
ATOM      1  C   UNL     1      -6.121  11.634  17.753  0.00  0.00    +0.000 C 
ATOM      2  N   UNL     1      -4.707  11.652  18.012  0.00  0.00    +0.000 N 
ATOM      3  C   UNL     1      -3.724  11.258  17.149  0.00  0.00    +0.000 A 
ATOM      4  N   UNL     1      -2.528  11.390  17.682  0.00  0.00    +0.000 NA
ATOM      5  C   UNL     1      -2.754  11.909  18.948  0.00  0.00    +0.000 A 
ATOM      6  C   UNL     1      -1.902  12.280  20.003  0.00  0.00    +0.000 A 
ATOM      7  N   UNL     1      -0.525  12.173  19.997  0.00  0.00    +0.000 N 
ATOM      8  N   UNL     1      -2.486  12.788  21.124  0.00  0.00    +0.000 NA
ATOM      9  C   UNL     1      -3.833  12.920  21.226  0.00  0.00    +0.000 A 
ATOM     10  N   UNL     1      -4.352  13.487  22.368  0.00  0.00    +0.000 N 
ATOM     11  C   UNL     1      -5.787  13.632  22.551  0.00  0.00    +0.000 C 
ATOM     12  C   UNL     1      -6.086  15.082  22.932  0.00  0.00    +0.000 C 
ATOM     13  C   UNL     1      -5.275  15.512  24.155  0.00  0.00    +0.000 C 
ATOM     14  C   UNL     1      -3.782  15.233  23.967  0.00  0.00    +0.000 C 
ATOM     15  C   UNL     1      -3.514  13.792  23.519  0.00  0.00    +0.000 C 
ATOM     16  N   UNL     1      -4.700  12.564  20.258  0.00  0.00    +0.000 NA
ATOM     17  C   UNL     1      -4.108  12.076  19.164  0.00  0.00    +0.000 A 
ATOM     18  H   UNL     1      -0.038  12.576  20.784  0.00  0.00    +0.000 HD
ENDROOT
BRANCH   7  19
ATOM     19  C   UNL     1       0.190  11.691  18.840  0.00  0.00    +0.000 C 
BRANCH  19  20
ATOM     20  C   UNL     1       0.754  10.312  19.097  0.00  0.00    +0.000 A 
ATOM     21  C   UNL     1       1.379   9.586  18.074  0.00  0.00    +0.000 A 
ATOM     22  C   UNL     1       1.944   8.331  18.331  0.00  0.00    +0.000 A 
ATOM     23  C   UNL     1       1.901   7.775  19.617  0.00  0.00    +0.000 A 
ATOM     24  C   UNL     1       1.227   8.480  20.622  0.00  0.00    +0.000 A 
ATOM     25  C   UNL     1       0.664   9.735  20.369  0.00  0.00    +0.000 A 
BRANCH  23  26
ATOM     26  C   UNL     1       2.527   6.463  19.859  0.00  0.00    +0.000 C 
ATOM     27  C   UNL     1       1.873   5.423  20.403  0.00  0.00    +0.000 C 
BRANCH  27  28
ATOM     28  C   UNL     1       2.555   4.129  20.644  0.00  0.00    +0.000 C 
ATOM     29  O   UNL     1       3.382   3.639  19.885  0.00  0.00    +0.000 OA
ATOM     30  N   UNL     1       2.167   3.532  21.815  0.00  0.00    +0.000 N 
ATOM     31  H   UNL     1       1.512   3.910  22.487  0.00  0.00    +0.000 HD
BRANCH  30  32
ATOM     32  O   UNL     1       2.782   2.304  22.144  0.00  0.00    +0.000 OA
ATOM     33  H   UNL     1       2.661   2.266  23.117  0.00  0.00    +0.000 HD
ENDBRANCH  30  32
ENDBRANCH  27  28
ENDBRANCH  23  26
ENDBRANCH  19  20
ENDBRANCH   7  19
TORSDOF 5
ENDMDL
MODEL 6
REMARK VINA RESULT:      -8.2      3.974      5.906
REMARK  Name = 
REMARK  6 active torsions:
REMARK  status: ('A' for Active; 'I' for Inactive)
REMARK    1  A    between atoms: C_1  and  N_2
REMARK    2  A    between atoms: N_7  and  C_8
REMARK    3  A    between atoms: C_8  and  C_9
REMARK    4  A    between atoms: C_12  and  C_13
REMARK    5  A    between atoms: C_14  and  C_15
REMARK    6  A    between atoms: N_17  and  O_18
REMARK                            x       y       z     vdW  Elec       q    Type
REMARK                         _______ _______ _______ _____ _____    ______ ____
ROOT
ATOM      1  C   UNL     1      -5.294  11.189  17.662  0.00  0.00    +0.000 C 
ATOM      2  N   UNL     1      -3.869  11.089  17.837  0.00  0.00    +0.000 N 
ATOM      3  C   UNL     1      -3.002  10.415  17.024  0.00  0.00    +0.000 A 
ATOM      4  N   UNL     1      -1.762  10.508  17.454  0.00  0.00    +0.000 NA
ATOM      5  C   UNL     1      -1.834  11.294  18.594  0.00  0.00    +0.000 A 
ATOM      6  C   UNL     1      -0.870  11.765  19.501  0.00  0.00    +0.000 A 
ATOM      7  N   UNL     1       0.483  11.495  19.445  0.00  0.00    +0.000 N 
ATOM      8  N   UNL     1      -1.310  12.555  20.521  0.00  0.00    +0.000 NA
ATOM      9  C   UNL     1      -2.623  12.864  20.664  0.00  0.00    +0.000 A 
ATOM     10  N   UNL     1      -2.990  13.708  21.689  0.00  0.00    +0.000 N 
ATOM     11  C   UNL     1      -4.384  14.057  21.913  0.00  0.00    +0.000 C 
ATOM     12  C   UNL     1      -4.497  15.579  21.998  0.00  0.00    +0.000 C 
ATOM     13  C   UNL     1      -3.554  16.147  23.060  0.00  0.00    +0.000 C 
ATOM     14  C   UNL     1      -2.118  15.658  22.856  0.00  0.00    +0.000 C 
ATOM     15  C   UNL     1      -2.040  14.136  22.704  0.00  0.00    +0.000 C 
ATOM     16  N   UNL     1      -3.594  12.427  19.839  0.00  0.00    +0.000 NA
ATOM     17  C   UNL     1      -3.142  11.662  18.842  0.00  0.00    +0.000 A 
ATOM     18  H   UNL     1       1.069  11.987  20.104  0.00  0.00    +0.000 HD
ENDROOT
BRANCH   7  19
ATOM     19  C   UNL     1       1.053  10.708  18.379  0.00  0.00    +0.000 C 
BRANCH  19  20
ATOM     20  C   UNL     1       1.392   9.317  18.863  0.00  0.00    +0.000 A 
ATOM     21  C   UNL     1       1.960   8.371  18.000  0.00  0.00    +0.000 A 
ATOM     22  C   UNL     1       2.319   7.100  18.468  0.00  0.00    +0.000 A 
ATOM     23  C   UNL     1       2.121   6.749  19.810  0.00  0.00    +0.000 A 
ATOM     24  C   UNL     1       1.502   7.679  20.655  0.00  0.00    +0.000 A 
ATOM     25  C   UNL     1       1.145   8.949  20.191  0.00  0.00    +0.000 A 
BRANCH  23  26
ATOM     26  C   UNL     1       2.532   5.412  20.276  0.00  0.00    +0.000 C 
ATOM     27  C   UNL     1       3.222   4.547  19.515  0.00  0.00    +0.000 C 
BRANCH  27  28
ATOM     28  C   UNL     1       3.595   3.206  20.026  0.00  0.00    +0.000 C 
ATOM     29  O   UNL     1       2.871   2.515  20.732  0.00  0.00    +0.000 OA
ATOM     30  N   UNL     1       4.843   2.809  19.620  0.00  0.00    +0.000 N 
ATOM     31  H   UNL     1       5.465   3.330  19.015  0.00  0.00    +0.000 HD
BRANCH  30  32
ATOM     32  O   UNL     1       5.278   1.532  20.037  0.00  0.00    +0.000 OA
ATOM     33  H   UNL     1       6.242   1.672  20.160  0.00  0.00    +0.000 HD
ENDBRANCH  30  32
ENDBRANCH  27  28
ENDBRANCH  23  26
ENDBRANCH  19  20
ENDBRANCH   7  19
TORSDOF 5
ENDMDL
MODEL 7
REMARK VINA RESULT:      -8.1      5.712     10.494
REMARK  Name = 
REMARK  6 active torsions:
REMARK  status: ('A' for Active; 'I' for Inactive)
REMARK    1  A    between atoms: C_1  and  N_2
REMARK    2  A    between atoms: N_7  and  C_8
REMARK    3  A    between atoms: C_8  and  C_9
REMARK    4  A    between atoms: C_12  and  C_13
REMARK    5  A    between atoms: C_14  and  C_15
REMARK    6  A    between atoms: N_17  and  O_18
REMARK                            x       y       z     vdW  Elec       q    Type
REMARK                         _______ _______ _______ _____ _____    ______ ____
ROOT
ATOM      1  C   UNL     1       1.598   1.652  18.907  0.00  0.00    +0.000 C 
ATOM      2  N   UNL     1       1.575   3.000  19.408  0.00  0.00    +0.000 N 
ATOM      3  C   UNL     1       0.829   3.457  20.458  0.00  0.00    +0.000 A 
ATOM      4  N   UNL     1       1.023   4.741  20.669  0.00  0.00    +0.000 NA
ATOM      5  C   UNL     1       1.951   5.126  19.713  0.00  0.00    +0.000 A 
ATOM      6  C   UNL     1       2.573   6.350  19.413  0.00  0.00    +0.000 A 
ATOM      7  N   UNL     1       2.347   7.546  20.066  0.00  0.00    +0.000 N 
ATOM      8  N   UNL     1       3.475   6.355  18.391  0.00  0.00    +0.000 NA
ATOM      9  C   UNL     1       3.754   5.231  17.684  0.00  0.00    +0.000 A 
ATOM     10  N   UNL     1       4.712   5.297  16.698  0.00  0.00    +0.000 N 
ATOM     11  C   UNL     1       5.038   4.136  15.887  0.00  0.00    +0.000 C 
ATOM     12  C   UNL     1       6.553   3.932  15.913  0.00  0.00    +0.000 C 
ATOM     13  C   UNL     1       7.290   5.199  15.476  0.00  0.00    +0.000 C 
ATOM     14  C   UNL     1       6.831   6.420  16.277  0.00  0.00    +0.000 C 
ATOM     15  C   UNL     1       5.306   6.563  16.292  0.00  0.00    +0.000 C 
ATOM     16  N   UNL     1       3.176   4.035  17.912  0.00  0.00    +0.000 NA
ATOM     17  C   UNL     1       2.301   4.049  18.922  0.00  0.00    +0.000 A 
ATOM     18  H   UNL     1       2.943   8.319  19.810  0.00  0.00    +0.000 HD
ENDROOT
BRANCH   7  19
ATOM     19  C   UNL     1       1.446   7.634  21.189  0.00  0.00    +0.000 C 
BRANCH  19  20
ATOM     20  C   UNL     1       0.613   8.893  21.108  0.00  0.00    +0.000 A 
ATOM     21  C   UNL     1       0.009   9.433  22.252  0.00  0.00    +0.000 A 
ATOM     22  C   UNL     1      -0.720  10.627  22.180  0.00  0.00    +0.000 A 
ATOM     23  C   UNL     1      -0.857  11.309  20.964  0.00  0.00    +0.000 A 
ATOM     24  C   UNL     1      -0.298  10.737  19.814  0.00  0.00    +0.000 A 
ATOM     25  C   UNL     1       0.432   9.546  19.884  0.00  0.00    +0.000 A 
BRANCH  23  26
ATOM     26  C   UNL     1      -1.609  12.577  20.926  0.00  0.00    +0.000 C 
ATOM     27  C   UNL     1      -2.642  12.845  21.742  0.00  0.00    +0.000 C 
BRANCH  27  28
ATOM     28  C   UNL     1      -3.378  14.128  21.651  0.00  0.00    +0.000 C 
ATOM     29  O   UNL     1      -4.106  14.565  22.534  0.00  0.00    +0.000 OA
ATOM     30  N   UNL     1      -3.156  14.788  20.471  0.00  0.00    +0.000 N 
ATOM     31  H   UNL     1      -2.542  14.483  19.726  0.00  0.00    +0.000 HD
BRANCH  30  32
ATOM     32  O   UNL     1      -3.796  16.035  20.301  0.00  0.00    +0.000 OA
ATOM     33  H   UNL     1      -3.442  16.333  19.435  0.00  0.00    +0.000 HD
ENDBRANCH  30  32
ENDBRANCH  27  28
ENDBRANCH  23  26
ENDBRANCH  19  20
ENDBRANCH   7  19
TORSDOF 5
ENDMDL
MODEL 8
REMARK VINA RESULT:      -8.1      5.866     10.847
REMARK  Name = 
REMARK  6 active torsions:
REMARK  status: ('A' for Active; 'I' for Inactive)
REMARK    1  A    between atoms: C_1  and  N_2
REMARK    2  A    between atoms: N_7  and  C_8
REMARK    3  A    between atoms: C_8  and  C_9
REMARK    4  A    between atoms: C_12  and  C_13
REMARK    5  A    between atoms: C_14  and  C_15
REMARK    6  A    between atoms: N_17  and  O_18
REMARK                            x       y       z     vdW  Elec       q    Type
REMARK                         _______ _______ _______ _____ _____    ______ ____
ROOT
ATOM      1  C   UNL     1       1.842   1.586  18.836  0.00  0.00    +0.000 C 
ATOM      2  N   UNL     1       1.679   2.901  19.396  0.00  0.00    +0.000 N 
ATOM      3  C   UNL     1       0.822   3.248  20.402  0.00  0.00    +0.000 A 
ATOM      4  N   UNL     1       0.903   4.530  20.688  0.00  0.00    +0.000 NA
ATOM      5  C   UNL     1       1.871   5.029  19.830  0.00  0.00    +0.000 A 
ATOM      6  C   UNL     1       2.423   6.308  19.640  0.00  0.00    +0.000 A 
ATOM      7  N   UNL     1       2.058   7.449  20.328  0.00  0.00    +0.000 N 
ATOM      8  N   UNL     1       3.400   6.430  18.697  0.00  0.00    +0.000 NA
ATOM      9  C   UNL     1       3.815   5.368  17.964  0.00  0.00    +0.000 A 
ATOM     10  N   UNL     1       4.841   5.553  17.064  0.00  0.00    +0.000 N 
ATOM     11  C   UNL     1       5.315   4.462  16.228  0.00  0.00    +0.000 C 
ATOM     12  C   UNL     1       6.834   4.364  16.369  0.00  0.00    +0.000 C 
ATOM     13  C   UNL     1       7.507   5.700  16.055  0.00  0.00    +0.000 C 
ATOM     14  C   UNL     1       6.897   6.842  16.871  0.00  0.00    +0.000 C 
ATOM     15  C   UNL     1       5.369   6.877  16.768  0.00  0.00    +0.000 C 
ATOM     16  N   UNL     1       3.312   4.124  18.086  0.00  0.00    +0.000 NA
ATOM     17  C   UNL     1       2.362   4.023  19.021  0.00  0.00    +0.000 A 
ATOM     18  H   UNL     1       2.613   8.275  20.159  0.00  0.00    +0.000 HD
ENDROOT
BRANCH   7  19
ATOM     19  C   UNL     1       1.067   7.414  21.376  0.00  0.00    +0.000 C 
BRANCH  19  20
ATOM     20  C   UNL     1       0.420   8.770  21.545  0.00  0.00    +0.000 A 
ATOM     21  C   UNL     1      -0.181   9.136  22.757  0.00  0.00    +0.000 A 
ATOM     22  C   UNL     1      -0.734  10.412  22.924  0.00  0.00    +0.000 A 
ATOM     23  C   UNL     1      -0.695  11.351  21.884  0.00  0.00    +0.000 A 
ATOM     24  C   UNL     1      -0.143  10.961  20.657  0.00  0.00    +0.000 A 
ATOM     25  C   UNL     1       0.412   9.688  20.489  0.00  0.00    +0.000 A 
BRANCH  23  26
ATOM     26  C   UNL     1      -1.264  12.694  22.100  0.00  0.00    +0.000 C 
ATOM     27  C   UNL     1      -1.186  13.347  23.271  0.00  0.00    +0.000 C 
BRANCH  27  28
ATOM     28  C   UNL     1      -1.792  14.689  23.441  0.00  0.00    +0.000 C 
ATOM     29  O   UNL     1      -2.421  15.274  22.568  0.00  0.00    +0.000 OA
ATOM     30  N   UNL     1      -1.581  15.215  24.690  0.00  0.00    +0.000 N 
ATOM     31  H   UNL     1      -1.095  14.760  25.452  0.00  0.00    +0.000 HD
BRANCH  30  32
ATOM     32  O   UNL     1      -2.143  16.483  24.957  0.00  0.00    +0.000 OA
ATOM     33  H   UNL     1      -1.688  16.740  25.788  0.00  0.00    +0.000 HD
ENDBRANCH  30  32
ENDBRANCH  27  28
ENDBRANCH  23  26
ENDBRANCH  19  20
ENDBRANCH   7  19
TORSDOF 5
ENDMDL
MODEL 9
REMARK VINA RESULT:      -8.1      5.863     10.778
REMARK  Name = 
REMARK  6 active torsions:
REMARK  status: ('A' for Active; 'I' for Inactive)
REMARK    1  A    between atoms: C_1  and  N_2
REMARK    2  A    between atoms: N_7  and  C_8
REMARK    3  A    between atoms: C_8  and  C_9
REMARK    4  A    between atoms: C_12  and  C_13
REMARK    5  A    between atoms: C_14  and  C_15
REMARK    6  A    between atoms: N_17  and  O_18
REMARK                            x       y       z     vdW  Elec       q    Type
REMARK                         _______ _______ _______ _____ _____    ______ ____
ROOT
ATOM      1  C   UNL     1       1.868   1.585  18.957  0.00  0.00    +0.000 C 
ATOM      2  N   UNL     1       1.705   2.909  19.493  0.00  0.00    +0.000 N 
ATOM      3  C   UNL     1       0.863   3.270  20.507  0.00  0.00    +0.000 A 
ATOM      4  N   UNL     1       0.939   4.558  20.766  0.00  0.00    +0.000 NA
ATOM      5  C   UNL     1       1.888   5.047  19.881  0.00  0.00    +0.000 A 
ATOM      6  C   UNL     1       2.425   6.326  19.656  0.00  0.00    +0.000 A 
ATOM      7  N   UNL     1       2.064   7.478  20.328  0.00  0.00    +0.000 N 
ATOM      8  N   UNL     1       3.384   6.437  18.693  0.00  0.00    +0.000 NA
ATOM      9  C   UNL     1       3.795   5.363  17.974  0.00  0.00    +0.000 A 
ATOM     10  N   UNL     1       4.802   5.538  17.051  0.00  0.00    +0.000 N 
ATOM     11  C   UNL     1       5.269   4.433  16.229  0.00  0.00    +0.000 C 
ATOM     12  C   UNL     1       6.792   4.350  16.344  0.00  0.00    +0.000 C 
ATOM     13  C   UNL     1       7.448   5.685  15.991  0.00  0.00    +0.000 C 
ATOM     14  C   UNL     1       6.844   6.838  16.795  0.00  0.00    +0.000 C 
ATOM     15  C   UNL     1       5.314   6.859  16.720  0.00  0.00    +0.000 C 
ATOM     16  N   UNL     1       3.303   4.118  18.130  0.00  0.00    +0.000 NA
ATOM     17  C   UNL     1       2.371   4.029  19.083  0.00  0.00    +0.000 A 
ATOM     18  H   UNL     1       2.610   8.304  20.132  0.00  0.00    +0.000 HD
ENDROOT
BRANCH   7  19
ATOM     19  C   UNL     1       1.093   7.457  21.394  0.00  0.00    +0.000 C 
BRANCH  19  20
ATOM     20  C   UNL     1       0.456   8.817  21.564  0.00  0.00    +0.000 A 
ATOM     21  C   UNL     1       0.377   9.715  20.492  0.00  0.00    +0.000 A 
ATOM     22  C   UNL     1      -0.259  10.954  20.642  0.00  0.00    +0.000 A 
ATOM     23  C   UNL     1      -0.835  11.320  21.867  0.00  0.00    +0.000 A 
ATOM     24  C   UNL     1      -0.705  10.441  22.950  0.00  0.00    +0.000 A 
ATOM     25  C   UNL     1      -0.072   9.203  22.801  0.00  0.00    +0.000 A 
BRANCH  23  26
ATOM     26  C   UNL     1      -1.519  12.620  21.985  0.00  0.00    +0.000 C 
ATOM     27  C   UNL     1      -2.688  12.781  22.626  0.00  0.00    +0.000 C 
BRANCH  27  28
ATOM     28  C   UNL     1      -3.346  14.108  22.700  0.00  0.00    +0.000 C 
ATOM     29  O   UNL     1      -2.773  15.170  22.486  0.00  0.00    +0.000 OA
ATOM     30  N   UNL     1      -4.674  14.028  23.029  0.00  0.00    +0.000 N 
ATOM     31  H   UNL     1      -5.197  13.176  23.185  0.00  0.00    +0.000 HD
BRANCH  30  32
ATOM     32  O   UNL     1      -5.393  15.241  23.100  0.00  0.00    +0.000 OA
ATOM     33  H   UNL     1      -6.283  14.973  22.784  0.00  0.00    +0.000 HD
ENDBRANCH  30  32
ENDBRANCH  27  28
ENDBRANCH  23  26
ENDBRANCH  19  20
ENDBRANCH   7  19
TORSDOF 5
ENDMDL
