MODEL 1
REMARK VINA RESULT:      -7.3      0.000      0.000
REMARK  Name = 
REMARK  10 active torsions:
REMARK  status: ('A' for Active; 'I' for Inactive)
REMARK    1  A    between atoms: C_1  and  C_2
REMARK    2  A    between atoms: C_2  and  O_3
REMARK    3  A    between atoms: O_3  and  C_4
REMARK    4  A    between atoms: C_4  and  C_5
REMARK    5  A    between atoms: N_18  and  C_19
REMARK    6  A    between atoms: C_19  and  C_20
REMARK    7  A    between atoms: C_20  and  O_21
REMARK    8  A    between atoms: O_21  and  C_22
REMARK    9  A    between atoms: C_22  and  C_23
REMARK   10  A    between atoms: C_23  and  N_24
REMARK                            x       y       z     vdW  Elec       q    Type
REMARK                         _______ _______ _______ _____ _____    ______ ____
ROOT
ATOM      1  C   UNL     1       5.546   4.173  16.015  0.00  0.00    +0.000 A 
ATOM      2  N   UNL     1       5.135   3.033  16.528  0.00  0.00    +0.000 NA
ATOM      3  C   UNL     1       4.262   3.358  17.533  0.00  0.00    +0.000 A 
ATOM      4  C   UNL     1       3.583   2.465  18.385  0.00  0.00    +0.000 A 
ATOM      5  N   UNL     1       3.680   1.087  18.238  0.00  0.00    +0.000 N 
ATOM      6  N   UNL     1       2.815   2.952  19.379  0.00  0.00    +0.000 NA
ATOM      7  C   UNL     1       2.651   4.274  19.519  0.00  0.00    +0.000 A 
ATOM      8  C   UNL     1       1.827   4.684  20.557  0.00  0.00    +0.000 A 
ATOM      9  C   UNL     1       1.548   6.030  20.801  0.00  0.00    +0.000 A 
ATOM     10  C   UNL     1       2.122   7.002  19.994  0.00  0.00    +0.000 A 
ATOM     11  C   UNL     1       2.973   6.630  18.953  0.00  0.00    +0.000 A 
ATOM     12  C   UNL     1       3.251   5.258  18.687  0.00  0.00    +0.000 A 
ATOM     13  C   UNL     1       4.103   4.737  17.656  0.00  0.00    +0.000 A 
ATOM     14  N   UNL     1       4.897   5.243  16.623  0.00  0.00    +0.000 N 
ATOM     15  H   UNL     1       4.488   0.803  17.695  0.00  0.00    +0.000 HD
ATOM     16  H   UNL     1       3.456   0.582  19.081  0.00  0.00    +0.000 HD
ENDROOT
BRANCH   1  17
ATOM     17  C   UNL     1       6.569   4.210  14.925  0.00  0.00    +0.000 C 
BRANCH  17  18
ATOM     18  O   UNL     1       5.893   4.426  13.688  0.00  0.00    +0.000 OA
BRANCH  18  20
ATOM     19  C   UNL     1       5.088   3.149  11.837  0.00  0.00    +0.000 C 
ATOM     20  C   UNL     1       6.288   3.466  12.707  0.00  0.00    +0.000 C 
ENDBRANCH  18  20
ENDBRANCH  17  18
ENDBRANCH   1  17
BRANCH  14  21
ATOM     21  C   UNL     1       5.056   6.653  16.301  0.00  0.00    +0.000 C 
BRANCH  21  22
ATOM     22  C   UNL     1       5.989   7.508  17.167  0.00  0.00    +0.000 C 
BRANCH  22  23
ATOM     23  O   UNL     1       7.372   7.159  17.033  0.00  0.00    +0.000 OA
BRANCH  23  24
ATOM     24  C   UNL     1       7.993   6.957  18.304  0.00  0.00    +0.000 C 
BRANCH  24  25
ATOM     25  C   UNL     1       7.670   5.572  18.855  0.00  0.00    +0.000 C 
BRANCH  25  26
ATOM     26  N   UNL     1       7.934   5.535  20.296  0.00  0.00    +0.000 NA
ATOM     27  H   UNL     1       7.067   5.725  20.803  0.00  0.00    +0.000 HD
ATOM     28  H   UNL     1       8.574   6.289  20.525  0.00  0.00    +0.000 HD
ENDBRANCH  25  26
ENDBRANCH  24  25
ENDBRANCH  23  24
ENDBRANCH  22  23
ENDBRANCH  21  22
ENDBRANCH  14  21
TORSDOF 9
ENDMDL
MODEL 2
REMARK VINA RESULT:      -6.6      1.109      1.269
REMARK  Name = 
REMARK  10 active torsions:
REMARK  status: ('A' for Active; 'I' for Inactive)
REMARK    1  A    between atoms: C_1  and  C_2
REMARK    2  A    between atoms: C_2  and  O_3
REMARK    3  A    between atoms: O_3  and  C_4
REMARK    4  A    between atoms: C_4  and  C_5
REMARK    5  A    between atoms: N_18  and  C_19
REMARK    6  A    between atoms: C_19  and  C_20
REMARK    7  A    between atoms: C_20  and  O_21
REMARK    8  A    between atoms: O_21  and  C_22
REMARK    9  A    between atoms: C_22  and  C_23
REMARK   10  A    between atoms: C_23  and  N_24
REMARK                            x       y       z     vdW  Elec       q    Type
REMARK                         _______ _______ _______ _____ _____    ______ ____
ROOT
ATOM      1  C   UNL     1       5.241   4.031  16.089  0.00  0.00    +0.000 A 
ATOM      2  N   UNL     1       4.694   2.964  16.632  0.00  0.00    +0.000 NA
ATOM      3  C   UNL     1       3.850   3.421  17.609  0.00  0.00    +0.000 A 
ATOM      4  C   UNL     1       3.061   2.642  18.478  0.00  0.00    +0.000 A 
ATOM      5  N   UNL     1       3.000   1.258  18.378  0.00  0.00    +0.000 N 
ATOM      6  N   UNL     1       2.339   3.249  19.441  0.00  0.00    +0.000 NA
ATOM      7  C   UNL     1       2.326   4.584  19.534  0.00  0.00    +0.000 A 
ATOM      8  C   UNL     1       1.539   5.122  20.543  0.00  0.00    +0.000 A 
ATOM      9  C   UNL     1       1.414   6.498  20.737  0.00  0.00    +0.000 A 
ATOM     10  C   UNL     1       2.107   7.370  19.909  0.00  0.00    +0.000 A 
ATOM     11  C   UNL     1       2.924   6.867  18.896  0.00  0.00    +0.000 A 
ATOM     12  C   UNL     1       3.047   5.464  18.681  0.00  0.00    +0.000 A 
ATOM     13  C   UNL     1       3.848   4.813  17.684  0.00  0.00    +0.000 A 
ATOM     14  N   UNL     1       4.710   5.188  16.649  0.00  0.00    +0.000 N 
ATOM     15  H   UNL     1       3.779   0.865  17.860  0.00  0.00    +0.000 HD
ATOM     16  H   UNL     1       2.708   0.811  19.234  0.00  0.00    +0.000 HD
ENDROOT
BRANCH   1  17
ATOM     17  C   UNL     1       6.277   3.913  15.017  0.00  0.00    +0.000 C 
BRANCH  17  18
ATOM     18  O   UNL     1       5.672   4.262  13.774  0.00  0.00    +0.000 OA
BRANCH  18  20
ATOM     19  C   UNL     1       4.929   3.173  11.782  0.00  0.00    +0.000 C 
ATOM     20  C   UNL     1       6.094   3.386  12.728  0.00  0.00    +0.000 C 
ENDBRANCH  18  20
ENDBRANCH  17  18
ENDBRANCH   1  17
BRANCH  14  21
ATOM     21  C   UNL     1       5.035   6.559  16.284  0.00  0.00    +0.000 C 
BRANCH  21  22
ATOM     22  C   UNL     1       5.858   7.409  17.260  0.00  0.00    +0.000 C 
BRANCH  22  23
ATOM     23  O   UNL     1       7.208   7.622  16.832  0.00  0.00    +0.000 OA
BRANCH  23  24
ATOM     24  C   UNL     1       8.082   7.861  17.937  0.00  0.00    +0.000 C 
BRANCH  24  25
ATOM     25  C   UNL     1       8.382   9.348  18.085  0.00  0.00    +0.000 C 
BRANCH  25  26
ATOM     26  N   UNL     1       9.167   9.581  19.300  0.00  0.00    +0.000 NA
ATOM     27  H   UNL     1       9.399   8.682  19.729  0.00  0.00    +0.000 HD
ATOM     28  H   UNL     1       8.585  10.077  19.968  0.00  0.00    +0.000 HD
ENDBRANCH  25  26
ENDBRANCH  24  25
ENDBRANCH  23  24
ENDBRANCH  22  23
ENDBRANCH  21  22
ENDBRANCH  14  21
TORSDOF 9
ENDMDL
MODEL 3
REMARK VINA RESULT:      -6.5      0.984      1.273
REMARK  Name = 
REMARK  10 active torsions:
REMARK  status: ('A' for Active; 'I' for Inactive)
REMARK    1  A    between atoms: C_1  and  C_2
REMARK    2  A    between atoms: C_2  and  O_3
REMARK    3  A    between atoms: O_3  and  C_4
REMARK    4  A    between atoms: C_4  and  C_5
REMARK    5  A    between atoms: N_18  and  C_19
REMARK    6  A    between atoms: C_19  and  C_20
REMARK    7  A    between atoms: C_20  and  O_21
REMARK    8  A    between atoms: O_21  and  C_22
REMARK    9  A    between atoms: C_22  and  C_23
REMARK   10  A    between atoms: C_23  and  N_24
REMARK                            x       y       z     vdW  Elec       q    Type
REMARK                         _______ _______ _______ _____ _____    ______ ____
ROOT
ATOM      1  C   UNL     1       4.862   4.069  16.940  0.00  0.00    +0.000 A 
ATOM      2  N   UNL     1       4.266   3.185  17.710  0.00  0.00    +0.000 NA
ATOM      3  C   UNL     1       3.441   3.896  18.542  0.00  0.00    +0.000 A 
ATOM      4  C   UNL     1       2.616   3.378  19.559  0.00  0.00    +0.000 A 
ATOM      5  N   UNL     1       2.492   2.013  19.786  0.00  0.00    +0.000 N 
ATOM      6  N   UNL     1       1.921   4.225  20.344  0.00  0.00    +0.000 NA
ATOM      7  C   UNL     1       1.969   5.545  20.122  0.00  0.00    +0.000 A 
ATOM      8  C   UNL     1       1.206   6.339  20.966  0.00  0.00    +0.000 A 
ATOM      9  C   UNL     1       1.144   7.726  20.830  0.00  0.00    +0.000 A 
ATOM     10  C   UNL     1       1.877   8.347  19.830  0.00  0.00    +0.000 A 
ATOM     11  C   UNL     1       2.673   7.585  18.974  0.00  0.00    +0.000 A 
ATOM     12  C   UNL     1       2.732   6.166  19.096  0.00  0.00    +0.000 A 
ATOM     13  C   UNL     1       3.503   5.265  18.289  0.00  0.00    +0.000 A 
ATOM     14  N   UNL     1       4.384   5.348  17.206  0.00  0.00    +0.000 N 
ATOM     15  H   UNL     1       3.252   1.476  19.384  0.00  0.00    +0.000 HD
ATOM     16  H   UNL     1       2.178   1.793  20.719  0.00  0.00    +0.000 HD
ENDROOT
BRANCH   1  17
ATOM     17  C   UNL     1       5.893   3.657  15.938  0.00  0.00    +0.000 C 
BRANCH  17  18
ATOM     18  O   UNL     1       5.407   3.984  14.638  0.00  0.00    +0.000 OA
BRANCH  18  20
ATOM     19  C   UNL     1       6.195   3.511  12.434  0.00  0.00    +0.000 C 
ATOM     20  C   UNL     1       6.480   4.239  13.732  0.00  0.00    +0.000 C 
ENDBRANCH  18  20
ENDBRANCH  17  18
ENDBRANCH   1  17
BRANCH  14  21
ATOM     21  C   UNL     1       4.772   6.579  16.534  0.00  0.00    +0.000 C 
BRANCH  21  22
ATOM     22  C   UNL     1       5.994   7.349  17.049  0.00  0.00    +0.000 C 
BRANCH  22  23
ATOM     23  O   UNL     1       7.202   6.579  17.032  0.00  0.00    +0.000 OA
BRANCH  23  24
ATOM     24  C   UNL     1       7.872   6.620  18.293  0.00  0.00    +0.000 C 
BRANCH  24  25
ATOM     25  C   UNL     1       7.225   5.662  19.287  0.00  0.00    +0.000 C 
BRANCH  25  26
ATOM     26  N   UNL     1       8.108   5.464  20.438  0.00  0.00    +0.000 NA
ATOM     27  H   UNL     1       8.533   6.358  20.696  0.00  0.00    +0.000 HD
ATOM     28  H   UNL     1       8.870   4.853  20.157  0.00  0.00    +0.000 HD
ENDBRANCH  25  26
ENDBRANCH  24  25
ENDBRANCH  23  24
ENDBRANCH  22  23
ENDBRANCH  21  22
ENDBRANCH  14  21
TORSDOF 9
ENDMDL
MODEL 4
REMARK VINA RESULT:      -6.4      2.405      6.254
REMARK  Name = 
REMARK  10 active torsions:
REMARK  status: ('A' for Active; 'I' for Inactive)
REMARK    1  A    between atoms: C_1  and  C_2
REMARK    2  A    between atoms: C_2  and  O_3
REMARK    3  A    between atoms: O_3  and  C_4
REMARK    4  A    between atoms: C_4  and  C_5
REMARK    5  A    between atoms: N_18  and  C_19
REMARK    6  A    between atoms: C_19  and  C_20
REMARK    7  A    between atoms: C_20  and  O_21
REMARK    8  A    between atoms: O_21  and  C_22
REMARK    9  A    between atoms: C_22  and  C_23
REMARK   10  A    between atoms: C_23  and  N_24
REMARK                            x       y       z     vdW  Elec       q    Type
REMARK                         _______ _______ _______ _____ _____    ______ ____
ROOT
ATOM      1  C   UNL     1       3.707   5.511  19.581  0.00  0.00    +0.000 A 
ATOM      2  N   UNL     1       4.979   5.547  19.914  0.00  0.00    +0.000 NA
ATOM      3  C   UNL     1       5.683   5.330  18.759  0.00  0.00    +0.000 A 
ATOM      4  C   UNL     1       7.084   5.257  18.623  0.00  0.00    +0.000 A 
ATOM      5  N   UNL     1       7.942   5.481  19.693  0.00  0.00    +0.000 N 
ATOM      6  N   UNL     1       7.618   4.958  17.423  0.00  0.00    +0.000 NA
ATOM      7  C   UNL     1       6.828   4.791  16.355  0.00  0.00    +0.000 A 
ATOM      8  C   UNL     1       7.467   4.507  15.156  0.00  0.00    +0.000 A 
ATOM      9  C   UNL     1       6.767   4.335  13.961  0.00  0.00    +0.000 A 
ATOM     10  C   UNL     1       5.383   4.433  13.961  0.00  0.00    +0.000 A 
ATOM     11  C   UNL     1       4.703   4.698  15.150  0.00  0.00    +0.000 A 
ATOM     12  C   UNL     1       5.410   4.889  16.372  0.00  0.00    +0.000 A 
ATOM     13  C   UNL     1       4.842   5.165  17.660  0.00  0.00    +0.000 A 
ATOM     14  N   UNL     1       3.567   5.347  18.207  0.00  0.00    +0.000 N 
ATOM     15  H   UNL     1       7.483   5.391  20.593  0.00  0.00    +0.000 HD
ATOM     16  H   UNL     1       8.852   5.065  19.565  0.00  0.00    +0.000 HD
ENDROOT
BRANCH   1  17
ATOM     17  C   UNL     1       2.631   5.646  20.611  0.00  0.00    +0.000 C 
BRANCH  17  18
ATOM     18  O   UNL     1       2.580   4.435  21.362  0.00  0.00    +0.000 OA
BRANCH  18  20
ATOM     19  C   UNL     1       1.428   2.403  21.860  0.00  0.00    +0.000 C 
ATOM     20  C   UNL     1       1.370   3.720  21.111  0.00  0.00    +0.000 C 
ENDBRANCH  18  20
ENDBRANCH  17  18
ENDBRANCH   1  17
BRANCH  14  21
ATOM     21  C   UNL     1       2.320   5.300  17.458  0.00  0.00    +0.000 C 
BRANCH  21  22
ATOM     22  C   UNL     1       1.456   4.036  17.541  0.00  0.00    +0.000 C 
BRANCH  22  23
ATOM     23  O   UNL     1       2.149   2.845  17.148  0.00  0.00    +0.000 OA
BRANCH  23  24
ATOM     24  C   UNL     1       2.214   1.895  18.214  0.00  0.00    +0.000 C 
BRANCH  24  25
ATOM     25  C   UNL     1       3.618   1.832  18.804  0.00  0.00    +0.000 C 
BRANCH  25  26
ATOM     26  N   UNL     1       4.270   0.581  18.409  0.00  0.00    +0.000 NA
ATOM     27  H   UNL     1       4.067  -0.140  19.106  0.00  0.00    +0.000 HD
ATOM     28  H   UNL     1       5.275   0.723  18.426  0.00  0.00    +0.000 HD
ENDBRANCH  25  26
ENDBRANCH  24  25
ENDBRANCH  23  24
ENDBRANCH  22  23
ENDBRANCH  21  22
ENDBRANCH  14  21
TORSDOF 9
ENDMDL
MODEL 5
REMARK VINA RESULT:      -6.3      2.187      5.102
REMARK  Name = 
REMARK  10 active torsions:
REMARK  status: ('A' for Active; 'I' for Inactive)
REMARK    1  A    between atoms: C_1  and  C_2
REMARK    2  A    between atoms: C_2  and  O_3
REMARK    3  A    between atoms: O_3  and  C_4
REMARK    4  A    between atoms: C_4  and  C_5
REMARK    5  A    between atoms: N_18  and  C_19
REMARK    6  A    between atoms: C_19  and  C_20
REMARK    7  A    between atoms: C_20  and  O_21
REMARK    8  A    between atoms: O_21  and  C_22
REMARK    9  A    between atoms: C_22  and  C_23
REMARK   10  A    between atoms: C_23  and  N_24
REMARK                            x       y       z     vdW  Elec       q    Type
REMARK                         _______ _______ _______ _____ _____    ______ ____
ROOT
ATOM      1  C   UNL     1       6.225   7.049  17.388  0.00  0.00    +0.000 A 
ATOM      2  N   UNL     1       5.129   7.732  17.641  0.00  0.00    +0.000 NA
ATOM      3  C   UNL     1       4.139   6.807  17.842  0.00  0.00    +0.000 A 
ATOM      4  C   UNL     1       2.783   7.067  18.119  0.00  0.00    +0.000 A 
ATOM      5  N   UNL     1       2.300   8.357  18.299  0.00  0.00    +0.000 N 
ATOM      6  N   UNL     1       1.917   6.038  18.214  0.00  0.00    +0.000 NA
ATOM      7  C   UNL     1       2.352   4.777  18.103  0.00  0.00    +0.000 A 
ATOM      8  C   UNL     1       1.394   3.782  18.234  0.00  0.00    +0.000 A 
ATOM      9  C   UNL     1       1.713   2.426  18.166  0.00  0.00    +0.000 A 
ATOM     10  C   UNL     1       3.029   2.045  17.945  0.00  0.00    +0.000 A 
ATOM     11  C   UNL     1       4.018   3.016  17.788  0.00  0.00    +0.000 A 
ATOM     12  C   UNL     1       3.704   4.404  17.870  0.00  0.00    +0.000 A 
ATOM     13  C   UNL     1       4.616   5.502  17.727  0.00  0.00    +0.000 A 
ATOM     14  N   UNL     1       5.982   5.683  17.494  0.00  0.00    +0.000 N 
ATOM     15  H   UNL     1       2.916   9.066  17.917  0.00  0.00    +0.000 HD
ATOM     16  H   UNL     1       1.307   8.435  18.139  0.00  0.00    +0.000 HD
ENDROOT
BRANCH   1  17
ATOM     17  C   UNL     1       7.509   7.737  17.052  0.00  0.00    +0.000 C 
BRANCH  17  18
ATOM     18  O   UNL     1       8.050   8.282  18.255  0.00  0.00    +0.000 OA
BRANCH  18  20
ATOM     19  C   UNL     1       9.237  10.069  19.304  0.00  0.00    +0.000 C 
ATOM     20  C   UNL     1       8.479   9.630  18.066  0.00  0.00    +0.000 C 
ENDBRANCH  18  20
ENDBRANCH  17  18
ENDBRANCH   1  17
BRANCH  14  21
ATOM     21  C   UNL     1       6.953   4.612  17.325  0.00  0.00    +0.000 C 
BRANCH  21  22
ATOM     22  C   UNL     1       7.174   4.029  15.924  0.00  0.00    +0.000 C 
BRANCH  22  23
ATOM     23  O   UNL     1       7.759   4.959  15.005  0.00  0.00    +0.000 OA
BRANCH  23  24
ATOM     24  C   UNL     1       7.117   4.916  13.729  0.00  0.00    +0.000 C 
BRANCH  24  25
ATOM     25  C   UNL     1       6.050   3.828  13.690  0.00  0.00    +0.000 C 
BRANCH  25  26
ATOM     26  N   UNL     1       6.225   3.000  12.495  0.00  0.00    +0.000 NA
ATOM     27  H   UNL     1       6.037   2.023  12.730  0.00  0.00    +0.000 HD
ATOM     28  H   UNL     1       7.199   3.045  12.212  0.00  0.00    +0.000 HD
ENDBRANCH  25  26
ENDBRANCH  24  25
ENDBRANCH  23  24
ENDBRANCH  22  23
ENDBRANCH  21  22
ENDBRANCH  14  21
TORSDOF 9
ENDMDL
MODEL 6
REMARK VINA RESULT:      -6.2      2.430      6.265
REMARK  Name = 
REMARK  10 active torsions:
REMARK  status: ('A' for Active; 'I' for Inactive)
REMARK    1  A    between atoms: C_1  and  C_2
REMARK    2  A    between atoms: C_2  and  O_3
REMARK    3  A    between atoms: O_3  and  C_4
REMARK    4  A    between atoms: C_4  and  C_5
REMARK    5  A    between atoms: N_18  and  C_19
REMARK    6  A    between atoms: C_19  and  C_20
REMARK    7  A    between atoms: C_20  and  O_21
REMARK    8  A    between atoms: O_21  and  C_22
REMARK    9  A    between atoms: C_22  and  C_23
REMARK   10  A    between atoms: C_23  and  N_24
REMARK                            x       y       z     vdW  Elec       q    Type
REMARK                         _______ _______ _______ _____ _____    ______ ____
ROOT
ATOM      1  C   UNL     1       3.594   5.089  19.612  0.00  0.00    +0.000 A 
ATOM      2  N   UNL     1       4.846   5.291  19.963  0.00  0.00    +0.000 NA
ATOM      3  C   UNL     1       5.586   5.194  18.813  0.00  0.00    +0.000 A 
ATOM      4  C   UNL     1       6.985   5.313  18.695  0.00  0.00    +0.000 A 
ATOM      5  N   UNL     1       7.793   5.632  19.779  0.00  0.00    +0.000 N 
ATOM      6  N   UNL     1       7.568   5.113  17.497  0.00  0.00    +0.000 NA
ATOM      7  C   UNL     1       6.819   4.861  16.416  0.00  0.00    +0.000 A 
ATOM      8  C   UNL     1       7.503   4.688  15.221  0.00  0.00    +0.000 A 
ATOM      9  C   UNL     1       6.847   4.445  14.014  0.00  0.00    +0.000 A 
ATOM     10  C   UNL     1       5.462   4.355  13.997  0.00  0.00    +0.000 A 
ATOM     11  C   UNL     1       4.740   4.502  15.181  0.00  0.00    +0.000 A 
ATOM     12  C   UNL     1       5.401   4.765  16.416  0.00  0.00    +0.000 A 
ATOM     13  C   UNL     1       4.787   4.936  17.701  0.00  0.00    +0.000 A 
ATOM     14  N   UNL     1       3.494   4.933  18.234  0.00  0.00    +0.000 N 
ATOM     15  H   UNL     1       7.340   5.463  20.672  0.00  0.00    +0.000 HD
ATOM     16  H   UNL     1       8.752   5.346  19.656  0.00  0.00    +0.000 HD
ENDROOT
BRANCH   1  17
ATOM     17  C   UNL     1       2.499   5.058  20.630  0.00  0.00    +0.000 C 
BRANCH  17  18
ATOM     18  O   UNL     1       2.358   6.369  21.172  0.00  0.00    +0.000 OA
BRANCH  18  20
ATOM     19  C   UNL     1       1.151   8.417  20.941  0.00  0.00    +0.000 C 
ATOM     20  C   UNL     1       1.824   7.275  20.206  0.00  0.00    +0.000 C 
ENDBRANCH  18  20
ENDBRANCH  17  18
ENDBRANCH   1  17
BRANCH  14  21
ATOM     21  C   UNL     1       2.272   4.732  17.468  0.00  0.00    +0.000 C 
BRANCH  21  22
ATOM     22  C   UNL     1       1.377   3.534  17.808  0.00  0.00    +0.000 C 
BRANCH  22  23
ATOM     23  O   UNL     1       2.014   2.268  17.601  0.00  0.00    +0.000 OA
BRANCH  23  24
ATOM     24  C   UNL     1       2.540   1.735  18.818  0.00  0.00    +0.000 C 
BRANCH  24  25
ATOM     25  C   UNL     1       4.005   1.348  18.656  0.00  0.00    +0.000 C 
BRANCH  25  26
ATOM     26  N   UNL     1       4.790   1.888  19.769  0.00  0.00    +0.000 NA
ATOM     27  H   UNL     1       5.072   1.122  20.385  0.00  0.00    +0.000 HD
ATOM     28  H   UNL     1       4.190   2.495  20.320  0.00  0.00    +0.000 HD
ENDBRANCH  25  26
ENDBRANCH  24  25
ENDBRANCH  23  24
ENDBRANCH  22  23
ENDBRANCH  21  22
ENDBRANCH  14  21
TORSDOF 9
ENDMDL
MODEL 7
REMARK VINA RESULT:      -6.1      3.725      5.986
REMARK  Name = 
REMARK  10 active torsions:
REMARK  status: ('A' for Active; 'I' for Inactive)
REMARK    1  A    between atoms: C_1  and  C_2
REMARK    2  A    between atoms: C_2  and  O_3
REMARK    3  A    between atoms: O_3  and  C_4
REMARK    4  A    between atoms: C_4  and  C_5
REMARK    5  A    between atoms: N_18  and  C_19
REMARK    6  A    between atoms: C_19  and  C_20
REMARK    7  A    between atoms: C_20  and  O_21
REMARK    8  A    between atoms: O_21  and  C_22
REMARK    9  A    between atoms: C_22  and  C_23
REMARK   10  A    between atoms: C_23  and  N_24
REMARK                            x       y       z     vdW  Elec       q    Type
REMARK                         _______ _______ _______ _____ _____    ______ ____
ROOT
ATOM      1  C   UNL     1       2.682   6.902  18.507  0.00  0.00    +0.000 A 
ATOM      2  N   UNL     1       2.686   8.095  17.951  0.00  0.00    +0.000 NA
ATOM      3  C   UNL     1       2.003   8.918  18.807  0.00  0.00    +0.000 A 
ATOM      4  C   UNL     1       1.729  10.288  18.625  0.00  0.00    +0.000 A 
ATOM      5  N   UNL     1       2.211  10.999  17.533  0.00  0.00    +0.000 N 
ATOM      6  N   UNL     1       0.973  10.939  19.532  0.00  0.00    +0.000 NA
ATOM      7  C   UNL     1       0.536  10.304  20.627  0.00  0.00    +0.000 A 
ATOM      8  C   UNL     1      -0.217  11.058  21.515  0.00  0.00    +0.000 A 
ATOM      9  C   UNL     1      -0.713  10.530  22.707  0.00  0.00    +0.000 A 
ATOM     10  C   UNL     1      -0.464   9.201  23.020  0.00  0.00    +0.000 A 
ATOM     11  C   UNL     1       0.272   8.405  22.143  0.00  0.00    +0.000 A 
ATOM     12  C   UNL     1       0.795   8.939  20.930  0.00  0.00    +0.000 A 
ATOM     13  C   UNL     1       1.564   8.239  19.942  0.00  0.00    +0.000 A 
ATOM     14  N   UNL     1       2.068   6.948  19.753  0.00  0.00    +0.000 N 
ATOM     15  H   UNL     1       2.492  10.399  16.765  0.00  0.00    +0.000 HD
ATOM     16  H   UNL     1       1.676  11.830  17.333  0.00  0.00    +0.000 HD
ENDROOT
BRANCH   1  17
ATOM     17  C   UNL     1       3.288   5.722  17.816  0.00  0.00    +0.000 C 
BRANCH  17  18
ATOM     18  O   UNL     1       4.685   5.707  18.104  0.00  0.00    +0.000 OA
BRANCH  18  20
ATOM     19  C   UNL     1       5.019   4.398  16.135  0.00  0.00    +0.000 C 
ATOM     20  C   UNL     1       5.461   5.625  16.908  0.00  0.00    +0.000 C 
ENDBRANCH  18  20
ENDBRANCH  17  18
ENDBRANCH   1  17
BRANCH  14  21
ATOM     21  C   UNL     1       1.906   5.841  20.684  0.00  0.00    +0.000 C 
BRANCH  21  22
ATOM     22  C   UNL     1       0.962   4.692  20.309  0.00  0.00    +0.000 C 
BRANCH  22  23
ATOM     23  O   UNL     1       1.528   3.394  20.525  0.00  0.00    +0.000 OA
BRANCH  23  24
ATOM     24  C   UNL     1       2.949   3.453  20.665  0.00  0.00    +0.000 C 
BRANCH  24  25
ATOM     25  C   UNL     1       3.631   2.461  19.730  0.00  0.00    +0.000 C 
BRANCH  25  26
ATOM     26  N   UNL     1       5.010   2.884  19.474  0.00  0.00    +0.000 NA
ATOM     27  H   UNL     1       5.653   2.247  19.950  0.00  0.00    +0.000 HD
ATOM     28  H   UNL     1       5.149   3.799  19.893  0.00  0.00    +0.000 HD
ENDBRANCH  25  26
ENDBRANCH  24  25
ENDBRANCH  23  24
ENDBRANCH  22  23
ENDBRANCH  21  22
ENDBRANCH  14  21
TORSDOF 9
ENDMDL
MODEL 8
REMARK VINA RESULT:      -6.1      2.465      6.517
REMARK  Name = 
REMARK  10 active torsions:
REMARK  status: ('A' for Active; 'I' for Inactive)
REMARK    1  A    between atoms: C_1  and  C_2
REMARK    2  A    between atoms: C_2  and  O_3
REMARK    3  A    between atoms: O_3  and  C_4
REMARK    4  A    between atoms: C_4  and  C_5
REMARK    5  A    between atoms: N_18  and  C_19
REMARK    6  A    between atoms: C_19  and  C_20
REMARK    7  A    between atoms: C_20  and  O_21
REMARK    8  A    between atoms: O_21  and  C_22
REMARK    9  A    between atoms: C_22  and  C_23
REMARK   10  A    between atoms: C_23  and  N_24
REMARK                            x       y       z     vdW  Elec       q    Type
REMARK                         _______ _______ _______ _____ _____    ______ ____
ROOT
ATOM      1  C   UNL     1       4.344   5.367  18.502  0.00  0.00    +0.000 A 
ATOM      2  N   UNL     1       5.446   6.080  18.414  0.00  0.00    +0.000 NA
ATOM      3  C   UNL     1       5.973   5.819  17.176  0.00  0.00    +0.000 A 
ATOM      4  C   UNL     1       7.167   6.338  16.639  0.00  0.00    +0.000 A 
ATOM      5  N   UNL     1       7.936   7.275  17.318  0.00  0.00    +0.000 N 
ATOM      6  N   UNL     1       7.587   5.919  15.429  0.00  0.00    +0.000 NA
ATOM      7  C   UNL     1       6.845   5.060  14.718  0.00  0.00    +0.000 A 
ATOM      8  C   UNL     1       7.345   4.699  13.475  0.00  0.00    +0.000 A 
ATOM      9  C   UNL     1       6.663   3.833  12.620  0.00  0.00    +0.000 A 
ATOM     10  C   UNL     1       5.448   3.295  13.020  0.00  0.00    +0.000 A 
ATOM     11  C   UNL     1       4.923   3.618  14.272  0.00  0.00    +0.000 A 
ATOM     12  C   UNL     1       5.605   4.513  15.146  0.00  0.00    +0.000 A 
ATOM     13  C   UNL     1       5.182   4.929  16.452  0.00  0.00    +0.000 A 
ATOM     14  N   UNL     1       4.101   4.696  17.308  0.00  0.00    +0.000 N 
ATOM     15  H   UNL     1       7.735   7.305  18.312  0.00  0.00    +0.000 HD
ATOM     16  H   UNL     1       8.897   7.295  17.013  0.00  0.00    +0.000 HD
ENDROOT
BRANCH   1  17
ATOM     17  C   UNL     1       3.527   5.351  19.755  0.00  0.00    +0.000 C 
BRANCH  17  18
ATOM     18  O   UNL     1       2.259   5.936  19.467  0.00  0.00    +0.000 OA
BRANCH  18  20
ATOM     19  C   UNL     1       2.115   8.037  18.341  0.00  0.00    +0.000 C 
ATOM     20  C   UNL     1       2.278   7.347  19.681  0.00  0.00    +0.000 C 
ENDBRANCH  18  20
ENDBRANCH  17  18
ENDBRANCH   1  17
BRANCH  14  21
ATOM     21  C   UNL     1       2.962   3.842  17.006  0.00  0.00    +0.000 C 
BRANCH  21  22
ATOM     22  C   UNL     1       2.982   2.386  17.485  0.00  0.00    +0.000 C 
BRANCH  22  23
ATOM     23  O   UNL     1       2.590   2.230  18.854  0.00  0.00    +0.000 OA
BRANCH  23  24
ATOM     24  C   UNL     1       1.209   2.542  19.048  0.00  0.00    +0.000 C 
BRANCH  24  25
ATOM     25  C   UNL     1       0.920   2.861  20.510  0.00  0.00    +0.000 C 
BRANCH  25  26
ATOM     26  N   UNL     1       2.085   2.526  21.333  0.00  0.00    +0.000 NA
ATOM     27  H   UNL     1       2.530   1.683  20.962  0.00  0.00    +0.000 HD
ATOM     28  H   UNL     1       1.762   2.294  22.268  0.00  0.00    +0.000 HD
ENDBRANCH  25  26
ENDBRANCH  24  25
ENDBRANCH  23  24
ENDBRANCH  22  23
ENDBRANCH  21  22
ENDBRANCH  14  21
TORSDOF 9
ENDMDL
MODEL 9
REMARK VINA RESULT:      -6.0      3.351      5.898
REMARK  Name = 
REMARK  10 active torsions:
REMARK  status: ('A' for Active; 'I' for Inactive)
REMARK    1  A    between atoms: C_1  and  C_2
REMARK    2  A    between atoms: C_2  and  O_3
REMARK    3  A    between atoms: O_3  and  C_4
REMARK    4  A    between atoms: C_4  and  C_5
REMARK    5  A    between atoms: N_18  and  C_19
REMARK    6  A    between atoms: C_19  and  C_20
REMARK    7  A    between atoms: C_20  and  O_21
REMARK    8  A    between atoms: O_21  and  C_22
REMARK    9  A    between atoms: C_22  and  C_23
REMARK   10  A    between atoms: C_23  and  N_24
REMARK                            x       y       z     vdW  Elec       q    Type
REMARK                         _______ _______ _______ _____ _____    ______ ____
ROOT
ATOM      1  C   UNL     1       4.410   2.759  20.345  0.00  0.00    +0.000 A 
ATOM      2  N   UNL     1       5.319   2.961  19.415  0.00  0.00    +0.000 NA
ATOM      3  C   UNL     1       5.022   4.173  18.847  0.00  0.00    +0.000 A 
ATOM      4  C   UNL     1       5.707   4.800  17.788  0.00  0.00    +0.000 A 
ATOM      5  N   UNL     1       6.858   4.259  17.229  0.00  0.00    +0.000 N 
ATOM      6  N   UNL     1       5.238   5.962  17.292  0.00  0.00    +0.000 NA
ATOM      7  C   UNL     1       4.164   6.545  17.840  0.00  0.00    +0.000 A 
ATOM      8  C   UNL     1       3.764   7.749  17.277  0.00  0.00    +0.000 A 
ATOM      9  C   UNL     1       2.678   8.476  17.766  0.00  0.00    +0.000 A 
ATOM     10  C   UNL     1       1.954   7.981  18.841  0.00  0.00    +0.000 A 
ATOM     11  C   UNL     1       2.313   6.764  19.421  0.00  0.00    +0.000 A 
ATOM     12  C   UNL     1       3.429   6.021  18.939  0.00  0.00    +0.000 A 
ATOM     13  C   UNL     1       3.906   4.763  19.437  0.00  0.00    +0.000 A 
ATOM     14  N   UNL     1       3.563   3.857  20.445  0.00  0.00    +0.000 N 
ATOM     15  H   UNL     1       6.967   3.271  17.430  0.00  0.00    +0.000 HD
ATOM     16  H   UNL     1       7.038   4.590  16.294  0.00  0.00    +0.000 HD
ENDROOT
BRANCH   1  17
ATOM     17  C   UNL     1       4.380   1.492  21.139  0.00  0.00    +0.000 C 
BRANCH  17  18
ATOM     18  O   UNL     1       5.718   1.169  21.512  0.00  0.00    +0.000 OA
BRANCH  18  20
ATOM     19  C   UNL     1       6.742  -0.765  22.469  0.00  0.00    +0.000 C 
ATOM     20  C   UNL     1       6.007  -0.208  21.266  0.00  0.00    +0.000 C 
ENDBRANCH  18  20
ENDBRANCH  17  18
ENDBRANCH   1  17
BRANCH  14  21
ATOM     21  C   UNL     1       2.462   4.024  21.382  0.00  0.00    +0.000 C 
BRANCH  21  22
ATOM     22  C   UNL     1       1.161   3.250  21.139  0.00  0.00    +0.000 C 
BRANCH  22  23
ATOM     23  O   UNL     1       0.543   3.551  19.883  0.00  0.00    +0.000 OA
BRANCH  23  24
ATOM     24  C   UNL     1       0.630   2.452  18.973  0.00  0.00    +0.000 C 
BRANCH  24  25
ATOM     25  C   UNL     1       1.645   2.734  17.871  0.00  0.00    +0.000 C 
BRANCH  25  26
ATOM     26  N   UNL     1       2.625   1.648  17.806  0.00  0.00    +0.000 NA
ATOM     27  H   UNL     1       3.291   1.839  17.053  0.00  0.00    +0.000 HD
ATOM     28  H   UNL     1       2.140   0.793  17.551  0.00  0.00    +0.000 HD
ENDBRANCH  25  26
ENDBRANCH  24  25
ENDBRANCH  23  24
ENDBRANCH  22  23
ENDBRANCH  21  22
ENDBRANCH  14  21
TORSDOF 9
ENDMDL
