MODEL 1
REMARK VINA RESULT:      -7.7      0.000      0.000
REMARK  Name = 
REMARK  5 active torsions:
REMARK  status: ('A' for Active; 'I' for Inactive)
REMARK    1  A    between atoms: C_2  and  C_11
REMARK    2  A    between atoms: N_3  and  C_4
REMARK    3  A    between atoms: N_13  and  C_14
REMARK    4  A    between atoms: C_14  and  C_15
REMARK    5  A    between atoms: C_15  and  O_16
REMARK                            x       y       z     vdW  Elec       q    Type
REMARK                         _______ _______ _______ _____ _____    ______ ____
ROOT
ATOM      1  C   UNL     1      -0.237  10.465  18.069  0.00  0.00    +0.000 A 
ATOM      2  C   UNL     1      -1.267   9.784  17.534  0.00  0.00    +0.000 A 
ATOM      3  N   UNL     1      -2.543  10.326  17.242  0.00  0.00    +0.000 N 
ATOM      4  C   UNL     1      -2.993  11.283  18.247  0.00  0.00    +0.000 A 
ATOM      5  C   UNL     1      -1.997  12.013  18.925  0.00  0.00    +0.000 A 
ATOM      6  C   UNL     1      -2.305  12.854  19.984  0.00  0.00    +0.000 A 
ATOM      7  C   UNL     1      -3.633  12.945  20.395  0.00  0.00    +0.000 A 
ATOM      8 CL   UNL     1      -3.936  13.885  21.819  0.00  0.00    +0.000 Cl
ATOM      9  C   UNL     1      -4.682  12.297  19.724  0.00  0.00    +0.000 A 
ATOM     10  N   UNL     1      -5.956  12.474  20.143  0.00  0.00    +0.000 NA
ATOM     11  C   UNL     1      -6.969  11.877  19.482  0.00  0.00    +0.000 A 
ATOM     12  C   UNL     1      -6.774  11.086  18.378  0.00  0.00    +0.000 A 
ATOM     13  C   UNL     1      -5.461  10.860  17.953  0.00  0.00    +0.000 A 
ATOM     14  C   UNL     1      -4.364  11.464  18.611  0.00  0.00    +0.000 A 
ATOM     15  C   UNL     1      -0.593  11.831  18.517  0.00  0.00    +0.000 A 
ATOM     16  O   UNL     1       0.223  12.742  18.573  0.00  0.00    +0.000 OA
ENDROOT
BRANCH   1  18
ATOM     17  O   UNL     1       2.115  10.645  18.183  0.00  0.00    +0.000 OA
ATOM     18  C   UNL     1       1.144   9.899  18.145  0.00  0.00    +0.000 C 
ATOM     19  N   UNL     1       1.159   8.518  18.209  0.00  0.00    +0.000 N 
ATOM     20  H   UNL     1       0.247   8.057  18.196  0.00  0.00    +0.000 HD
BRANCH  19  21
ATOM     21  C   UNL     1       2.263   7.647  18.309  0.00  0.00    +0.000 A 
ATOM     22  C   UNL     1       3.314   7.596  17.393  0.00  0.00    +0.000 A 
ATOM     23  C   UNL     1       4.367   6.687  17.573  0.00  0.00    +0.000 A 
ATOM     24  C   UNL     1       4.375   5.834  18.673  0.00  0.00    +0.000 A 
ATOM     25 CL   UNL     1       5.672   4.724  18.894  0.00  0.00    +0.000 Cl
ATOM     26  C   UNL     1       3.336   5.877  19.596  0.00  0.00    +0.000 A 
ATOM     27  C   UNL     1       2.282   6.778  19.412  0.00  0.00    +0.000 A 
ENDBRANCH  19  21
ENDBRANCH   1  18
BRANCH   3  28
ATOM     28  C   UNL     1      -2.632  11.054  15.918  0.00  0.00    +0.000 C 
BRANCH  28  29
ATOM     29  C   UNL     1      -3.426  10.278  14.854  0.00  0.00    +0.000 C 
BRANCH  29  30
ATOM     30  O   UNL     1      -2.641  10.044  13.690  0.00  0.00    +0.000 OA
ATOM     31  H   UNL     1      -2.549   9.079  13.605  0.00  0.00    +0.000 HD
ENDBRANCH  29  30
ENDBRANCH  28  29
ENDBRANCH   3  28
TORSDOF 5
ENDMDL
MODEL 2
REMARK VINA RESULT:      -7.6      3.323      4.903
REMARK  Name = 
REMARK  5 active torsions:
REMARK  status: ('A' for Active; 'I' for Inactive)
REMARK    1  A    between atoms: C_2  and  C_11
REMARK    2  A    between atoms: N_3  and  C_4
REMARK    3  A    between atoms: N_13  and  C_14
REMARK    4  A    between atoms: C_14  and  C_15
REMARK    5  A    between atoms: C_15  and  O_16
REMARK                            x       y       z     vdW  Elec       q    Type
REMARK                         _______ _______ _______ _____ _____    ______ ____
ROOT
ATOM      1  C   UNL     1       0.990   9.911  19.839  0.00  0.00    +0.000 A 
ATOM      2  C   UNL     1      -0.016  10.632  20.367  0.00  0.00    +0.000 A 
ATOM      3  N   UNL     1      -0.567  11.806  19.797  0.00  0.00    +0.000 N 
ATOM      4  C   UNL     1       0.441  12.659  19.176  0.00  0.00    +0.000 A 
ATOM      5  C   UNL     1       1.578  12.020  18.643  0.00  0.00    +0.000 A 
ATOM      6  C   UNL     1       2.653  12.742  18.146  0.00  0.00    +0.000 A 
ATOM      7  C   UNL     1       2.604  14.133  18.209  0.00  0.00    +0.000 A 
ATOM      8 CL   UNL     1       4.036  14.977  17.720  0.00  0.00    +0.000 Cl
ATOM      9  C   UNL     1       1.477  14.834  18.666  0.00  0.00    +0.000 A 
ATOM     10  N   UNL     1       1.476  16.186  18.648  0.00  0.00    +0.000 NA
ATOM     11  C   UNL     1       0.383  16.863  19.058  0.00  0.00    +0.000 A 
ATOM     12  C   UNL     1      -0.756  16.238  19.499  0.00  0.00    +0.000 A 
ATOM     13  C   UNL     1      -0.762  14.841  19.561  0.00  0.00    +0.000 A 
ATOM     14  C   UNL     1       0.359  14.086  19.140  0.00  0.00    +0.000 A 
ATOM     15  C   UNL     1       1.631  10.548  18.666  0.00  0.00    +0.000 A 
ATOM     16  O   UNL     1       2.191   9.904  17.788  0.00  0.00    +0.000 OA
ENDROOT
BRANCH   1  18
ATOM     17  O   UNL     1       1.096   8.256  21.521  0.00  0.00    +0.000 OA
ATOM     18  C   UNL     1       1.374   8.567  20.368  0.00  0.00    +0.000 C 
ATOM     19  N   UNL     1       1.996   7.771  19.424  0.00  0.00    +0.000 N 
ATOM     20  H   UNL     1       2.119   8.185  18.498  0.00  0.00    +0.000 HD
BRANCH  19  21
ATOM     21  C   UNL     1       2.473   6.451  19.553  0.00  0.00    +0.000 A 
ATOM     22  C   UNL     1       1.889   5.477  20.364  0.00  0.00    +0.000 A 
ATOM     23  C   UNL     1       2.442   4.189  20.433  0.00  0.00    +0.000 A 
ATOM     24  C   UNL     1       3.574   3.872  19.687  0.00  0.00    +0.000 A 
ATOM     25 CL   UNL     1       4.247   2.290  19.771  0.00  0.00    +0.000 Cl
ATOM     26  C   UNL     1       4.163   4.832  18.872  0.00  0.00    +0.000 A 
ATOM     27  C   UNL     1       3.616   6.118  18.808  0.00  0.00    +0.000 A 
ENDBRANCH  19  21
ENDBRANCH   1  18
BRANCH   3  28
ATOM     28  C   UNL     1      -1.607  11.560  18.725  0.00  0.00    +0.000 C 
BRANCH  28  29
ATOM     29  C   UNL     1      -3.023  11.986  19.148  0.00  0.00    +0.000 C 
BRANCH  29  30
ATOM     30  O   UNL     1      -3.877  12.139  18.020  0.00  0.00    +0.000 OA
ATOM     31  H   UNL     1      -3.671  13.006  17.629  0.00  0.00    +0.000 HD
ENDBRANCH  29  30
ENDBRANCH  28  29
ENDBRANCH   3  28
TORSDOF 5
ENDMDL
MODEL 3
REMARK VINA RESULT:      -7.6      3.299      4.819
REMARK  Name = 
REMARK  5 active torsions:
REMARK  status: ('A' for Active; 'I' for Inactive)
REMARK    1  A    between atoms: C_2  and  C_11
REMARK    2  A    between atoms: N_3  and  C_4
REMARK    3  A    between atoms: N_13  and  C_14
REMARK    4  A    between atoms: C_14  and  C_15
REMARK    5  A    between atoms: C_15  and  O_16
REMARK                            x       y       z     vdW  Elec       q    Type
REMARK                         _______ _______ _______ _____ _____    ______ ____
ROOT
ATOM      1  C   UNL     1       1.198   9.445  19.349  0.00  0.00    +0.000 A 
ATOM      2  C   UNL     1       0.152  10.076  19.915  0.00  0.00    +0.000 A 
ATOM      3  N   UNL     1      -0.417  11.289  19.455  0.00  0.00    +0.000 N 
ATOM      4  C   UNL     1       0.582  12.232  18.966  0.00  0.00    +0.000 A 
ATOM      5  C   UNL     1       1.756  11.687  18.408  0.00  0.00    +0.000 A 
ATOM      6  C   UNL     1       2.822  12.490  18.029  0.00  0.00    +0.000 A 
ATOM      7  C   UNL     1       2.726  13.863  18.239  0.00  0.00    +0.000 A 
ATOM      8 CL   UNL     1       4.146  14.796  17.895  0.00  0.00    +0.000 Cl
ATOM      9  C   UNL     1       1.563  14.478  18.729  0.00  0.00    +0.000 A 
ATOM     10  N   UNL     1       1.519  15.824  18.856  0.00  0.00    +0.000 NA
ATOM     11  C   UNL     1       0.392  16.421  19.297  0.00  0.00    +0.000 A 
ATOM     12  C   UNL     1      -0.740  15.720  19.627  0.00  0.00    +0.000 A 
ATOM     13  C   UNL     1      -0.703  14.325  19.539  0.00  0.00    +0.000 A 
ATOM     14  C   UNL     1       0.455  13.652  19.080  0.00  0.00    +0.000 A 
ATOM     15  C   UNL     1       1.855  10.224  18.275  0.00  0.00    +0.000 A 
ATOM     16  O   UNL     1       2.464   9.695  17.353  0.00  0.00    +0.000 OA
ENDROOT
BRANCH   1  18
ATOM     17  O   UNL     1       1.469   7.688  20.903  0.00  0.00    +0.000 OA
ATOM     18  C   UNL     1       1.607   8.063  19.745  0.00  0.00    +0.000 C 
ATOM     19  N   UNL     1       2.083   7.316  18.684  0.00  0.00    +0.000 N 
ATOM     20  H   UNL     1       2.099   7.784  17.775  0.00  0.00    +0.000 HD
BRANCH  19  21
ATOM     21  C   UNL     1       2.534   5.980  18.672  0.00  0.00    +0.000 A 
ATOM     22  C   UNL     1       3.664   5.523  19.351  0.00  0.00    +0.000 A 
ATOM     23  C   UNL     1       4.040   4.174  19.272  0.00  0.00    +0.000 A 
ATOM     24  C   UNL     1       3.284   3.279  18.520  0.00  0.00    +0.000 A 
ATOM     25 CL   UNL     1       3.745   1.624  18.429  0.00  0.00    +0.000 Cl
ATOM     26  C   UNL     1       2.154   3.721  17.842  0.00  0.00    +0.000 A 
ATOM     27  C   UNL     1       1.782   5.068  17.914  0.00  0.00    +0.000 A 
ENDBRANCH  19  21
ENDBRANCH   1  18
BRANCH   3  28
ATOM     28  C   UNL     1      -1.414  11.130  18.327  0.00  0.00    +0.000 C 
BRANCH  28  29
ATOM     29  C   UNL     1      -2.841  11.551  18.718  0.00  0.00    +0.000 C 
BRANCH  29  30
ATOM     30  O   UNL     1      -3.817  10.781  18.025  0.00  0.00    +0.000 OA
ATOM     31  H   UNL     1      -4.129  10.101  18.647  0.00  0.00    +0.000 HD
ENDBRANCH  29  30
ENDBRANCH  28  29
ENDBRANCH   3  28
TORSDOF 5
ENDMDL
MODEL 4
REMARK VINA RESULT:      -7.3      7.354      9.508
REMARK  Name = 
REMARK  5 active torsions:
REMARK  status: ('A' for Active; 'I' for Inactive)
REMARK    1  A    between atoms: C_2  and  C_11
REMARK    2  A    between atoms: N_3  and  C_4
REMARK    3  A    between atoms: N_13  and  C_14
REMARK    4  A    between atoms: C_14  and  C_15
REMARK    5  A    between atoms: C_15  and  O_16
REMARK                            x       y       z     vdW  Elec       q    Type
REMARK                         _______ _______ _______ _____ _____    ______ ____
ROOT
ATOM      1  C   UNL     1       6.491   6.704  17.272  0.00  0.00    +0.000 A 
ATOM      2  C   UNL     1       6.682   5.380  17.122  0.00  0.00    +0.000 A 
ATOM      3  N   UNL     1       5.655   4.420  16.949  0.00  0.00    +0.000 N 
ATOM      4  C   UNL     1       4.472   4.707  17.753  0.00  0.00    +0.000 A 
ATOM      5  C   UNL     1       4.203   6.062  18.033  0.00  0.00    +0.000 A 
ATOM      6  C   UNL     1       3.181   6.438  18.892  0.00  0.00    +0.000 A 
ATOM      7  C   UNL     1       2.429   5.439  19.507  0.00  0.00    +0.000 A 
ATOM      8 CL   UNL     1       1.273   5.962  20.688  0.00  0.00    +0.000 Cl
ATOM      9  C   UNL     1       2.600   4.075  19.223  0.00  0.00    +0.000 A 
ATOM     10  N   UNL     1       1.798   3.162  19.816  0.00  0.00    +0.000 NA
ATOM     11  C   UNL     1       1.940   1.852  19.522  0.00  0.00    +0.000 A 
ATOM     12  C   UNL     1       2.873   1.387  18.630  0.00  0.00    +0.000 A 
ATOM     13  C   UNL     1       3.737   2.311  18.037  0.00  0.00    +0.000 A 
ATOM     14  C   UNL     1       3.628   3.696  18.310  0.00  0.00    +0.000 A 
ATOM     15  C   UNL     1       5.069   7.088  17.429  0.00  0.00    +0.000 A 
ATOM     16  O   UNL     1       4.643   8.190  17.106  0.00  0.00    +0.000 OA
ENDROOT
BRANCH   1  18
ATOM     17  O   UNL     1       8.569   7.496  16.478  0.00  0.00    +0.000 OA
ATOM     18  C   UNL     1       7.617   7.685  17.226  0.00  0.00    +0.000 C 
ATOM     19  N   UNL     1       7.418   8.776  18.053  0.00  0.00    +0.000 N 
ATOM     20  H   UNL     1       6.547   8.783  18.586  0.00  0.00    +0.000 HD
BRANCH  19  21
ATOM     21  C   UNL     1       8.246   9.899  18.252  0.00  0.00    +0.000 A 
ATOM     22  C   UNL     1       8.168  11.078  17.509  0.00  0.00    +0.000 A 
ATOM     23  C   UNL     1       9.043  12.142  17.776  0.00  0.00    +0.000 A 
ATOM     24  C   UNL     1       9.991  12.032  18.789  0.00  0.00    +0.000 A 
ATOM     25 CL   UNL     1      11.059  13.340  19.117  0.00  0.00    +0.000 Cl
ATOM     26  C   UNL     1      10.076  10.864  19.540  0.00  0.00    +0.000 A 
ATOM     27  C   UNL     1       9.209   9.800  19.269  0.00  0.00    +0.000 A 
ENDBRANCH  19  21
ENDBRANCH   1  18
BRANCH   3  28
ATOM     28  C   UNL     1       5.155   4.279  15.527  0.00  0.00    +0.000 C 
BRANCH  28  29
ATOM     29  C   UNL     1       6.273   4.404  14.478  0.00  0.00    +0.000 C 
BRANCH  29  30
ATOM     30  O   UNL     1       6.259   3.306  13.573  0.00  0.00    +0.000 OA
ATOM     31  H   UNL     1       5.628   3.533  12.868  0.00  0.00    +0.000 HD
ENDBRANCH  29  30
ENDBRANCH  28  29
ENDBRANCH   3  28
TORSDOF 5
ENDMDL
MODEL 5
REMARK VINA RESULT:      -7.3      2.457      8.738
REMARK  Name = 
REMARK  5 active torsions:
REMARK  status: ('A' for Active; 'I' for Inactive)
REMARK    1  A    between atoms: C_2  and  C_11
REMARK    2  A    between atoms: N_3  and  C_4
REMARK    3  A    between atoms: N_13  and  C_14
REMARK    4  A    between atoms: C_14  and  C_15
REMARK    5  A    between atoms: C_15  and  O_16
REMARK                            x       y       z     vdW  Elec       q    Type
REMARK                         _______ _______ _______ _____ _____    ______ ____
ROOT
ATOM      1  C   UNL     1      -0.280  10.353  19.280  0.00  0.00    +0.000 A 
ATOM      2  C   UNL     1      -0.575   9.389  20.171  0.00  0.00    +0.000 A 
ATOM      3  N   UNL     1       0.366   8.523  20.781  0.00  0.00    +0.000 N 
ATOM      4  C   UNL     1       1.426   8.108  19.869  0.00  0.00    +0.000 A 
ATOM      5  C   UNL     1       1.779   9.012  18.847  0.00  0.00    +0.000 A 
ATOM      6  C   UNL     1       2.682   8.668  17.852  0.00  0.00    +0.000 A 
ATOM      7  C   UNL     1       3.221   7.384  17.859  0.00  0.00    +0.000 A 
ATOM      8 CL   UNL     1       4.218   6.959  16.506  0.00  0.00    +0.000 Cl
ATOM      9  C   UNL     1       2.963   6.457  18.882  0.00  0.00    +0.000 A 
ATOM     10  N   UNL     1       3.564   5.246  18.856  0.00  0.00    +0.000 NA
ATOM     11  C   UNL     1       3.343   4.365  19.853  0.00  0.00    +0.000 A 
ATOM     12  C   UNL     1       2.524   4.639  20.919  0.00  0.00    +0.000 A 
ATOM     13  C   UNL     1       1.863   5.870  20.945  0.00  0.00    +0.000 A 
ATOM     14  C   UNL     1       2.064   6.830  19.924  0.00  0.00    +0.000 A 
ATOM     15  C   UNL     1       1.129  10.333  18.824  0.00  0.00    +0.000 A 
ATOM     16  O   UNL     1       1.709  11.337  18.427  0.00  0.00    +0.000 OA
ENDROOT
BRANCH   1  18
ATOM     17  O   UNL     1      -0.914  12.499  18.525  0.00  0.00    +0.000 OA
ATOM     18  C   UNL     1      -1.281  11.374  18.845  0.00  0.00    +0.000 C 
ATOM     19  N   UNL     1      -2.574  10.885  18.814  0.00  0.00    +0.000 N 
ATOM     20  H   UNL     1      -2.691   9.907  19.087  0.00  0.00    +0.000 HD
BRANCH  19  21
ATOM     21  C   UNL     1      -3.762  11.544  18.439  0.00  0.00    +0.000 A 
ATOM     22  C   UNL     1      -4.293  11.539  17.148  0.00  0.00    +0.000 A 
ATOM     23  C   UNL     1      -5.480  12.233  16.868  0.00  0.00    +0.000 A 
ATOM     24  C   UNL     1      -6.140  12.927  17.879  0.00  0.00    +0.000 A 
ATOM     25 CL   UNL     1      -7.598  13.773  17.533  0.00  0.00    +0.000 Cl
ATOM     26  C   UNL     1      -5.624  12.936  19.169  0.00  0.00    +0.000 A 
ATOM     27  C   UNL     1      -4.437  12.250  19.448  0.00  0.00    +0.000 A 
ENDBRANCH  19  21
ENDBRANCH   1  18
BRANCH   3  28
ATOM     28  C   UNL     1       1.072   9.106  21.986  0.00  0.00    +0.000 C 
BRANCH  28  29
ATOM     29  C   UNL     1       0.122   9.402  23.159  0.00  0.00    +0.000 C 
BRANCH  29  30
ATOM     30  O   UNL     1      -0.232  10.779  23.205  0.00  0.00    +0.000 OA
ATOM     31  H   UNL     1      -0.501  10.968  24.121  0.00  0.00    +0.000 HD
ENDBRANCH  29  30
ENDBRANCH  28  29
ENDBRANCH   3  28
TORSDOF 5
ENDMDL
MODEL 6
REMARK VINA RESULT:      -7.3      3.071      4.216
REMARK  Name = 
REMARK  5 active torsions:
REMARK  status: ('A' for Active; 'I' for Inactive)
REMARK    1  A    between atoms: C_2  and  C_11
REMARK    2  A    between atoms: N_3  and  C_4
REMARK    3  A    between atoms: N_13  and  C_14
REMARK    4  A    between atoms: C_14  and  C_15
REMARK    5  A    between atoms: C_15  and  O_16
REMARK                            x       y       z     vdW  Elec       q    Type
REMARK                         _______ _______ _______ _____ _____    ______ ____
ROOT
ATOM      1  C   UNL     1       1.064  10.401  18.978  0.00  0.00    +0.000 A 
ATOM      2  C   UNL     1      -0.153  10.456  19.551  0.00  0.00    +0.000 A 
ATOM      3  N   UNL     1      -0.838  11.645  19.901  0.00  0.00    +0.000 N 
ATOM      4  C   UNL     1       0.051  12.677  20.422  0.00  0.00    +0.000 A 
ATOM      5  C   UNL     1       1.376  12.680  19.942  0.00  0.00    +0.000 A 
ATOM      6  C   UNL     1       2.336  13.535  20.463  0.00  0.00    +0.000 A 
ATOM      7  C   UNL     1       1.974  14.384  21.506  0.00  0.00    +0.000 A 
ATOM      8 CL   UNL     1       3.250  15.314  22.221  0.00  0.00    +0.000 Cl
ATOM      9  C   UNL     1       0.659  14.479  21.986  0.00  0.00    +0.000 A 
ATOM     10  N   UNL     1       0.365  15.366  22.964  0.00  0.00    +0.000 NA
ATOM     11  C   UNL     1      -0.904  15.482  23.407  0.00  0.00    +0.000 A 
ATOM     12  C   UNL     1      -1.938  14.733  22.905  0.00  0.00    +0.000 A 
ATOM     13  C   UNL     1      -1.649  13.783  21.920  0.00  0.00    +0.000 A 
ATOM     14  C   UNL     1      -0.334  13.625  21.420  0.00  0.00    +0.000 A 
ATOM     15  C   UNL     1       1.745  11.713  18.895  0.00  0.00    +0.000 A 
ATOM     16  O   UNL     1       2.578  11.971  18.035  0.00  0.00    +0.000 OA
ENDROOT
BRANCH   1  18
ATOM     17  O   UNL     1       1.838   9.016  17.228  0.00  0.00    +0.000 OA
ATOM     18  C   UNL     1       1.633   9.132  18.431  0.00  0.00    +0.000 C 
ATOM     19  N   UNL     1       1.918   8.200  19.412  0.00  0.00    +0.000 N 
ATOM     20  H   UNL     1       1.710   8.480  20.372  0.00  0.00    +0.000 HD
BRANCH  19  21
ATOM     21  C   UNL     1       2.478   6.913  19.277  0.00  0.00    +0.000 A 
ATOM     22  C   UNL     1       3.393   6.551  18.289  0.00  0.00    +0.000 A 
ATOM     23  C   UNL     1       3.889   5.240  18.229  0.00  0.00    +0.000 A 
ATOM     24  C   UNL     1       3.476   4.292  19.162  0.00  0.00    +0.000 A 
ATOM     25 CL   UNL     1       4.090   2.686  19.089  0.00  0.00    +0.000 Cl
ATOM     26  C   UNL     1       2.567   4.641  20.154  0.00  0.00    +0.000 A 
ATOM     27  C   UNL     1       2.067   5.946  20.209  0.00  0.00    +0.000 A 
ENDBRANCH  19  21
ENDBRANCH   1  18
BRANCH   3  28
ATOM     28  C   UNL     1      -1.595  12.296  18.763  0.00  0.00    +0.000 C 
BRANCH  28  29
ATOM     29  C   UNL     1      -2.234  11.279  17.802  0.00  0.00    +0.000 C 
BRANCH  29  30
ATOM     30  O   UNL     1      -2.049  11.663  16.444  0.00  0.00    +0.000 OA
ATOM     31  H   UNL     1      -2.073  10.846  15.917  0.00  0.00    +0.000 HD
ENDBRANCH  29  30
ENDBRANCH  28  29
ENDBRANCH   3  28
TORSDOF 5
ENDMDL
MODEL 7
REMARK VINA RESULT:      -7.3      3.605      4.259
REMARK  Name = 
REMARK  5 active torsions:
REMARK  status: ('A' for Active; 'I' for Inactive)
REMARK    1  A    between atoms: C_2  and  C_11
REMARK    2  A    between atoms: N_3  and  C_4
REMARK    3  A    between atoms: N_13  and  C_14
REMARK    4  A    between atoms: C_14  and  C_15
REMARK    5  A    between atoms: C_15  and  O_16
REMARK                            x       y       z     vdW  Elec       q    Type
REMARK                         _______ _______ _______ _____ _____    ______ ____
ROOT
ATOM      1  C   UNL     1       1.098  10.178  19.611  0.00  0.00    +0.000 A 
ATOM      2  C   UNL     1       1.011  11.295  18.865  0.00  0.00    +0.000 A 
ATOM      3  N   UNL     1       0.824  12.604  19.371  0.00  0.00    +0.000 N 
ATOM      4  C   UNL     1      -0.088  12.644  20.510  0.00  0.00    +0.000 A 
ATOM      5  C   UNL     1      -0.133  11.500  21.332  0.00  0.00    +0.000 A 
ATOM      6  C   UNL     1      -1.054  11.382  22.363  0.00  0.00    +0.000 A 
ATOM      7  C   UNL     1      -1.967  12.415  22.559  0.00  0.00    +0.000 A 
ATOM      8 CL   UNL     1      -3.191  12.145  23.756  0.00  0.00    +0.000 Cl
ATOM      9  C   UNL     1      -1.935  13.609  21.821  0.00  0.00    +0.000 A 
ATOM     10  N   UNL     1      -2.817  14.594  22.101  0.00  0.00    +0.000 NA
ATOM     11  C   UNL     1      -2.770  15.755  21.414  0.00  0.00    +0.000 A 
ATOM     12  C   UNL     1      -1.850  15.996  20.426  0.00  0.00    +0.000 A 
ATOM     13  C   UNL     1      -0.954  14.976  20.094  0.00  0.00    +0.000 A 
ATOM     14  C   UNL     1      -0.961  13.741  20.787  0.00  0.00    +0.000 A 
ATOM     15  C   UNL     1       0.794  10.393  21.044  0.00  0.00    +0.000 A 
ATOM     16  O   UNL     1       1.255   9.685  21.931  0.00  0.00    +0.000 OA
ENDROOT
BRANCH   1  18
ATOM     17  O   UNL     1       1.558   8.705  17.823  0.00  0.00    +0.000 OA
ATOM     18  C   UNL     1       1.517   8.863  19.038  0.00  0.00    +0.000 C 
ATOM     19  N   UNL     1       1.871   7.940  20.004  0.00  0.00    +0.000 N 
ATOM     20  H   UNL     1       1.805   8.256  20.974  0.00  0.00    +0.000 HD
BRANCH  19  21
ATOM     21  C   UNL     1       2.333   6.618  19.841  0.00  0.00    +0.000 A 
ATOM     22  C   UNL     1       3.342   6.239  18.954  0.00  0.00    +0.000 A 
ATOM     23  C   UNL     1       3.728   4.894  18.855  0.00  0.00    +0.000 A 
ATOM     24  C   UNL     1       3.113   3.928  19.647  0.00  0.00    +0.000 A 
ATOM     25 CL   UNL     1       3.593   2.280  19.527  0.00  0.00    +0.000 Cl
ATOM     26  C   UNL     1       2.110   4.294  20.538  0.00  0.00    +0.000 A 
ATOM     27  C   UNL     1       1.719   5.634  20.632  0.00  0.00    +0.000 A 
ENDBRANCH  19  21
ENDBRANCH   1  18
BRANCH   3  28
ATOM     28  C   UNL     1       2.091  13.287  19.840  0.00  0.00    +0.000 C 
BRANCH  28  29
ATOM     29  C   UNL     1       2.637  14.307  18.827  0.00  0.00    +0.000 C 
BRANCH  29  30
ATOM     30  O   UNL     1       3.386  13.667  17.800  0.00  0.00    +0.000 OA
ATOM     31  H   UNL     1       3.992  13.047  18.241  0.00  0.00    +0.000 HD
ENDBRANCH  29  30
ENDBRANCH  28  29
ENDBRANCH   3  28
TORSDOF 5
ENDMDL
MODEL 8
REMARK VINA RESULT:      -7.3      3.303      8.813
REMARK  Name = 
REMARK  5 active torsions:
REMARK  status: ('A' for Active; 'I' for Inactive)
REMARK    1  A    between atoms: C_2  and  C_11
REMARK    2  A    between atoms: N_3  and  C_4
REMARK    3  A    between atoms: N_13  and  C_14
REMARK    4  A    between atoms: C_14  and  C_15
REMARK    5  A    between atoms: C_15  and  O_16
REMARK                            x       y       z     vdW  Elec       q    Type
REMARK                         _______ _______ _______ _____ _____    ______ ____
ROOT
ATOM      1  C   UNL     1       0.456   9.530  21.344  0.00  0.00    +0.000 A 
ATOM      2  C   UNL     1       1.239  10.044  20.378  0.00  0.00    +0.000 A 
ATOM      3  N   UNL     1       1.620   9.373  19.190  0.00  0.00    +0.000 N 
ATOM      4  C   UNL     1       1.890   7.955  19.405  0.00  0.00    +0.000 A 
ATOM      5  C   UNL     1       1.173   7.318  20.438  0.00  0.00    +0.000 A 
ATOM      6  C   UNL     1       1.443   6.010  20.810  0.00  0.00    +0.000 A 
ATOM      7  C   UNL     1       2.469   5.331  20.157  0.00  0.00    +0.000 A 
ATOM      8 CL   UNL     1       2.865   3.758  20.768  0.00  0.00    +0.000 Cl
ATOM      9  C   UNL     1       3.176   5.881  19.076  0.00  0.00    +0.000 A 
ATOM     10  N   UNL     1       4.123   5.146  18.451  0.00  0.00    +0.000 NA
ATOM     11  C   UNL     1       4.784   5.661  17.393  0.00  0.00    +0.000 A 
ATOM     12  C   UNL     1       4.538   6.918  16.904  0.00  0.00    +0.000 A 
ATOM     13  C   UNL     1       3.591   7.709  17.560  0.00  0.00    +0.000 A 
ATOM     14  C   UNL     1       2.869   7.215  18.672  0.00  0.00    +0.000 A 
ATOM     15  C   UNL     1       0.151   8.092  21.163  0.00  0.00    +0.000 A 
ATOM     16  O   UNL     1      -0.865   7.571  21.606  0.00  0.00    +0.000 OA
ENDROOT
BRANCH   1  18
ATOM     17  O   UNL     1       0.215  10.116  23.619  0.00  0.00    +0.000 OA
ATOM     18  C   UNL     1      -0.091  10.362  22.458  0.00  0.00    +0.000 C 
ATOM     19  N   UNL     1      -0.893  11.398  22.016  0.00  0.00    +0.000 N 
ATOM     20  H   UNL     1      -1.015  11.472  21.004  0.00  0.00    +0.000 HD
BRANCH  19  21
ATOM     21  C   UNL     1      -1.556  12.389  22.768  0.00  0.00    +0.000 A 
ATOM     22  C   UNL     1      -2.851  12.263  23.272  0.00  0.00    +0.000 A 
ATOM     23  C   UNL     1      -3.431  13.310  24.003  0.00  0.00    +0.000 A 
ATOM     24  C   UNL     1      -2.715  14.481  24.239  0.00  0.00    +0.000 A 
ATOM     25 CL   UNL     1      -3.428  15.761  25.141  0.00  0.00    +0.000 Cl
ATOM     26  C   UNL     1      -1.422  14.617  23.746  0.00  0.00    +0.000 A 
ATOM     27  C   UNL     1      -0.846  13.576  23.010  0.00  0.00    +0.000 A 
ENDBRANCH  19  21
ENDBRANCH   1  18
BRANCH   3  28
ATOM     28  C   UNL     1       0.598   9.429  18.076  0.00  0.00    +0.000 C 
BRANCH  28  29
ATOM     29  C   UNL     1      -0.477  10.507  18.295  0.00  0.00    +0.000 C 
BRANCH  29  30
ATOM     30  O   UNL     1      -1.401  10.545  17.214  0.00  0.00    +0.000 OA
ATOM     31  H   UNL     1      -1.907   9.715  17.249  0.00  0.00    +0.000 HD
ENDBRANCH  29  30
ENDBRANCH  28  29
ENDBRANCH   3  28
TORSDOF 5
ENDMDL
MODEL 9
REMARK VINA RESULT:      -7.2      3.707      4.351
REMARK  Name = 
REMARK  5 active torsions:
REMARK  status: ('A' for Active; 'I' for Inactive)
REMARK    1  A    between atoms: C_2  and  C_11
REMARK    2  A    between atoms: N_3  and  C_4
REMARK    3  A    between atoms: N_13  and  C_14
REMARK    4  A    between atoms: C_14  and  C_15
REMARK    5  A    between atoms: C_15  and  O_16
REMARK                            x       y       z     vdW  Elec       q    Type
REMARK                         _______ _______ _______ _____ _____    ______ ____
ROOT
ATOM      1  C   UNL     1       0.867   9.756  20.808  0.00  0.00    +0.000 A 
ATOM      2  C   UNL     1       0.827  10.737  19.887  0.00  0.00    +0.000 A 
ATOM      3  N   UNL     1       0.576  12.104  20.159  0.00  0.00    +0.000 N 
ATOM      4  C   UNL     1      -0.430  12.298  21.198  0.00  0.00    +0.000 A 
ATOM      5  C   UNL     1      -0.527  11.299  22.187  0.00  0.00    +0.000 A 
ATOM      6  C   UNL     1      -1.530  11.319  23.145  0.00  0.00    +0.000 A 
ATOM      7  C   UNL     1      -2.473  12.343  23.097  0.00  0.00    +0.000 A 
ATOM      8 CL   UNL     1      -3.790  12.230  24.219  0.00  0.00    +0.000 Cl
ATOM      9  C   UNL     1      -2.397  13.404  22.182  0.00  0.00    +0.000 A 
ATOM     10  N   UNL     1      -3.316  14.395  22.227  0.00  0.00    +0.000 NA
ATOM     11  C   UNL     1      -3.229  15.433  21.369  0.00  0.00    +0.000 A 
ATOM     12  C   UNL     1      -2.232  15.541  20.432  0.00  0.00    +0.000 A 
ATOM     13  C   UNL     1      -1.295  14.507  20.343  0.00  0.00    +0.000 A 
ATOM     14  C   UNL     1      -1.341  13.399  21.223  0.00  0.00    +0.000 A 
ATOM     15  C   UNL     1       0.439  10.187  22.158  0.00  0.00    +0.000 A 
ATOM     16  O   UNL     1       0.835   9.644  23.182  0.00  0.00    +0.000 OA
ENDROOT
BRANCH   1  18
ATOM     17  O   UNL     1       1.108   7.449  21.247  0.00  0.00    +0.000 OA
ATOM     18  C   UNL     1       1.355   8.380  20.490  0.00  0.00    +0.000 C 
ATOM     19  N   UNL     1       2.031   8.310  19.286  0.00  0.00    +0.000 N 
ATOM     20  H   UNL     1       2.117   9.187  18.768  0.00  0.00    +0.000 HD
BRANCH  19  21
ATOM     21  C   UNL     1       2.608   7.189  18.657  0.00  0.00    +0.000 A 
ATOM     22  C   UNL     1       2.209   5.870  18.874  0.00  0.00    +0.000 A 
ATOM     23  C   UNL     1       2.851   4.816  18.206  0.00  0.00    +0.000 A 
ATOM     24  C   UNL     1       3.887   5.080  17.315  0.00  0.00    +0.000 A 
ATOM     25 CL   UNL     1       4.669   3.786  16.493  0.00  0.00    +0.000 Cl
ATOM     26  C   UNL     1       4.292   6.390  17.086  0.00  0.00    +0.000 A 
ATOM     27  C   UNL     1       3.657   7.441  17.757  0.00  0.00    +0.000 A 
ENDBRANCH  19  21
ENDBRANCH   1  18
BRANCH   3  28
ATOM     28  C   UNL     1       1.787  12.890  20.613  0.00  0.00    +0.000 C 
BRANCH  28  29
ATOM     29  C   UNL     1       2.313  13.861  19.543  0.00  0.00    +0.000 C 
BRANCH  29  30
ATOM     30  O   UNL     1       2.808  13.162  18.406  0.00  0.00    +0.000 OA
ATOM     31  H   UNL     1       3.525  13.704  18.035  0.00  0.00    +0.000 HD
ENDBRANCH  29  30
ENDBRANCH  28  29
ENDBRANCH   3  28
TORSDOF 5
ENDMDL
