MODEL 1
REMARK VINA RESULT:      -7.7      0.000      0.000
REMARK  Name = 
REMARK  2 active torsions:
REMARK  status: ('A' for Active; 'I' for Inactive)
REMARK    1  A    between atoms: C_2  and  C_3
REMARK    2  A    between atoms: C_8  and  N_9
REMARK                            x       y       z     vdW  Elec       q    Type
REMARK                         _______ _______ _______ _____ _____    ______ ____
ROOT
ATOM      1  O   UNL     1      -4.185  14.445  19.989  0.00  0.00    +0.000 OA
ATOM      2  C   UNL     1      -4.173  13.508  20.787  0.00  0.00    +0.000 C 
ATOM      3  N   UNL     1      -3.085  13.303  21.642  0.00  0.00    +0.000 N 
ATOM      4  C   UNL     1      -2.944  12.377  22.754  0.00  0.00    +0.000 C 
ATOM      5  C   UNL     1      -1.471  12.338  23.137  0.00  0.00    +0.000 C 
ATOM      6  C   UNL     1      -0.837  11.010  22.739  0.00  0.00    +0.000 C 
ATOM      7  N   UNL     1      -0.447  11.257  21.370  0.00  0.00    +0.000 N 
ATOM      8  C   UNL     1       0.180  10.288  20.687  0.00  0.00    +0.000 A 
ATOM      9  N   UNL     1       0.374   9.032  21.030  0.00  0.00    +0.000 NA
ATOM     10  C   UNL     1       1.181   8.554  20.032  0.00  0.00    +0.000 A 
ATOM     11  C   UNL     1       1.801   7.313  19.865  0.00  0.00    +0.000 A 
ATOM     12  C   UNL     1       2.637   7.147  18.748  0.00  0.00    +0.000 A 
ATOM     13  C   UNL     1       2.821   8.178  17.816  0.00  0.00    +0.000 A 
ATOM     14  C   UNL     1       2.183   9.412  17.955  0.00  0.00    +0.000 A 
ATOM     15  C   UNL     1       1.393   9.543  19.089  0.00  0.00    +0.000 A 
ATOM     16  O   UNL     1       0.739  10.657  19.497  0.00  0.00    +0.000 OA
ATOM     17  C   UNL     1       0.029  12.625  21.241  0.00  0.00    +0.000 C 
ATOM     18  C   UNL     1      -0.800  13.411  22.260  0.00  0.00    +0.000 C 
ATOM     19  C   UNL     1      -1.940  14.188  21.603  0.00  0.00    +0.000 C 
ENDROOT
BRANCH   2  20
ATOM     20  C   UNL     1      -5.400  12.643  20.893  0.00  0.00    +0.000 A 
ATOM     21  C   UNL     1      -6.233  12.831  22.014  0.00  0.00    +0.000 A 
ATOM     22  C   UNL     1      -7.419  12.123  22.205  0.00  0.00    +0.000 A 
ATOM     23  C   UNL     1      -7.880  11.293  21.205  0.00  0.00    +0.000 A 
ATOM     24  C   UNL     1      -7.149  11.174  20.025  0.00  0.00    +0.000 A 
ATOM     25  C   UNL     1      -5.897  11.820  19.863  0.00  0.00    +0.000 A 
BRANCH  25  26
ATOM     26  N   UNL     1      -5.234  11.602  18.627  0.00  0.00    +0.000 N 
ATOM     27  N   UNL     1      -5.513  12.280  17.483  0.00  0.00    +0.000 NA
ATOM     28  C   UNL     1      -4.664  11.728  16.613  0.00  0.00    +0.000 A 
ATOM     29  C   UNL     1      -3.836  10.813  17.264  0.00  0.00    +0.000 A 
ATOM     30  N   UNL     1      -4.128  10.791  18.564  0.00  0.00    +0.000 NA
ENDBRANCH  25  26
ENDBRANCH   2  20
TORSDOF 2
ENDMDL
MODEL 2
REMARK VINA RESULT:      -7.2      9.843     12.607
REMARK  Name = 
REMARK  2 active torsions:
REMARK  status: ('A' for Active; 'I' for Inactive)
REMARK    1  A    between atoms: C_2  and  C_3
REMARK    2  A    between atoms: C_8  and  N_9
REMARK                            x       y       z     vdW  Elec       q    Type
REMARK                         _______ _______ _______ _____ _____    ______ ____
ROOT
ATOM      1  O   UNL     1      10.971  14.621  21.416  0.00  0.00    +0.000 OA
ATOM      2  C   UNL     1       9.912  14.149  21.003  0.00  0.00    +0.000 C 
ATOM      3  N   UNL     1       8.681  14.640  21.451  0.00  0.00    +0.000 N 
ATOM      4  C   UNL     1       7.340  14.346  20.976  0.00  0.00    +0.000 C 
ATOM      5  C   UNL     1       6.357  14.892  22.001  0.00  0.00    +0.000 C 
ATOM      6  C   UNL     1       5.680  13.760  22.768  0.00  0.00    +0.000 C 
ATOM      7  N   UNL     1       6.618  13.513  23.838  0.00  0.00    +0.000 N 
ATOM      8  C   UNL     1       6.333  12.570  24.747  0.00  0.00    +0.000 A 
ATOM      9  N   UNL     1       5.359  11.685  24.740  0.00  0.00    +0.000 NA
ATOM     10  C   UNL     1       5.467  11.086  25.966  0.00  0.00    +0.000 A 
ATOM     11  C   UNL     1       4.673  10.122  26.593  0.00  0.00    +0.000 A 
ATOM     12  C   UNL     1       5.011   9.750  27.905  0.00  0.00    +0.000 A 
ATOM     13  C   UNL     1       6.125  10.303  28.554  0.00  0.00    +0.000 A 
ATOM     14  C   UNL     1       6.945  11.243  27.927  0.00  0.00    +0.000 A 
ATOM     15  C   UNL     1       6.554  11.606  26.645  0.00  0.00    +0.000 A 
ATOM     16  O   UNL     1       7.125  12.550  25.860  0.00  0.00    +0.000 OA
ATOM     17  C   UNL     1       7.182  14.775  24.288  0.00  0.00    +0.000 C 
ATOM     18  C   UNL     1       7.224  15.643  23.029  0.00  0.00    +0.000 C 
ATOM     19  C   UNL     1       8.624  15.714  22.421  0.00  0.00    +0.000 C 
ENDROOT
BRANCH   2  20
ATOM     20  C   UNL     1       9.969  13.098  19.927  0.00  0.00    +0.000 A 
ATOM     21  C   UNL     1       9.701  11.767  20.304  0.00  0.00    +0.000 A 
ATOM     22  C   UNL     1       9.681  10.711  19.394  0.00  0.00    +0.000 A 
ATOM     23  C   UNL     1       9.798  10.977  18.046  0.00  0.00    +0.000 A 
ATOM     24  C   UNL     1       9.938  12.296  17.619  0.00  0.00    +0.000 A 
ATOM     25  C   UNL     1      10.052  13.364  18.546  0.00  0.00    +0.000 A 
BRANCH  25  26
ATOM     26  N   UNL     1      10.217  14.660  17.992  0.00  0.00    +0.000 N 
ATOM     27  N   UNL     1      11.344  15.081  17.360  0.00  0.00    +0.000 NA
ATOM     28  C   UNL     1      11.033  16.339  17.037  0.00  0.00    +0.000 A 
ATOM     29  C   UNL     1       9.711  16.613  17.387  0.00  0.00    +0.000 A 
ATOM     30  N   UNL     1       9.152  15.523  17.912  0.00  0.00    +0.000 NA
ENDBRANCH  25  26
ENDBRANCH   2  20
TORSDOF 2
ENDMDL
MODEL 3
REMARK VINA RESULT:      -7.0      6.841      8.700
REMARK  Name = 
REMARK  2 active torsions:
REMARK  status: ('A' for Active; 'I' for Inactive)
REMARK    1  A    between atoms: C_2  and  C_3
REMARK    2  A    between atoms: C_8  and  N_9
REMARK                            x       y       z     vdW  Elec       q    Type
REMARK                         _______ _______ _______ _____ _____    ______ ____
ROOT
ATOM      1  O   UNL     1       3.159  16.120  17.077  0.00  0.00    +0.000 OA
ATOM      2  C   UNL     1       3.277  15.504  18.135  0.00  0.00    +0.000 C 
ATOM      3  N   UNL     1       4.180  15.924  19.118  0.00  0.00    +0.000 N 
ATOM      4  C   UNL     1       4.351  15.448  20.481  0.00  0.00    +0.000 C 
ATOM      5  C   UNL     1       5.662  16.015  21.006  0.00  0.00    +0.000 C 
ATOM      6  C   UNL     1       6.719  14.923  21.135  0.00  0.00    +0.000 C 
ATOM      7  N   UNL     1       7.292  14.896  19.809  0.00  0.00    +0.000 N 
ATOM      8  C   UNL     1       8.296  14.045  19.552  0.00  0.00    +0.000 A 
ATOM      9  N   UNL     1       8.769  13.076  20.307  0.00  0.00    +0.000 NA
ATOM     10  C   UNL     1       9.864  12.640  19.611  0.00  0.00    +0.000 A 
ATOM     11  C   UNL     1      10.835  11.685  19.927  0.00  0.00    +0.000 A 
ATOM     12  C   UNL     1      11.893  11.506  19.021  0.00  0.00    +0.000 A 
ATOM     13  C   UNL     1      11.959  12.237  17.825  0.00  0.00    +0.000 A 
ATOM     14  C   UNL     1      10.979  13.170  17.483  0.00  0.00    +0.000 A 
ATOM     15  C   UNL     1       9.972  13.339  18.423  0.00  0.00    +0.000 A 
ATOM     16  O   UNL     1       8.956  14.234  18.371  0.00  0.00    +0.000 OA
ATOM     17  C   UNL     1       7.370  16.251  19.287  0.00  0.00    +0.000 C 
ATOM     18  C   UNL     1       6.162  16.963  19.899  0.00  0.00    +0.000 C 
ATOM     19  C   UNL     1       5.006  17.095  18.909  0.00  0.00    +0.000 C 
ENDROOT
BRANCH   2  20
ATOM     20  C   UNL     1       2.355  14.343  18.393  0.00  0.00    +0.000 A 
ATOM     21  C   UNL     1       2.872  13.047  18.200  0.00  0.00    +0.000 A 
ATOM     22  C   UNL     1       2.132  11.891  18.445  0.00  0.00    +0.000 A 
ATOM     23  C   UNL     1       0.884  11.996  19.023  0.00  0.00    +0.000 A 
ATOM     24  C   UNL     1       0.385  13.256  19.346  0.00  0.00    +0.000 A 
ATOM     25  C   UNL     1       1.094  14.439  19.015  0.00  0.00    +0.000 A 
BRANCH  25  26
ATOM     26  N   UNL     1       0.472  15.664  19.372  0.00  0.00    +0.000 N 
ATOM     27  N   UNL     1       0.711  16.330  20.532  0.00  0.00    +0.000 NA
ATOM     28  C   UNL     1      -0.097  17.388  20.421  0.00  0.00    +0.000 A 
ATOM     29  C   UNL     1      -0.720  17.388  19.173  0.00  0.00    +0.000 A 
ATOM     30  N   UNL     1      -0.296  16.345  18.460  0.00  0.00    +0.000 NA
ENDBRANCH  25  26
ENDBRANCH   2  20
TORSDOF 2
ENDMDL
MODEL 4
REMARK VINA RESULT:      -6.8      3.987      6.554
REMARK  Name = 
REMARK  2 active torsions:
REMARK  status: ('A' for Active; 'I' for Inactive)
REMARK    1  A    between atoms: C_2  and  C_3
REMARK    2  A    between atoms: C_8  and  N_9
REMARK                            x       y       z     vdW  Elec       q    Type
REMARK                         _______ _______ _______ _____ _____    ______ ____
ROOT
ATOM      1  O   UNL     1       1.545  13.950  21.725  0.00  0.00    +0.000 OA
ATOM      2  C   UNL     1       1.430  13.746  20.517  0.00  0.00    +0.000 C 
ATOM      3  N   UNL     1       0.462  12.866  20.022  0.00  0.00    +0.000 N 
ATOM      4  C   UNL     1       0.054  12.615  18.650  0.00  0.00    +0.000 C 
ATOM      5  C   UNL     1      -0.797  11.354  18.645  0.00  0.00    +0.000 C 
ATOM      6  C   UNL     1      -0.051  10.192  17.997  0.00  0.00    +0.000 C 
ATOM      7  N   UNL     1       0.696   9.652  19.109  0.00  0.00    +0.000 N 
ATOM      8  C   UNL     1       1.471   8.576  18.909  0.00  0.00    +0.000 A 
ATOM      9  N   UNL     1       1.795   7.992  17.775  0.00  0.00    +0.000 NA
ATOM     10  C   UNL     1       2.478   6.876  18.178  0.00  0.00    +0.000 A 
ATOM     11  C   UNL     1       3.009   5.809  17.449  0.00  0.00    +0.000 A 
ATOM     12  C   UNL     1       3.607   4.761  18.169  0.00  0.00    +0.000 A 
ATOM     13  C   UNL     1       3.696   4.796  19.568  0.00  0.00    +0.000 A 
ATOM     14  C   UNL     1       3.197   5.871  20.306  0.00  0.00    +0.000 A 
ATOM     15  C   UNL     1       2.585   6.867  19.557  0.00  0.00    +0.000 A 
ATOM     16  O   UNL     1       1.953   7.966  20.033  0.00  0.00    +0.000 OA
ATOM     17  C   UNL     1      -0.113   9.720  20.315  0.00  0.00    +0.000 C 
ATOM     18  C   UNL     1      -0.966  10.977  20.129  0.00  0.00    +0.000 C 
ATOM     19  C   UNL     1      -0.427  12.164  20.925  0.00  0.00    +0.000 C 
ENDROOT
BRANCH   2  20
ATOM     20  C   UNL     1       2.289  14.544  19.573  0.00  0.00    +0.000 A 
ATOM     21  C   UNL     1       3.449  13.924  19.067  0.00  0.00    +0.000 A 
ATOM     22  C   UNL     1       4.302  14.541  18.154  0.00  0.00    +0.000 A 
ATOM     23  C   UNL     1       3.948  15.758  17.612  0.00  0.00    +0.000 A 
ATOM     24  C   UNL     1       2.745  16.350  17.991  0.00  0.00    +0.000 A 
ATOM     25  C   UNL     1       1.918  15.771  18.988  0.00  0.00    +0.000 A 
BRANCH  25  26
ATOM     26  N   UNL     1       0.731  16.480  19.308  0.00  0.00    +0.000 N 
ATOM     27  N   UNL     1       0.619  17.352  20.343  0.00  0.00    +0.000 NA
ATOM     28  C   UNL     1      -0.655  17.742  20.248  0.00  0.00    +0.000 A 
ATOM     29  C   UNL     1      -1.245  17.182  19.115  0.00  0.00    +0.000 A 
ATOM     30  N   UNL     1      -0.347  16.449  18.457  0.00  0.00    +0.000 NA
ENDBRANCH  25  26
ENDBRANCH   2  20
TORSDOF 2
ENDMDL
MODEL 5
REMARK VINA RESULT:      -6.8      1.710      3.072
REMARK  Name = 
REMARK  2 active torsions:
REMARK  status: ('A' for Active; 'I' for Inactive)
REMARK    1  A    between atoms: C_2  and  C_3
REMARK    2  A    between atoms: C_8  and  N_9
REMARK                            x       y       z     vdW  Elec       q    Type
REMARK                         _______ _______ _______ _____ _____    ______ ____
ROOT
ATOM      1  O   UNL     1      -4.571  14.361  19.743  0.00  0.00    +0.000 OA
ATOM      2  C   UNL     1      -4.593  13.490  20.611  0.00  0.00    +0.000 C 
ATOM      3  N   UNL     1      -3.548  13.363  21.533  0.00  0.00    +0.000 N 
ATOM      4  C   UNL     1      -3.457  12.528  22.719  0.00  0.00    +0.000 C 
ATOM      5  C   UNL     1      -2.006  12.534  23.177  0.00  0.00    +0.000 C 
ATOM      6  C   UNL     1      -1.343  11.186  22.916  0.00  0.00    +0.000 C 
ATOM      7  N   UNL     1      -0.886  11.330  21.553  0.00  0.00    +0.000 N 
ATOM      8  C   UNL     1      -0.220  10.317  20.980  0.00  0.00    +0.000 A 
ATOM      9  N   UNL     1      -0.035   9.093  21.429  0.00  0.00    +0.000 NA
ATOM     10  C   UNL     1       0.823   8.548  20.513  0.00  0.00    +0.000 A 
ATOM     11  C   UNL     1       1.459   7.304  20.474  0.00  0.00    +0.000 A 
ATOM     12  C   UNL     1       2.352   7.060  19.417  0.00  0.00    +0.000 A 
ATOM     13  C   UNL     1       2.575   8.018  18.417  0.00  0.00    +0.000 A 
ATOM     14  C   UNL     1       1.923   9.252  18.427  0.00  0.00    +0.000 A 
ATOM     15  C   UNL     1       1.077   9.463  19.507  0.00  0.00    +0.000 A 
ATOM     16  O   UNL     1       0.396  10.598  19.794  0.00  0.00    +0.000 OA
ATOM     17  C   UNL     1      -0.414  12.689  21.342  0.00  0.00    +0.000 C 
ATOM     18  C   UNL     1      -1.298  13.543  22.253  0.00  0.00    +0.000 C 
ATOM     19  C   UNL     1      -2.408  14.255  21.482  0.00  0.00    +0.000 C 
ENDROOT
BRANCH   2  20
ATOM     20  C   UNL     1      -5.819  12.624  20.724  0.00  0.00    +0.000 A 
ATOM     21  C   UNL     1      -5.801  11.382  20.058  0.00  0.00    +0.000 A 
ATOM     22  C   UNL     1      -6.857  10.474  20.120  0.00  0.00    +0.000 A 
ATOM     23  C   UNL     1      -7.917  10.724  20.967  0.00  0.00    +0.000 A 
ATOM     24  C   UNL     1      -7.914  11.883  21.740  0.00  0.00    +0.000 A 
ATOM     25  C   UNL     1      -6.889  12.854  21.612  0.00  0.00    +0.000 A 
BRANCH  25  26
ATOM     26  N   UNL     1      -7.009  14.005  22.434  0.00  0.00    +0.000 N 
ATOM     27  N   UNL     1      -6.525  14.091  23.700  0.00  0.00    +0.000 NA
ATOM     28  C   UNL     1      -6.887  15.326  24.058  0.00  0.00    +0.000 A 
ATOM     29  C   UNL     1      -7.482  15.983  22.981  0.00  0.00    +0.000 A 
ATOM     30  N   UNL     1      -7.484  15.184  21.914  0.00  0.00    +0.000 NA
ENDBRANCH  25  26
ENDBRANCH   2  20
TORSDOF 2
ENDMDL
MODEL 6
REMARK VINA RESULT:      -6.7      1.047      1.205
REMARK  Name = 
REMARK  2 active torsions:
REMARK  status: ('A' for Active; 'I' for Inactive)
REMARK    1  A    between atoms: C_2  and  C_3
REMARK    2  A    between atoms: C_8  and  N_9
REMARK                            x       y       z     vdW  Elec       q    Type
REMARK                         _______ _______ _______ _____ _____    ______ ____
ROOT
ATOM      1  O   UNL     1      -3.116  13.792  19.286  0.00  0.00    +0.000 OA
ATOM      2  C   UNL     1      -3.303  12.962  20.174  0.00  0.00    +0.000 C 
ATOM      3  N   UNL     1      -2.336  12.724  21.156  0.00  0.00    +0.000 N 
ATOM      4  C   UNL     1      -2.423  11.925  22.367  0.00  0.00    +0.000 C 
ATOM      5  C   UNL     1      -1.011  11.748  22.906  0.00  0.00    +0.000 C 
ATOM      6  C   UNL     1      -0.529  10.314  22.718  0.00  0.00    +0.000 C 
ATOM      7  N   UNL     1       0.014  10.348  21.380  0.00  0.00    +0.000 N 
ATOM      8  C   UNL     1       0.563   9.235  20.872  0.00  0.00    +0.000 A 
ATOM      9  N   UNL     1       0.553   8.013  21.363  0.00  0.00    +0.000 NA
ATOM     10  C   UNL     1       1.375   7.325  20.511  0.00  0.00    +0.000 A 
ATOM     11  C   UNL     1       1.833   6.005  20.542  0.00  0.00    +0.000 A 
ATOM     12  C   UNL     1       2.737   5.606  19.543  0.00  0.00    +0.000 A 
ATOM     13  C   UNL     1       3.144   6.489  18.533  0.00  0.00    +0.000 A 
ATOM     14  C   UNL     1       2.669   7.800  18.473  0.00  0.00    +0.000 A 
ATOM     15  C   UNL     1       1.805   8.162  19.498  0.00  0.00    +0.000 A 
ATOM     16  O   UNL     1       1.273   9.389  19.715  0.00  0.00    +0.000 OA
ATOM     17  C   UNL     1       0.680  11.622  21.160  0.00  0.00    +0.000 C 
ATOM     18  C   UNL     1      -0.123  12.619  21.997  0.00  0.00    +0.000 C 
ATOM     19  C   UNL     1      -1.082  13.449  21.146  0.00  0.00    +0.000 C 
ENDROOT
BRANCH   2  20
ATOM     20  C   UNL     1      -4.642  12.275  20.240  0.00  0.00    +0.000 A 
ATOM     21  C   UNL     1      -5.486  12.600  21.319  0.00  0.00    +0.000 A 
ATOM     22  C   UNL     1      -6.765  12.065  21.469  0.00  0.00    +0.000 A 
ATOM     23  C   UNL     1      -7.294  11.283  20.464  0.00  0.00    +0.000 A 
ATOM     24  C   UNL     1      -6.538  11.039  19.319  0.00  0.00    +0.000 A 
ATOM     25  C   UNL     1      -5.203  11.504  19.202  0.00  0.00    +0.000 A 
BRANCH  25  26
ATOM     26  N   UNL     1      -4.526  11.171  18.000  0.00  0.00    +0.000 N 
ATOM     27  N   UNL     1      -4.691  11.830  16.824  0.00  0.00    +0.000 NA
ATOM     28  C   UNL     1      -3.877  11.158  16.007  0.00  0.00    +0.000 A 
ATOM     29  C   UNL     1      -3.173  10.187  16.720  0.00  0.00    +0.000 A 
ATOM     30  N   UNL     1      -3.510  10.246  18.008  0.00  0.00    +0.000 NA
ENDBRANCH  25  26
ENDBRANCH   2  20
TORSDOF 2
ENDMDL
MODEL 7
REMARK VINA RESULT:      -6.7      1.666      2.289
REMARK  Name = 
REMARK  2 active torsions:
REMARK  status: ('A' for Active; 'I' for Inactive)
REMARK    1  A    between atoms: C_2  and  C_3
REMARK    2  A    between atoms: C_8  and  N_9
REMARK                            x       y       z     vdW  Elec       q    Type
REMARK                         _______ _______ _______ _____ _____    ______ ____
ROOT
ATOM      1  O   UNL     1      -2.078  13.387  18.607  0.00  0.00    +0.000 OA
ATOM      2  C   UNL     1      -2.419  12.639  19.522  0.00  0.00    +0.000 C 
ATOM      3  N   UNL     1      -1.559  12.367  20.591  0.00  0.00    +0.000 N 
ATOM      4  C   UNL     1      -1.822  11.660  21.833  0.00  0.00    +0.000 C 
ATOM      5  C   UNL     1      -0.481  11.373  22.494  0.00  0.00    +0.000 C 
ATOM      6  C   UNL     1      -0.145   9.888  22.426  0.00  0.00    +0.000 C 
ATOM      7  N   UNL     1       0.497   9.779  21.136  0.00  0.00    +0.000 N 
ATOM      8  C   UNL     1       0.958   8.585  20.738  0.00  0.00    +0.000 A 
ATOM      9  N   UNL     1       0.780   7.405  21.294  0.00  0.00    +0.000 NA
ATOM     10  C   UNL     1       1.583   6.582  20.551  0.00  0.00    +0.000 A 
ATOM     11  C   UNL     1       1.893   5.226  20.693  0.00  0.00    +0.000 A 
ATOM     12  C   UNL     1       2.820   4.672  19.795  0.00  0.00    +0.000 A 
ATOM     13  C   UNL     1       3.393   5.442  18.772  0.00  0.00    +0.000 A 
ATOM     14  C   UNL     1       3.069   6.789  18.601  0.00  0.00    +0.000 A 
ATOM     15  C   UNL     1       2.175   7.303  19.531  0.00  0.00    +0.000 A 
ATOM     16  O   UNL     1       1.765   8.590  19.635  0.00  0.00    +0.000 OA
ATOM     17  C   UNL     1       1.311  10.960  20.900  0.00  0.00    +0.000 C 
ATOM     18  C   UNL     1       0.561  12.087  21.613  0.00  0.00    +0.000 C 
ATOM     19  C   UNL     1      -0.237  12.956  20.641  0.00  0.00    +0.000 C 
ENDROOT
BRANCH   2  20
ATOM     20  C   UNL     1      -3.825  12.101  19.518  0.00  0.00    +0.000 A 
ATOM     21  C   UNL     1      -4.710  12.584  20.502  0.00  0.00    +0.000 A 
ATOM     22  C   UNL     1      -6.046  12.195  20.577  0.00  0.00    +0.000 A 
ATOM     23  C   UNL     1      -6.579  11.405  19.580  0.00  0.00    +0.000 A 
ATOM     24  C   UNL     1      -5.769  11.006  18.519  0.00  0.00    +0.000 A 
ATOM     25  C   UNL     1      -4.386  11.322  18.486  0.00  0.00    +0.000 A 
BRANCH  25  26
ATOM     26  N   UNL     1      -3.660  10.839  17.366  0.00  0.00    +0.000 N 
ATOM     27  N   UNL     1      -2.812   9.779  17.408  0.00  0.00    +0.000 NA
ATOM     28  C   UNL     1      -2.370   9.721  16.149  0.00  0.00    +0.000 A 
ATOM     29  C   UNL     1      -3.026  10.670  15.365  0.00  0.00    +0.000 A 
ATOM     30  N   UNL     1      -3.916  11.327  16.108  0.00  0.00    +0.000 NA
ENDBRANCH  25  26
ENDBRANCH   2  20
TORSDOF 2
ENDMDL
MODEL 8
REMARK VINA RESULT:      -6.7      8.181     10.495
REMARK  Name = 
REMARK  2 active torsions:
REMARK  status: ('A' for Active; 'I' for Inactive)
REMARK    1  A    between atoms: C_2  and  C_3
REMARK    2  A    between atoms: C_8  and  N_9
REMARK                            x       y       z     vdW  Elec       q    Type
REMARK                         _______ _______ _______ _____ _____    ______ ____
ROOT
ATOM      1  O   UNL     1       3.012  13.973  21.639  0.00  0.00    +0.000 OA
ATOM      2  C   UNL     1       3.748  14.959  21.632  0.00  0.00    +0.000 C 
ATOM      3  N   UNL     1       4.155  15.547  20.429  0.00  0.00    +0.000 N 
ATOM      4  C   UNL     1       4.870  16.792  20.204  0.00  0.00    +0.000 C 
ATOM      5  C   UNL     1       5.332  16.802  18.754  0.00  0.00    +0.000 C 
ATOM      6  C   UNL     1       6.843  16.620  18.659  0.00  0.00    +0.000 C 
ATOM      7  N   UNL     1       6.978  15.182  18.664  0.00  0.00    +0.000 N 
ATOM      8  C   UNL     1       8.202  14.644  18.569  0.00  0.00    +0.000 A 
ATOM      9  N   UNL     1       9.373  15.243  18.624  0.00  0.00    +0.000 NA
ATOM     10  C   UNL     1      10.256  14.239  18.331  0.00  0.00    +0.000 A 
ATOM     11  C   UNL     1      11.642  14.254  18.153  0.00  0.00    +0.000 A 
ATOM     12  C   UNL     1      12.266  13.051  17.785  0.00  0.00    +0.000 A 
ATOM     13  C   UNL     1      11.531  11.867  17.631  0.00  0.00    +0.000 A 
ATOM     14  C   UNL     1      10.150  11.831  17.835  0.00  0.00    +0.000 A 
ATOM     15  C   UNL     1       9.571  13.049  18.164  0.00  0.00    +0.000 A 
ATOM     16  O   UNL     1       8.251  13.299  18.332  0.00  0.00    +0.000 OA
ATOM     17  C   UNL     1       5.890  14.591  17.902  0.00  0.00    +0.000 C 
ATOM     18  C   UNL     1       4.711  15.540  18.126  0.00  0.00    +0.000 C 
ATOM     19  C   UNL     1       3.723  15.002  19.159  0.00  0.00    +0.000 C 
ENDROOT
BRANCH   2  20
ATOM     20  C   UNL     1       4.121  15.582  22.950  0.00  0.00    +0.000 A 
ATOM     21  C   UNL     1       3.336  16.658  23.407  0.00  0.00    +0.000 A 
ATOM     22  C   UNL     1       3.554  17.291  24.630  0.00  0.00    +0.000 A 
ATOM     23  C   UNL     1       4.490  16.775  25.502  0.00  0.00    +0.000 A 
ATOM     24  C   UNL     1       5.204  15.634  25.141  0.00  0.00    +0.000 A 
ATOM     25  C   UNL     1       5.051  15.042  23.861  0.00  0.00    +0.000 A 
BRANCH  25  26
ATOM     26  N   UNL     1       5.851  13.898  23.601  0.00  0.00    +0.000 N 
ATOM     27  N   UNL     1       7.039  13.933  22.944  0.00  0.00    +0.000 NA
ATOM     28  C   UNL     1       7.394  12.646  22.933  0.00  0.00    +0.000 A 
ATOM     29  C   UNL     1       6.475  11.888  23.659  0.00  0.00    +0.000 A 
ATOM     30  N   UNL     1       5.537  12.687  24.167  0.00  0.00    +0.000 NA
ENDBRANCH  25  26
ENDBRANCH   2  20
TORSDOF 2
ENDMDL
MODEL 9
REMARK VINA RESULT:      -6.7      7.578     11.600
REMARK  Name = 
REMARK  2 active torsions:
REMARK  status: ('A' for Active; 'I' for Inactive)
REMARK    1  A    between atoms: C_2  and  C_3
REMARK    2  A    between atoms: C_8  and  N_9
REMARK                            x       y       z     vdW  Elec       q    Type
REMARK                         _______ _______ _______ _____ _____    ______ ____
ROOT
ATOM      1  O   UNL     1       8.480  14.732  21.402  0.00  0.00    +0.000 OA
ATOM      2  C   UNL     1       8.156  14.560  20.228  0.00  0.00    +0.000 C 
ATOM      3  N   UNL     1       7.097  15.275  19.658  0.00  0.00    +0.000 N 
ATOM      4  C   UNL     1       6.668  15.345  18.271  0.00  0.00    +0.000 C 
ATOM      5  C   UNL     1       5.296  16.001  18.246  0.00  0.00    +0.000 C 
ATOM      6  C   UNL     1       4.210  14.987  17.898  0.00  0.00    +0.000 C 
ATOM      7  N   UNL     1       3.890  14.428  19.191  0.00  0.00    +0.000 N 
ATOM      8  C   UNL     1       2.933  13.493  19.276  0.00  0.00    +0.000 A 
ATOM      9  N   UNL     1       2.309  12.861  18.305  0.00  0.00    +0.000 NA
ATOM     10  C   UNL     1       1.352  12.138  18.963  0.00  0.00    +0.000 A 
ATOM     11  C   UNL     1       0.319  11.327  18.483  0.00  0.00    +0.000 A 
ATOM     12  C   UNL     1      -0.558  10.762  19.425  0.00  0.00    +0.000 A 
ATOM     13  C   UNL     1      -0.387  10.978  20.800  0.00  0.00    +0.000 A 
ATOM     14  C   UNL     1       0.658  11.761  21.294  0.00  0.00    +0.000 A 
ATOM     15  C   UNL     1       1.479  12.326  20.327  0.00  0.00    +0.000 A 
ATOM     16  O   UNL     1       2.506  13.184  20.536  0.00  0.00    +0.000 OA
ATOM     17  C   UNL     1       3.938  15.477  20.197  0.00  0.00    +0.000 C 
ATOM     18  C   UNL     1       5.028  16.429  19.701  0.00  0.00    +0.000 C 
ATOM     19  C   UNL     1       6.349  16.234  20.443  0.00  0.00    +0.000 C 
ENDROOT
BRANCH   2  20
ATOM     20  C   UNL     1       8.991  13.633  19.385  0.00  0.00    +0.000 A 
ATOM     21  C   UNL     1       8.612  12.277  19.339  0.00  0.00    +0.000 A 
ATOM     22  C   UNL     1       9.277  11.329  18.563  0.00  0.00    +0.000 A 
ATOM     23  C   UNL     1      10.271  11.738  17.698  0.00  0.00    +0.000 A 
ATOM     24  C   UNL     1      10.593  13.092  17.620  0.00  0.00    +0.000 A 
ATOM     25  C   UNL     1       9.983  14.047  18.474  0.00  0.00    +0.000 A 
BRANCH  25  26
ATOM     26  N   UNL     1      10.412  15.391  18.318  0.00  0.00    +0.000 N 
ATOM     27  N   UNL     1      11.342  15.990  19.106  0.00  0.00    +0.000 NA
ATOM     28  C   UNL     1      11.396  17.222  18.593  0.00  0.00    +0.000 A 
ATOM     29  C   UNL     1      10.583  17.307  17.462  0.00  0.00    +0.000 A 
ATOM     30  N   UNL     1      10.022  16.122  17.223  0.00  0.00    +0.000 NA
ENDBRANCH  25  26
ENDBRANCH   2  20
TORSDOF 2
ENDMDL
