MODEL 1
REMARK VINA RESULT:      -8.5      0.000      0.000
REMARK  Name = 
REMARK  5 active torsions:
REMARK  status: ('A' for Active; 'I' for Inactive)
REMARK    1  A    between atoms: C_7  and  O_8
REMARK    2  A    between atoms: O_8  and  C_9
REMARK    3  A    between atoms: N_14  and  C_15
REMARK    4  A    between atoms: N_18  and  C_19
REMARK    5  A    between atoms: C_19  and  C_20
REMARK                            x       y       z     vdW  Elec       q    Type
REMARK                         _______ _______ _______ _____ _____    ______ ____
ROOT
ATOM      1  C   UNL     1       0.875  10.114  18.964  0.00  0.00    +0.000 C 
ATOM      2  C   UNL     1       2.064   9.990  18.009  0.00  0.00    +0.000 C 
ATOM      3  C   UNL     1       2.453   8.538  17.716  0.00  0.00    +0.000 C 
ATOM      4  N   UNL     1       2.645   7.706  18.918  0.00  0.00    +0.000 NA
ATOM      5  C   UNL     1       1.525   7.852  19.871  0.00  0.00    +0.000 C 
ATOM      6  C   UNL     1       1.177   9.300  20.217  0.00  0.00    +0.000 C 
ENDROOT
BRANCH   1  12
ATOM      7  C   UNL     1      -2.837  11.985  19.362  0.00  0.00    +0.000 A 
ATOM      8  C   UNL     1      -3.894  11.669  18.544  0.00  0.00    +0.000 A 
ATOM      9  C   UNL     1      -3.662  10.643  17.671  0.00  0.00    +0.000 A 
ATOM     10  N   UNL     1      -2.494   9.984  17.599  0.00  0.00    +0.000 NA
ATOM     11  C   UNL     1      -1.527  10.341  18.463  0.00  0.00    +0.000 A 
ATOM     12  N   UNL     1      -0.355   9.633  18.348  0.00  0.00    +0.000 N 
ATOM     13  N   UNL     1      -1.666  11.314  19.372  0.00  0.00    +0.000 NA
ATOM     14  H   UNL     1      -0.320   9.168  17.454  0.00  0.00    +0.000 HD
BRANCH   7  15
ATOM     15  O   UNL     1      -3.048  13.077  20.198  0.00  0.00    +0.000 OA
BRANCH  15  22
ATOM     16 BR   UNL     1      -0.985  12.399  22.649  0.00  0.00    +0.000 Br
ATOM     17  C   UNL     1      -2.878  12.569  22.603  0.00  0.00    +0.000 A 
ATOM     18  C   UNL     1      -3.548  12.473  23.830  0.00  0.00    +0.000 A 
ATOM     19  C   UNL     1      -4.918  12.730  23.909  0.00  0.00    +0.000 A 
ATOM     20  C   UNL     1      -5.628  13.077  22.763  0.00  0.00    +0.000 A 
ATOM     21  C   UNL     1      -4.971  13.138  21.532  0.00  0.00    +0.000 A 
ATOM     22  C   UNL     1      -3.598  12.867  21.440  0.00  0.00    +0.000 A 
ENDBRANCH  15  22
ENDBRANCH   7  15
ENDBRANCH   1  12
BRANCH   4  23
ATOM     23  C   UNL     1       2.724   6.261  18.546  0.00  0.00    +0.000 C 
BRANCH  23  24
ATOM     24  C   UNL     1       4.123   5.708  18.536  0.00  0.00    +0.000 A 
ATOM     25  N   UNL     1       4.697   5.325  19.692  0.00  0.00    +0.000 NA
ATOM     26  N   UNL     1       5.905   4.876  19.317  0.00  0.00    +0.000 N 
ATOM     27  C   UNL     1       6.135   4.929  17.971  0.00  0.00    +0.000 A 
ATOM     28  C   UNL     1       7.224   4.510  17.200  0.00  0.00    +0.000 A 
ATOM     29  C   UNL     1       7.144   4.722  15.821  0.00  0.00    +0.000 A 
ATOM     30  C   UNL     1       6.036   5.352  15.252  0.00  0.00    +0.000 A 
ATOM     31  C   UNL     1       4.956   5.764  16.045  0.00  0.00    +0.000 A 
ATOM     32  C   UNL     1       5.001   5.523  17.430  0.00  0.00    +0.000 A 
ATOM     33  H   UNL     1       6.533   4.536  20.036  0.00  0.00    +0.000 HD
ENDBRANCH  23  24
ENDBRANCH   4  23
TORSDOF 5
ENDMDL
MODEL 2
REMARK VINA RESULT:      -8.3      1.061      1.359
REMARK  Name = 
REMARK  5 active torsions:
REMARK  status: ('A' for Active; 'I' for Inactive)
REMARK    1  A    between atoms: C_7  and  O_8
REMARK    2  A    between atoms: O_8  and  C_9
REMARK    3  A    between atoms: N_14  and  C_15
REMARK    4  A    between atoms: N_18  and  C_19
REMARK    5  A    between atoms: C_19  and  C_20
REMARK                            x       y       z     vdW  Elec       q    Type
REMARK                         _______ _______ _______ _____ _____    ______ ____
ROOT
ATOM      1  C   UNL     1       0.860  10.114  19.077  0.00  0.00    +0.000 C 
ATOM      2  C   UNL     1       1.982  10.047  18.039  0.00  0.00    +0.000 C 
ATOM      3  C   UNL     1       2.368   8.614  17.661  0.00  0.00    +0.000 C 
ATOM      4  N   UNL     1       2.652   7.737  18.812  0.00  0.00    +0.000 NA
ATOM      5  C   UNL     1       1.599   7.828  19.845  0.00  0.00    +0.000 C 
ATOM      6  C   UNL     1       1.257   9.255  20.273  0.00  0.00    +0.000 C 
ENDROOT
BRANCH   1  12
ATOM      7  C   UNL     1      -2.774  12.135  19.464  0.00  0.00    +0.000 A 
ATOM      8  C   UNL     1      -3.865  11.807  18.697  0.00  0.00    +0.000 A 
ATOM      9  C   UNL     1      -3.694  10.722  17.883  0.00  0.00    +0.000 A 
ATOM     10  N   UNL     1      -2.552  10.019  17.819  0.00  0.00    +0.000 NA
ATOM     11  C   UNL     1      -1.547  10.395  18.632  0.00  0.00    +0.000 A 
ATOM     12  N   UNL     1      -0.403   9.640  18.528  0.00  0.00    +0.000 N 
ATOM     13  N   UNL     1      -1.626  11.425  19.482  0.00  0.00    +0.000 NA
ATOM     14  H   UNL     1      -0.411   9.120  17.663  0.00  0.00    +0.000 HD
BRANCH   7  15
ATOM     15  O   UNL     1      -2.923  13.283  20.236  0.00  0.00    +0.000 OA
BRANCH  15  22
ATOM     16 BR   UNL     1      -6.014  14.296  20.612  0.00  0.00    +0.000 Br
ATOM     17  C   UNL     1      -4.772  13.550  21.843  0.00  0.00    +0.000 A 
ATOM     18  C   UNL     1      -5.245  13.296  23.137  0.00  0.00    +0.000 A 
ATOM     19  C   UNL     1      -4.447  12.617  24.061  0.00  0.00    +0.000 A 
ATOM     20  C   UNL     1      -3.171  12.195  23.699  0.00  0.00    +0.000 A 
ATOM     21  C   UNL     1      -2.682  12.477  22.422  0.00  0.00    +0.000 A 
ATOM     22  C   UNL     1      -3.470  13.172  21.492  0.00  0.00    +0.000 A 
ENDBRANCH  15  22
ENDBRANCH   7  15
ENDBRANCH   1  12
BRANCH   4  23
ATOM     23  C   UNL     1       2.723   6.310  18.376  0.00  0.00    +0.000 C 
BRANCH  23  24
ATOM     24  C   UNL     1       4.112   5.731  18.403  0.00  0.00    +0.000 A 
ATOM     25  N   UNL     1       4.650   5.344  19.574  0.00  0.00    +0.000 NA
ATOM     26  N   UNL     1       5.858   4.871  19.231  0.00  0.00    +0.000 N 
ATOM     27  C   UNL     1       6.121   4.911  17.890  0.00  0.00    +0.000 A 
ATOM     28  C   UNL     1       7.220   4.467  17.147  0.00  0.00    +0.000 A 
ATOM     29  C   UNL     1       7.176   4.672  15.766  0.00  0.00    +0.000 A 
ATOM     30  C   UNL     1       6.094   5.319  15.167  0.00  0.00    +0.000 A 
ATOM     31  C   UNL     1       5.003   5.756  15.932  0.00  0.00    +0.000 A 
ATOM     32  C   UNL     1       5.011   5.523  17.319  0.00  0.00    +0.000 A 
ATOM     33  H   UNL     1       6.463   4.523  19.966  0.00  0.00    +0.000 HD
ENDBRANCH  23  24
ENDBRANCH   4  23
TORSDOF 5
ENDMDL
MODEL 3
REMARK VINA RESULT:      -7.9      1.116      1.366
REMARK  Name = 
REMARK  5 active torsions:
REMARK  status: ('A' for Active; 'I' for Inactive)
REMARK    1  A    between atoms: C_7  and  O_8
REMARK    2  A    between atoms: O_8  and  C_9
REMARK    3  A    between atoms: N_14  and  C_15
REMARK    4  A    between atoms: N_18  and  C_19
REMARK    5  A    between atoms: C_19  and  C_20
REMARK                            x       y       z     vdW  Elec       q    Type
REMARK                         _______ _______ _______ _____ _____    ______ ____
ROOT
ATOM      1  C   UNL     1       1.043  10.014  18.638  0.00  0.00    +0.000 C 
ATOM      2  C   UNL     1       2.211   9.442  17.833  0.00  0.00    +0.000 C 
ATOM      3  C   UNL     1       2.394   7.933  18.025  0.00  0.00    +0.000 C 
ATOM      4  N   UNL     1       2.455   7.503  19.434  0.00  0.00    +0.000 NA
ATOM      5  C   UNL     1       1.359   8.086  20.234  0.00  0.00    +0.000 C 
ATOM      6  C   UNL     1       1.216   9.602  20.096  0.00  0.00    +0.000 C 
ENDROOT
BRANCH   1  12
ATOM      7  C   UNL     1      -2.607  11.937  19.282  0.00  0.00    +0.000 A 
ATOM      8  C   UNL     1      -3.730  11.611  18.561  0.00  0.00    +0.000 A 
ATOM      9  C   UNL     1      -3.579  10.558  17.702  0.00  0.00    +0.000 A 
ATOM     10  N   UNL     1      -2.427   9.885  17.555  0.00  0.00    +0.000 NA
ATOM     11  C   UNL     1      -1.389  10.255  18.327  0.00  0.00    +0.000 A 
ATOM     12  N   UNL     1      -0.237   9.530  18.138  0.00  0.00    +0.000 N 
ATOM     13  N   UNL     1      -1.445  11.254  19.216  0.00  0.00    +0.000 NA
ATOM     14  H   UNL     1      -0.279   9.040  17.258  0.00  0.00    +0.000 HD
BRANCH   7  15
ATOM     15  O   UNL     1      -2.740  13.055  20.101  0.00  0.00    +0.000 OA
BRANCH  15  22
ATOM     16 BR   UNL     1      -1.012  11.929  22.644  0.00  0.00    +0.000 Br
ATOM     17  C   UNL     1      -2.829  12.465  22.491  0.00  0.00    +0.000 A 
ATOM     18  C   UNL     1      -3.584  12.472  23.672  0.00  0.00    +0.000 A 
ATOM     19  C   UNL     1      -4.881  12.989  23.678  0.00  0.00    +0.000 A 
ATOM     20  C   UNL     1      -5.434  13.494  22.505  0.00  0.00    +0.000 A 
ATOM     21  C   UNL     1      -4.699  13.457  21.319  0.00  0.00    +0.000 A 
ATOM     22  C   UNL     1      -3.401  12.926  21.299  0.00  0.00    +0.000 A 
ENDBRANCH  15  22
ENDBRANCH   7  15
ENDBRANCH   1  12
BRANCH   4  23
ATOM     23  C   UNL     1       2.333   6.017  19.531  0.00  0.00    +0.000 C 
BRANCH  23  24
ATOM     24  C   UNL     1       3.176   5.267  18.536  0.00  0.00    +0.000 A 
ATOM     25  N   UNL     1       2.582   4.530  17.580  0.00  0.00    +0.000 NA
ATOM     26  N   UNL     1       3.608   4.029  16.876  0.00  0.00    +0.000 N 
ATOM     27  C   UNL     1       4.841   4.423  17.316  0.00  0.00    +0.000 A 
ATOM     28  C   UNL     1       6.125   4.168  16.824  0.00  0.00    +0.000 A 
ATOM     29  C   UNL     1       7.196   4.726  17.529  0.00  0.00    +0.000 A 
ATOM     30  C   UNL     1       6.984   5.475  18.688  0.00  0.00    +0.000 A 
ATOM     31  C   UNL     1       5.688   5.717  19.162  0.00  0.00    +0.000 A 
ATOM     32  C   UNL     1       4.595   5.198  18.444  0.00  0.00    +0.000 A 
ATOM     33  H   UNL     1       3.401   3.421  16.092  0.00  0.00    +0.000 HD
ENDBRANCH  23  24
ENDBRANCH   4  23
TORSDOF 5
ENDMDL
MODEL 4
REMARK VINA RESULT:      -7.8      3.756     10.361
REMARK  Name = 
REMARK  5 active torsions:
REMARK  status: ('A' for Active; 'I' for Inactive)
REMARK    1  A    between atoms: C_7  and  O_8
REMARK    2  A    between atoms: O_8  and  C_9
REMARK    3  A    between atoms: N_14  and  C_15
REMARK    4  A    between atoms: N_18  and  C_19
REMARK    5  A    between atoms: C_19  and  C_20
REMARK                            x       y       z     vdW  Elec       q    Type
REMARK                         _______ _______ _______ _____ _____    ______ ____
ROOT
ATOM      1  C   UNL     1       2.484   7.406  19.279  0.00  0.00    +0.000 C 
ATOM      2  C   UNL     1       1.956   8.100  20.536  0.00  0.00    +0.000 C 
ATOM      3  C   UNL     1       0.633   8.837  20.306  0.00  0.00    +0.000 C 
ATOM      4  N   UNL     1       0.643   9.757  19.153  0.00  0.00    +0.000 NA
ATOM      5  C   UNL     1       1.195   9.114  17.943  0.00  0.00    +0.000 C 
ATOM      6  C   UNL     1       2.548   8.432  18.153  0.00  0.00    +0.000 C 
ENDROOT
BRANCH   1  12
ATOM      7  C   UNL     1       3.902   3.755  17.831  0.00  0.00    +0.000 A 
ATOM      8  C   UNL     1       3.090   2.650  17.746  0.00  0.00    +0.000 A 
ATOM      9  C   UNL     1       1.782   2.867  18.077  0.00  0.00    +0.000 A 
ATOM     10  N   UNL     1       1.307   4.062  18.464  0.00  0.00    +0.000 NA
ATOM     11  C   UNL     1       2.169   5.095  18.485  0.00  0.00    +0.000 A 
ATOM     12  N   UNL     1       1.629   6.294  18.884  0.00  0.00    +0.000 N 
ATOM     13  N   UNL     1       3.461   4.989  18.153  0.00  0.00    +0.000 NA
ATOM     14  H   UNL     1       0.758   6.136  19.366  0.00  0.00    +0.000 HD
BRANCH   7  15
ATOM     15  O   UNL     1       5.247   3.517  17.565  0.00  0.00    +0.000 OA
BRANCH  15  22
ATOM     16 BR   UNL     1       5.677   5.478  14.979  0.00  0.00    +0.000 Br
ATOM     17  C   UNL     1       6.457   5.486  16.712  0.00  0.00    +0.000 A 
ATOM     18  C   UNL     1       7.318   6.551  17.009  0.00  0.00    +0.000 A 
ATOM     19  C   UNL     1       7.820   6.715  18.302  0.00  0.00    +0.000 A 
ATOM     20  C   UNL     1       7.470   5.813  19.303  0.00  0.00    +0.000 A 
ATOM     21  C   UNL     1       6.641   4.730  19.003  0.00  0.00    +0.000 A 
ATOM     22  C   UNL     1       6.145   4.548  17.704  0.00  0.00    +0.000 A 
ENDBRANCH  15  22
ENDBRANCH   7  15
ENDBRANCH   1  12
BRANCH   4  23
ATOM     23  C   UNL     1      -0.746  10.198  18.827  0.00  0.00    +0.000 C 
BRANCH  23  24
ATOM     24  C   UNL     1      -1.077  11.585  19.305  0.00  0.00    +0.000 A 
ATOM     25  N   UNL     1      -1.226  12.580  18.412  0.00  0.00    +0.000 NA
ATOM     26  N   UNL     1      -1.526  13.648  19.167  0.00  0.00    +0.000 N 
ATOM     27  C   UNL     1      -1.601  13.389  20.507  0.00  0.00    +0.000 A 
ATOM     28  C   UNL     1      -1.938  14.205  21.592  0.00  0.00    +0.000 A 
ATOM     29  C   UNL     1      -1.908  13.619  22.860  0.00  0.00    +0.000 A 
ATOM     30  C   UNL     1      -1.527  12.287  23.029  0.00  0.00    +0.000 A 
ATOM     31  C   UNL     1      -1.193  11.488  21.928  0.00  0.00    +0.000 A 
ATOM     32  C   UNL     1      -1.256  12.048  20.639  0.00  0.00    +0.000 A 
ATOM     33  H   UNL     1      -1.678  14.536  18.704  0.00  0.00    +0.000 HD
ENDBRANCH  23  24
ENDBRANCH   4  23
TORSDOF 5
ENDMDL
MODEL 5
REMARK VINA RESULT:      -7.8      1.579      1.975
REMARK  Name = 
REMARK  5 active torsions:
REMARK  status: ('A' for Active; 'I' for Inactive)
REMARK    1  A    between atoms: C_7  and  O_8
REMARK    2  A    between atoms: O_8  and  C_9
REMARK    3  A    between atoms: N_14  and  C_15
REMARK    4  A    between atoms: N_18  and  C_19
REMARK    5  A    between atoms: C_19  and  C_20
REMARK                            x       y       z     vdW  Elec       q    Type
REMARK                         _______ _______ _______ _____ _____    ______ ____
ROOT
ATOM      1  C   UNL     1       0.955  10.066  18.711  0.00  0.00    +0.000 C 
ATOM      2  C   UNL     1       2.089   9.399  17.929  0.00  0.00    +0.000 C 
ATOM      3  C   UNL     1       2.231   7.904  18.233  0.00  0.00    +0.000 C 
ATOM      4  N   UNL     1       2.310   7.580  19.669  0.00  0.00    +0.000 NA
ATOM      5  C   UNL     1       1.249   8.257  20.444  0.00  0.00    +0.000 C 
ATOM      6  C   UNL     1       1.147   9.762  20.193  0.00  0.00    +0.000 C 
ENDROOT
BRANCH   1  12
ATOM      7  C   UNL     1      -2.632  12.108  19.344  0.00  0.00    +0.000 A 
ATOM      8  C   UNL     1      -3.782  11.768  18.674  0.00  0.00    +0.000 A 
ATOM      9  C   UNL     1      -3.679  10.665  17.872  0.00  0.00    +0.000 A 
ATOM     10  N   UNL     1      -2.546   9.958  17.732  0.00  0.00    +0.000 NA
ATOM     11  C   UNL     1      -1.479  10.346  18.453  0.00  0.00    +0.000 A 
ATOM     12  N   UNL     1      -0.349   9.585  18.274  0.00  0.00    +0.000 N 
ATOM     13  N   UNL     1      -1.488  11.394  19.285  0.00  0.00    +0.000 NA
ATOM     14  H   UNL     1      -0.427   9.048  17.425  0.00  0.00    +0.000 HD
BRANCH   7  15
ATOM     15  O   UNL     1      -2.717  13.272  20.101  0.00  0.00    +0.000 OA
BRANCH  15  22
ATOM     16 BR   UNL     1      -5.688  14.590  20.500  0.00  0.00    +0.000 Br
ATOM     17  C   UNL     1      -4.522  13.713  21.719  0.00  0.00    +0.000 A 
ATOM     18  C   UNL     1      -5.012  13.499  23.014  0.00  0.00    +0.000 A 
ATOM     19  C   UNL     1      -4.283  12.736  23.929  0.00  0.00    +0.000 A 
ATOM     20  C   UNL     1      -3.058  12.190  23.558  0.00  0.00    +0.000 A 
ATOM     21  C   UNL     1      -2.548  12.431  22.280  0.00  0.00    +0.000 A 
ATOM     22  C   UNL     1      -3.266  13.208  21.359  0.00  0.00    +0.000 A 
ENDBRANCH  15  22
ENDBRANCH   7  15
ENDBRANCH   1  12
BRANCH   4  23
ATOM     23  C   UNL     1       2.147   6.111  19.883  0.00  0.00    +0.000 C 
BRANCH  23  24
ATOM     24  C   UNL     1       2.687   5.266  18.762  0.00  0.00    +0.000 A 
ATOM     25  N   UNL     1       1.846   4.516  18.027  0.00  0.00    +0.000 NA
ATOM     26  N   UNL     1       2.646   3.923  17.128  0.00  0.00    +0.000 N 
ATOM     27  C   UNL     1       3.964   4.269  17.230  0.00  0.00    +0.000 A 
ATOM     28  C   UNL     1       5.077   3.919  16.458  0.00  0.00    +0.000 A 
ATOM     29  C   UNL     1       6.310   4.450  16.845  0.00  0.00    +0.000 A 
ATOM     30  C   UNL     1       6.421   5.268  17.971  0.00  0.00    +0.000 A 
ATOM     31  C   UNL     1       5.292   5.605  18.729  0.00  0.00    +0.000 A 
ATOM     32  C   UNL     1       4.036   5.113  18.332  0.00  0.00    +0.000 A 
ATOM     33  H   UNL     1       2.227   3.289  16.457  0.00  0.00    +0.000 HD
ENDBRANCH  23  24
ENDBRANCH   4  23
TORSDOF 5
ENDMDL
MODEL 6
REMARK VINA RESULT:      -7.8      2.626      4.239
REMARK  Name = 
REMARK  5 active torsions:
REMARK  status: ('A' for Active; 'I' for Inactive)
REMARK    1  A    between atoms: C_7  and  O_8
REMARK    2  A    between atoms: O_8  and  C_9
REMARK    3  A    between atoms: N_14  and  C_15
REMARK    4  A    between atoms: N_18  and  C_19
REMARK    5  A    between atoms: C_19  and  C_20
REMARK                            x       y       z     vdW  Elec       q    Type
REMARK                         _______ _______ _______ _____ _____    ______ ____
ROOT
ATOM      1  C   UNL     1       1.271   5.990  19.760  0.00  0.00    +0.000 C 
ATOM      2  C   UNL     1       1.545   4.522  20.094  0.00  0.00    +0.000 C 
ATOM      3  C   UNL     1       3.038   4.189  20.167  0.00  0.00    +0.000 C 
ATOM      4  N   UNL     1       3.816   4.623  18.991  0.00  0.00    +0.000 NA
ATOM      5  C   UNL     1       3.525   6.026  18.628  0.00  0.00    +0.000 C 
ATOM      6  C   UNL     1       2.036   6.346  18.490  0.00  0.00    +0.000 C 
ENDROOT
BRANCH   1  12
ATOM      7  C   UNL     1       0.662  10.120  19.793  0.00  0.00    +0.000 A 
ATOM      8  C   UNL     1       0.801  10.860  20.943  0.00  0.00    +0.000 A 
ATOM      9  C   UNL     1       1.242  10.158  22.031  0.00  0.00    +0.000 A 
ATOM     10  N   UNL     1       1.518   8.845  22.000  0.00  0.00    +0.000 NA
ATOM     11  C   UNL     1       1.384   8.211  20.821  0.00  0.00    +0.000 A 
ATOM     12  N   UNL     1       1.683   6.869  20.846  0.00  0.00    +0.000 N 
ATOM     13  N   UNL     1       0.985   8.814  19.695  0.00  0.00    +0.000 NA
ATOM     14  H   UNL     1       1.672   6.532  21.797  0.00  0.00    +0.000 HD
BRANCH   7  15
ATOM     15  O   UNL     1       0.144  10.818  18.707  0.00  0.00    +0.000 OA
BRANCH  15  22
ATOM     16 BR   UNL     1      -1.638  13.202  20.072  0.00  0.00    +0.000 Br
ATOM     17  C   UNL     1      -2.131  11.724  18.984  0.00  0.00    +0.000 A 
ATOM     18  C   UNL     1      -3.478  11.643  18.606  0.00  0.00    +0.000 A 
ATOM     19  C   UNL     1      -3.898  10.675  17.691  0.00  0.00    +0.000 A 
ATOM     20  C   UNL     1      -2.978   9.779  17.155  0.00  0.00    +0.000 A 
ATOM     21  C   UNL     1      -1.642   9.833  17.556  0.00  0.00    +0.000 A 
ATOM     22  C   UNL     1      -1.212  10.791  18.485  0.00  0.00    +0.000 A 
ENDBRANCH  15  22
ENDBRANCH   7  15
ENDBRANCH   1  12
BRANCH   4  23
ATOM     23  C   UNL     1       5.280   4.532  19.271  0.00  0.00    +0.000 C 
BRANCH  23  24
ATOM     24  C   UNL     1       6.151   4.994  18.135  0.00  0.00    +0.000 A 
ATOM     25  N   UNL     1       7.184   5.820  18.379  0.00  0.00    +0.000 NA
ATOM     26  N   UNL     1       7.739   6.007  17.172  0.00  0.00    +0.000 N 
ATOM     27  C   UNL     1       7.128   5.323  16.158  0.00  0.00    +0.000 A 
ATOM     28  C   UNL     1       7.436   5.213  14.798  0.00  0.00    +0.000 A 
ATOM     29  C   UNL     1       6.586   4.425  14.017  0.00  0.00    +0.000 A 
ATOM     30  C   UNL     1       5.465   3.805  14.573  0.00  0.00    +0.000 A 
ATOM     31  C   UNL     1       5.177   3.930  15.939  0.00  0.00    +0.000 A 
ATOM     32  C   UNL     1       6.043   4.686  16.748  0.00  0.00    +0.000 A 
ATOM     33  H   UNL     1       8.547   6.614  17.104  0.00  0.00    +0.000 HD
ENDBRANCH  23  24
ENDBRANCH   4  23
TORSDOF 5
ENDMDL
MODEL 7
REMARK VINA RESULT:      -7.8      3.765     10.651
REMARK  Name = 
REMARK  5 active torsions:
REMARK  status: ('A' for Active; 'I' for Inactive)
REMARK    1  A    between atoms: C_7  and  O_8
REMARK    2  A    between atoms: O_8  and  C_9
REMARK    3  A    between atoms: N_14  and  C_15
REMARK    4  A    between atoms: N_18  and  C_19
REMARK    5  A    between atoms: C_19  and  C_20
REMARK                            x       y       z     vdW  Elec       q    Type
REMARK                         _______ _______ _______ _____ _____    ______ ____
ROOT
ATOM      1  C   UNL     1       2.531   7.341  19.207  0.00  0.00    +0.000 C 
ATOM      2  C   UNL     1       2.053   8.064  20.468  0.00  0.00    +0.000 C 
ATOM      3  C   UNL     1       0.744   8.834  20.261  0.00  0.00    +0.000 C 
ATOM      4  N   UNL     1       0.748   9.738  19.096  0.00  0.00    +0.000 NA
ATOM      5  C   UNL     1       1.253   9.065  17.881  0.00  0.00    +0.000 C 
ATOM      6  C   UNL     1       2.592   8.351  18.066  0.00  0.00    +0.000 C 
ENDROOT
BRANCH   1  12
ATOM      7  C   UNL     1       3.819   3.610  17.845  0.00  0.00    +0.000 A 
ATOM      8  C   UNL     1       2.972   2.530  17.796  0.00  0.00    +0.000 A 
ATOM      9  C   UNL     1       1.674   2.798  18.131  0.00  0.00    +0.000 A 
ATOM     10  N   UNL     1       1.241   4.017  18.490  0.00  0.00    +0.000 NA
ATOM     11  C   UNL     1       2.135   5.021  18.477  0.00  0.00    +0.000 A 
ATOM     12  N   UNL     1       1.637   6.248  18.849  0.00  0.00    +0.000 N 
ATOM     13  N   UNL     1       3.420   4.866  18.138  0.00  0.00    +0.000 NA
ATOM     14  H   UNL     1       0.765   6.130  19.341  0.00  0.00    +0.000 HD
BRANCH   7  15
ATOM     15  O   UNL     1       5.153   3.322  17.575  0.00  0.00    +0.000 OA
BRANCH  15  22
ATOM     16 BR   UNL     1       7.458   5.505  18.377  0.00  0.00    +0.000 Br
ATOM     17  C   UNL     1       6.787   4.940  16.691  0.00  0.00    +0.000 A 
ATOM     18  C   UNL     1       7.417   5.467  15.555  0.00  0.00    +0.000 A 
ATOM     19  C   UNL     1       7.086   4.997  14.282  0.00  0.00    +0.000 A 
ATOM     20  C   UNL     1       6.122   4.005  14.136  0.00  0.00    +0.000 A 
ATOM     21  C   UNL     1       5.466   3.502  15.262  0.00  0.00    +0.000 A 
ATOM     22  C   UNL     1       5.780   3.978  16.543  0.00  0.00    +0.000 A 
ENDBRANCH  15  22
ENDBRANCH   7  15
ENDBRANCH   1  12
BRANCH   4  23
ATOM     23  C   UNL     1      -0.637  10.211  18.799  0.00  0.00    +0.000 C 
BRANCH  23  24
ATOM     24  C   UNL     1      -0.921  11.609  19.275  0.00  0.00    +0.000 A 
ATOM     25  N   UNL     1      -1.044  12.607  18.380  0.00  0.00    +0.000 NA
ATOM     26  N   UNL     1      -1.308  13.685  19.134  0.00  0.00    +0.000 N 
ATOM     27  C   UNL     1      -1.384  13.431  20.475  0.00  0.00    +0.000 A 
ATOM     28  C   UNL     1      -1.690  14.260  21.560  0.00  0.00    +0.000 A 
ATOM     29  C   UNL     1      -1.672  13.676  22.829  0.00  0.00    +0.000 A 
ATOM     30  C   UNL     1      -1.332  12.333  23.000  0.00  0.00    +0.000 A 
ATOM     31  C   UNL     1      -1.028  11.522  21.899  0.00  0.00    +0.000 A 
ATOM     32  C   UNL     1      -1.080  12.081  20.609  0.00  0.00    +0.000 A 
ATOM     33  H   UNL     1      -1.434  14.576  18.670  0.00  0.00    +0.000 HD
ENDBRANCH  23  24
ENDBRANCH   4  23
TORSDOF 5
ENDMDL
MODEL 8
REMARK VINA RESULT:      -7.8      4.251     10.339
REMARK  Name = 
REMARK  5 active torsions:
REMARK  status: ('A' for Active; 'I' for Inactive)
REMARK    1  A    between atoms: C_7  and  O_8
REMARK    2  A    between atoms: O_8  and  C_9
REMARK    3  A    between atoms: N_14  and  C_15
REMARK    4  A    between atoms: N_18  and  C_19
REMARK    5  A    between atoms: C_19  and  C_20
REMARK                            x       y       z     vdW  Elec       q    Type
REMARK                         _______ _______ _______ _____ _____    ______ ____
ROOT
ATOM      1  C   UNL     1       2.525   7.238  19.443  0.00  0.00    +0.000 C 
ATOM      2  C   UNL     1       1.913   8.093  20.556  0.00  0.00    +0.000 C 
ATOM      3  C   UNL     1       0.691   8.894  20.097  0.00  0.00    +0.000 C 
ATOM      4  N   UNL     1       0.909   9.687  18.872  0.00  0.00    +0.000 NA
ATOM      5  C   UNL     1       1.543   8.885  17.805  0.00  0.00    +0.000 C 
ATOM      6  C   UNL     1       2.802   8.136  18.243  0.00  0.00    +0.000 C 
ENDROOT
BRANCH   1  12
ATOM      7  C   UNL     1       3.817   3.556  17.958  0.00  0.00    +0.000 A 
ATOM      8  C   UNL     1       2.972   2.475  17.877  0.00  0.00    +0.000 A 
ATOM      9  C   UNL     1       1.674   2.730  18.225  0.00  0.00    +0.000 A 
ATOM     10  N   UNL     1       1.240   3.936  18.623  0.00  0.00    +0.000 NA
ATOM     11  C   UNL     1       2.132   4.942  18.640  0.00  0.00    +0.000 A 
ATOM     12  N   UNL     1       1.633   6.155  19.053  0.00  0.00    +0.000 N 
ATOM     13  N   UNL     1       3.417   4.800  18.293  0.00  0.00    +0.000 NA
ATOM     14  H   UNL     1       0.762   6.019  19.543  0.00  0.00    +0.000 HD
BRANCH   7  15
ATOM     15  O   UNL     1       5.151   3.279  17.675  0.00  0.00    +0.000 OA
BRANCH  15  22
ATOM     16 BR   UNL     1       7.438   5.479  18.484  0.00  0.00    +0.000 Br
ATOM     17  C   UNL     1       6.764   4.921  16.796  0.00  0.00    +0.000 A 
ATOM     18  C   UNL     1       7.382   5.464  15.662  0.00  0.00    +0.000 A 
ATOM     19  C   UNL     1       7.050   5.002  14.386  0.00  0.00    +0.000 A 
ATOM     20  C   UNL     1       6.094   4.001  14.237  0.00  0.00    +0.000 A 
ATOM     21  C   UNL     1       5.450   3.482  15.362  0.00  0.00    +0.000 A 
ATOM     22  C   UNL     1       5.765   3.951  16.646  0.00  0.00    +0.000 A 
ENDBRANCH  15  22
ENDBRANCH   7  15
ENDBRANCH   1  12
BRANCH   4  23
ATOM     23  C   UNL     1      -0.392  10.188  18.337  0.00  0.00    +0.000 C 
BRANCH  23  24
ATOM     24  C   UNL     1      -0.672  11.630  18.662  0.00  0.00    +0.000 A 
ATOM     25  N   UNL     1      -1.914  12.004  19.023  0.00  0.00    +0.000 NA
ATOM     26  N   UNL     1      -1.799  13.321  19.251  0.00  0.00    +0.000 N 
ATOM     27  C   UNL     1      -0.538  13.817  19.077  0.00  0.00    +0.000 A 
ATOM     28  C   UNL     1      -0.011  15.099  19.269  0.00  0.00    +0.000 A 
ATOM     29  C   UNL     1       1.345  15.276  18.985  0.00  0.00    +0.000 A 
ATOM     30  C   UNL     1       2.124  14.223  18.502  0.00  0.00    +0.000 A 
ATOM     31  C   UNL     1       1.575  12.947  18.317  0.00  0.00    +0.000 A 
ATOM     32  C   UNL     1       0.221  12.739  18.635  0.00  0.00    +0.000 A 
ATOM     33  H   UNL     1      -2.628  13.832  19.533  0.00  0.00    +0.000 HD
ENDBRANCH  23  24
ENDBRANCH   4  23
TORSDOF 5
ENDMDL
MODEL 9
REMARK VINA RESULT:      -7.8      2.822      3.843
REMARK  Name = 
REMARK  5 active torsions:
REMARK  status: ('A' for Active; 'I' for Inactive)
REMARK    1  A    between atoms: C_7  and  O_8
REMARK    2  A    between atoms: O_8  and  C_9
REMARK    3  A    between atoms: N_14  and  C_15
REMARK    4  A    between atoms: N_18  and  C_19
REMARK    5  A    between atoms: C_19  and  C_20
REMARK                            x       y       z     vdW  Elec       q    Type
REMARK                         _______ _______ _______ _____ _____    ______ ____
ROOT
ATOM      1  C   UNL     1       0.332  11.226  18.826  0.00  0.00    +0.000 C 
ATOM      2  C   UNL     1      -0.280  10.057  18.049  0.00  0.00    +0.000 C 
ATOM      3  C   UNL     1       0.636   8.832  17.985  0.00  0.00    +0.000 C 
ATOM      4  N   UNL     1       2.007   9.120  17.523  0.00  0.00    +0.000 NA
ATOM      5  C   UNL     1       2.593  10.277  18.232  0.00  0.00    +0.000 C 
ATOM      6  C   UNL     1       1.708  11.524  18.242  0.00  0.00    +0.000 C 
ENDROOT
BRANCH   1  12
ATOM      7  C   UNL     1      -2.380  12.476  21.744  0.00  0.00    +0.000 A 
ATOM      8  C   UNL     1      -2.385  11.929  23.004  0.00  0.00    +0.000 A 
ATOM      9  C   UNL     1      -1.385  11.029  23.247  0.00  0.00    +0.000 A 
ATOM     10  N   UNL     1      -0.461  10.688  22.334  0.00  0.00    +0.000 NA
ATOM     11  C   UNL     1      -0.516  11.300  21.138  0.00  0.00    +0.000 A 
ATOM     12  N   UNL     1       0.455  10.916  20.244  0.00  0.00    +0.000 N 
ATOM     13  N   UNL     1      -1.439  12.213  20.813  0.00  0.00    +0.000 NA
ATOM     14  H   UNL     1       0.862  10.040  20.534  0.00  0.00    +0.000 HD
BRANCH   7  15
ATOM     15  O   UNL     1      -3.441  13.335  21.473  0.00  0.00    +0.000 OA
BRANCH  15  22
ATOM     16 BR   UNL     1      -5.868  13.337  23.671  0.00  0.00    +0.000 Br
ATOM     17  C   UNL     1      -5.792  12.718  21.875  0.00  0.00    +0.000 A 
ATOM     18  C   UNL     1      -6.988  12.240  21.323  0.00  0.00    +0.000 A 
ATOM     19  C   UNL     1      -7.057  11.902  19.970  0.00  0.00    +0.000 A 
ATOM     20  C   UNL     1      -5.931  12.033  19.163  0.00  0.00    +0.000 A 
ATOM     21  C   UNL     1      -4.728  12.474  19.716  0.00  0.00    +0.000 A 
ATOM     22  C   UNL     1      -4.644  12.801  21.077  0.00  0.00    +0.000 A 
ENDBRANCH  15  22
ENDBRANCH   7  15
ENDBRANCH   1  12
BRANCH   4  23
ATOM     23  C   UNL     1       2.899   7.949  17.773  0.00  0.00    +0.000 C 
BRANCH  23  24
ATOM     24  C   UNL     1       2.425   7.042  18.876  0.00  0.00    +0.000 A 
ATOM     25  N   UNL     1       2.287   7.526  20.124  0.00  0.00    +0.000 NA
ATOM     26  N   UNL     1       1.840   6.476  20.829  0.00  0.00    +0.000 N 
ATOM     27  C   UNL     1       1.660   5.338  20.093  0.00  0.00    +0.000 A 
ATOM     28  C   UNL     1       1.164   4.077  20.442  0.00  0.00    +0.000 A 
ATOM     29  C   UNL     1       1.119   3.112  19.433  0.00  0.00    +0.000 A 
ATOM     30  C   UNL     1       1.579   3.393  18.146  0.00  0.00    +0.000 A 
ATOM     31  C   UNL     1       2.071   4.664  17.819  0.00  0.00    +0.000 A 
ATOM     32  C   UNL     1       2.088   5.660  18.811  0.00  0.00    +0.000 A 
ATOM     33  H   UNL     1       1.668   6.601  21.819  0.00  0.00    +0.000 HD
ENDBRANCH  23  24
ENDBRANCH   4  23
TORSDOF 5
ENDMDL
