MODEL 1
REMARK VINA RESULT:      -8.8      0.000      0.000
REMARK  Name = 
REMARK  7 active torsions:
REMARK  status: ('A' for Active; 'I' for Inactive)
REMARK    1  A    between atoms: N_11  and  C_12
REMARK    2  A    between atoms: N_18  and  C_19
REMARK    3  A    between atoms: C_19  and  C_20
REMARK    4  A    between atoms: C_20  and  C_21
REMARK    5  A    between atoms: C_21  and  C_22
REMARK    6  A    between atoms: C_22  and  N_23
REMARK    7  A    between atoms: N_26  and  C_27
REMARK                            x       y       z     vdW  Elec       q    Type
REMARK                         _______ _______ _______ _____ _____    ______ ____
ROOT
ATOM      1  O   UNL     1       2.254   6.958  20.206  0.00  0.00    +0.000 OA
ATOM      2  C   UNL     1       2.694   6.038  19.521  0.00  0.00    +0.000 A 
ATOM      3  C   UNL     1       2.337   4.658  19.892  0.00  0.00    +0.000 A 
ATOM      4  C   UNL     1       1.450   4.419  20.954  0.00  0.00    +0.000 A 
ATOM      5  C   UNL     1       1.086   3.112  21.292  0.00  0.00    +0.000 A 
ATOM      6  C   UNL     1       1.629   2.035  20.594  0.00  0.00    +0.000 A 
ATOM      7  C   UNL     1       2.502   2.275  19.537  0.00  0.00    +0.000 A 
ATOM      8  C   UNL     1       2.834   3.589  19.172  0.00  0.00    +0.000 A 
ATOM      9  C   UNL     1       3.717   3.802  18.022  0.00  0.00    +0.000 A 
ATOM     10  O   UNL     1       4.210   2.798  17.507  0.00  0.00    +0.000 OA
ATOM     11  N   UNL     1       3.961   5.123  17.610  0.00  0.00    +0.000 N 
ATOM     12  N   UNL     1       3.459   6.230  18.371  0.00  0.00    +0.000 N 
ENDROOT
BRANCH  11  13
ATOM     13  C   UNL     1       5.020   5.268  16.668  0.00  0.00    +0.000 A 
ATOM     14  C   UNL     1       4.790   4.845  15.348  0.00  0.00    +0.000 A 
ATOM     15  C   UNL     1       5.838   4.762  14.434  0.00  0.00    +0.000 A 
ATOM     16  C   UNL     1       7.124   5.089  14.842  0.00  0.00    +0.000 A 
ATOM     17  C   UNL     1       7.357   5.546  16.143  0.00  0.00    +0.000 A 
ATOM     18  C   UNL     1       6.302   5.658  17.056  0.00  0.00    +0.000 A 
ENDBRANCH  11  13
BRANCH  12  19
ATOM     19  C   UNL     1       3.417   7.547  17.723  0.00  0.00    +0.000 C 
BRANCH  19  20
ATOM     20  C   UNL     1       2.075   8.300  17.711  0.00  0.00    +0.000 C 
BRANCH  20  21
ATOM     21  C   UNL     1       2.213   9.819  17.722  0.00  0.00    +0.000 C 
BRANCH  21  22
ATOM     22  C   UNL     1       1.395  10.480  18.855  0.00  0.00    +0.000 C 
BRANCH  22  23
ATOM     23  N   UNL     1       0.042   9.903  18.999  0.00  0.00    +0.000 NA
ATOM     24  C   UNL     1      -0.466   9.970  20.384  0.00  0.00    +0.000 C 
ATOM     25  C   UNL     1      -0.574  11.421  20.863  0.00  0.00    +0.000 C 
ATOM     26  N   UNL     1      -1.626  12.095  20.104  0.00  0.00    +0.000 N 
ATOM     27  C   UNL     1      -1.617  11.933  18.635  0.00  0.00    +0.000 C 
ATOM     28  C   UNL     1      -0.963  10.589  18.139  0.00  0.00    +0.000 C 
BRANCH  26  29
ATOM     29  C   UNL     1      -2.773  12.466  20.792  0.00  0.00    +0.000 A 
ATOM     30  C   UNL     1      -3.973  12.726  20.105  0.00  0.00    +0.000 A 
ATOM     31  C   UNL     1      -5.184  12.902  20.773  0.00  0.00    +0.000 A 
ATOM     32  C   UNL     1      -5.211  12.843  22.158  0.00  0.00    +0.000 A 
ATOM     33  C   UNL     1      -4.022  12.645  22.859  0.00  0.00    +0.000 A 
ATOM     34 CL   UNL     1      -4.069  12.551  24.579  0.00  0.00    +0.000 Cl
ATOM     35  C   UNL     1      -2.809  12.474  22.187  0.00  0.00    +0.000 A 
ENDBRANCH  26  29
ENDBRANCH  22  23
ENDBRANCH  21  22
ENDBRANCH  20  21
ENDBRANCH  19  20
ENDBRANCH  12  19
TORSDOF 7
ENDMDL
MODEL 2
REMARK VINA RESULT:      -8.5      1.929      2.483
REMARK  Name = 
REMARK  7 active torsions:
REMARK  status: ('A' for Active; 'I' for Inactive)
REMARK    1  A    between atoms: N_11  and  C_12
REMARK    2  A    between atoms: N_18  and  C_19
REMARK    3  A    between atoms: C_19  and  C_20
REMARK    4  A    between atoms: C_20  and  C_21
REMARK    5  A    between atoms: C_21  and  C_22
REMARK    6  A    between atoms: C_22  and  N_23
REMARK    7  A    between atoms: N_26  and  C_27
REMARK                            x       y       z     vdW  Elec       q    Type
REMARK                         _______ _______ _______ _____ _____    ______ ____
ROOT
ATOM      1  O   UNL     1       1.357   5.906  20.584  0.00  0.00    +0.000 OA
ATOM      2  C   UNL     1       2.159   5.385  19.812  0.00  0.00    +0.000 A 
ATOM      3  C   UNL     1       1.918   3.995  19.387  0.00  0.00    +0.000 A 
ATOM      4  C   UNL     1       0.757   3.323  19.798  0.00  0.00    +0.000 A 
ATOM      5  C   UNL     1       0.512   2.013  19.375  0.00  0.00    +0.000 A 
ATOM      6  C   UNL     1       1.438   1.356  18.566  0.00  0.00    +0.000 A 
ATOM      7  C   UNL     1       2.584   2.028  18.155  0.00  0.00    +0.000 A 
ATOM      8  C   UNL     1       2.810   3.357  18.547  0.00  0.00    +0.000 A 
ATOM      9  C   UNL     1       4.004   4.048  18.052  0.00  0.00    +0.000 A 
ATOM     10  O   UNL     1       4.806   3.375  17.403  0.00  0.00    +0.000 OA
ATOM     11  N   UNL     1       4.165   5.407  18.373  0.00  0.00    +0.000 N 
ATOM     12  N   UNL     1       3.248   6.061  19.261  0.00  0.00    +0.000 N 
ENDROOT
BRANCH  11  13
ATOM     13  C   UNL     1       5.455   5.938  18.088  0.00  0.00    +0.000 A 
ATOM     14  C   UNL     1       6.498   5.651  18.985  0.00  0.00    +0.000 A 
ATOM     15  C   UNL     1       7.724   6.306  18.884  0.00  0.00    +0.000 A 
ATOM     16  C   UNL     1       7.906   7.261  17.893  0.00  0.00    +0.000 A 
ATOM     17  C   UNL     1       6.886   7.527  16.974  0.00  0.00    +0.000 A 
ATOM     18  C   UNL     1       5.663   6.852  17.055  0.00  0.00    +0.000 A 
ENDBRANCH  11  13
BRANCH  12  19
ATOM     19  C   UNL     1       3.233   7.528  19.275  0.00  0.00    +0.000 C 
BRANCH  19  20
ATOM     20  C   UNL     1       2.530   8.251  18.112  0.00  0.00    +0.000 C 
BRANCH  20  21
ATOM     21  C   UNL     1       1.699   9.457  18.540  0.00  0.00    +0.000 C 
BRANCH  21  22
ATOM     22  C   UNL     1       0.906   9.197  19.842  0.00  0.00    +0.000 C 
BRANCH  22  23
ATOM     23  N   UNL     1       1.353  10.043  20.967  0.00  0.00    +0.000 NA
ATOM     24  C   UNL     1       0.881  11.438  20.859  0.00  0.00    +0.000 C 
ATOM     25  C   UNL     1      -0.649  11.505  20.865  0.00  0.00    +0.000 C 
ATOM     26  N   UNL     1      -1.138  11.104  22.182  0.00  0.00    +0.000 N 
ATOM     27  C   UNL     1      -0.576   9.870  22.771  0.00  0.00    +0.000 C 
ATOM     28  C   UNL     1       0.883   9.531  22.285  0.00  0.00    +0.000 C 
BRANCH  26  29
ATOM     29  C   UNL     1      -1.741  12.079  22.965  0.00  0.00    +0.000 A 
ATOM     30  C   UNL     1      -1.154  13.348  23.116  0.00  0.00    +0.000 A 
ATOM     31  C   UNL     1      -1.827  14.407  23.723  0.00  0.00    +0.000 A 
ATOM     32  C   UNL     1      -3.106  14.204  24.218  0.00  0.00    +0.000 A 
ATOM     33  C   UNL     1      -3.682  12.937  24.131  0.00  0.00    +0.000 A 
ATOM     34 CL   UNL     1      -5.281  12.700  24.729  0.00  0.00    +0.000 Cl
ATOM     35  C   UNL     1      -3.003  11.876  23.525  0.00  0.00    +0.000 A 
ENDBRANCH  26  29
ENDBRANCH  22  23
ENDBRANCH  21  22
ENDBRANCH  20  21
ENDBRANCH  19  20
ENDBRANCH  12  19
TORSDOF 7
ENDMDL
MODEL 3
REMARK VINA RESULT:      -8.5      1.778      4.410
REMARK  Name = 
REMARK  7 active torsions:
REMARK  status: ('A' for Active; 'I' for Inactive)
REMARK    1  A    between atoms: N_11  and  C_12
REMARK    2  A    between atoms: N_18  and  C_19
REMARK    3  A    between atoms: C_19  and  C_20
REMARK    4  A    between atoms: C_20  and  C_21
REMARK    5  A    between atoms: C_21  and  C_22
REMARK    6  A    between atoms: C_22  and  N_23
REMARK    7  A    between atoms: N_26  and  C_27
REMARK                            x       y       z     vdW  Elec       q    Type
REMARK                         _______ _______ _______ _____ _____    ______ ____
ROOT
ATOM      1  O   UNL     1       4.339   7.498  16.948  0.00  0.00    +0.000 OA
ATOM      2  C   UNL     1       4.320   6.285  17.144  0.00  0.00    +0.000 A 
ATOM      3  C   UNL     1       5.004   5.409  16.177  0.00  0.00    +0.000 A 
ATOM      4  C   UNL     1       5.724   5.965  15.108  0.00  0.00    +0.000 A 
ATOM      5  C   UNL     1       6.398   5.138  14.203  0.00  0.00    +0.000 A 
ATOM      6  C   UNL     1       6.332   3.753  14.342  0.00  0.00    +0.000 A 
ATOM      7  C   UNL     1       5.623   3.206  15.406  0.00  0.00    +0.000 A 
ATOM      8  C   UNL     1       4.981   4.037  16.337  0.00  0.00    +0.000 A 
ATOM      9  C   UNL     1       4.287   3.425  17.474  0.00  0.00    +0.000 A 
ATOM     10  O   UNL     1       4.214   2.195  17.482  0.00  0.00    +0.000 OA
ATOM     11  N   UNL     1       3.734   4.272  18.448  0.00  0.00    +0.000 N 
ATOM     12  N   UNL     1       3.743   5.695  18.269  0.00  0.00    +0.000 N 
ENDROOT
BRANCH  11  13
ATOM     13  C   UNL     1       2.860   3.630  19.371  0.00  0.00    +0.000 A 
ATOM     14  C   UNL     1       1.480   3.669  19.108  0.00  0.00    +0.000 A 
ATOM     15  C   UNL     1       0.561   3.249  20.068  0.00  0.00    +0.000 A 
ATOM     16  C   UNL     1       1.018   2.802  21.300  0.00  0.00    +0.000 A 
ATOM     17  C   UNL     1       2.391   2.725  21.557  0.00  0.00    +0.000 A 
ATOM     18  C   UNL     1       3.319   3.120  20.586  0.00  0.00    +0.000 A 
ENDBRANCH  11  13
BRANCH  12  19
ATOM     19  C   UNL     1       3.500   6.538  19.446  0.00  0.00    +0.000 C 
BRANCH  19  20
ATOM     20  C   UNL     1       2.139   7.248  19.553  0.00  0.00    +0.000 C 
BRANCH  20  21
ATOM     21  C   UNL     1       1.659   7.463  20.985  0.00  0.00    +0.000 C 
BRANCH  21  22
ATOM     22  C   UNL     1       1.478   8.959  21.330  0.00  0.00    +0.000 C 
BRANCH  22  23
ATOM     23  N   UNL     1       0.359   9.587  20.597  0.00  0.00    +0.000 NA
ATOM     24  C   UNL     1      -0.892   9.623  21.381  0.00  0.00    +0.000 C 
ATOM     25  C   UNL     1      -0.717  10.441  22.664  0.00  0.00    +0.000 C 
ATOM     26  N   UNL     1      -0.523  11.845  22.309  0.00  0.00    +0.000 N 
ATOM     27  C   UNL     1       0.460  12.151  21.248  0.00  0.00    +0.000 C 
ATOM     28  C   UNL     1       0.657  10.991  20.200  0.00  0.00    +0.000 C 
BRANCH  26  29
ATOM     29  C   UNL     1      -1.529  12.737  22.651  0.00  0.00    +0.000 A 
ATOM     30  C   UNL     1      -2.803  12.647  22.063  0.00  0.00    +0.000 A 
ATOM     31  C   UNL     1      -3.887  13.390  22.527  0.00  0.00    +0.000 A 
ATOM     32  C   UNL     1      -3.706  14.266  23.587  0.00  0.00    +0.000 A 
ATOM     33  C   UNL     1      -2.437  14.413  24.146  0.00  0.00    +0.000 A 
ATOM     34 CL   UNL     1      -2.227  15.487  25.476  0.00  0.00    +0.000 Cl
ATOM     35  C   UNL     1      -1.352  13.669  23.675  0.00  0.00    +0.000 A 
ENDBRANCH  26  29
ENDBRANCH  22  23
ENDBRANCH  21  22
ENDBRANCH  20  21
ENDBRANCH  19  20
ENDBRANCH  12  19
TORSDOF 7
ENDMDL
MODEL 4
REMARK VINA RESULT:      -8.5      0.769      1.143
REMARK  Name = 
REMARK  7 active torsions:
REMARK  status: ('A' for Active; 'I' for Inactive)
REMARK    1  A    between atoms: N_11  and  C_12
REMARK    2  A    between atoms: N_18  and  C_19
REMARK    3  A    between atoms: C_19  and  C_20
REMARK    4  A    between atoms: C_20  and  C_21
REMARK    5  A    between atoms: C_21  and  C_22
REMARK    6  A    between atoms: C_22  and  N_23
REMARK    7  A    between atoms: N_26  and  C_27
REMARK                            x       y       z     vdW  Elec       q    Type
REMARK                         _______ _______ _______ _____ _____    ______ ____
ROOT
ATOM      1  O   UNL     1       2.346   6.920  20.235  0.00  0.00    +0.000 OA
ATOM      2  C   UNL     1       2.770   5.985  19.559  0.00  0.00    +0.000 A 
ATOM      3  C   UNL     1       2.421   4.613  19.967  0.00  0.00    +0.000 A 
ATOM      4  C   UNL     1       1.559   4.397  21.053  0.00  0.00    +0.000 A 
ATOM      5  C   UNL     1       1.204   3.097  21.427  0.00  0.00    +0.000 A 
ATOM      6  C   UNL     1       1.730   2.006  20.739  0.00  0.00    +0.000 A 
ATOM      7  C   UNL     1       2.579   2.223  19.658  0.00  0.00    +0.000 A 
ATOM      8  C   UNL     1       2.903   3.530  19.258  0.00  0.00    +0.000 A 
ATOM      9  C   UNL     1       3.758   3.719  18.084  0.00  0.00    +0.000 A 
ATOM     10  O   UNL     1       4.240   2.704  17.578  0.00  0.00    +0.000 OA
ATOM     11  N   UNL     1       3.993   5.031  17.639  0.00  0.00    +0.000 N 
ATOM     12  N   UNL     1       3.508   6.154  18.388  0.00  0.00    +0.000 N 
ENDROOT
BRANCH  11  13
ATOM     13  C   UNL     1       5.029   5.156  16.670  0.00  0.00    +0.000 A 
ATOM     14  C   UNL     1       4.768   4.709  15.364  0.00  0.00    +0.000 A 
ATOM     15  C   UNL     1       5.795   4.606  14.428  0.00  0.00    +0.000 A 
ATOM     16  C   UNL     1       7.091   4.938  14.800  0.00  0.00    +0.000 A 
ATOM     17  C   UNL     1       7.354   5.419  16.086  0.00  0.00    +0.000 A 
ATOM     18  C   UNL     1       6.321   5.550  17.021  0.00  0.00    +0.000 A 
ENDBRANCH  11  13
BRANCH  12  19
ATOM     19  C   UNL     1       3.451   7.457  17.714  0.00  0.00    +0.000 C 
BRANCH  19  20
ATOM     20  C   UNL     1       2.068   8.097  17.501  0.00  0.00    +0.000 C 
BRANCH  20  21
ATOM     21  C   UNL     1       2.017   9.589  17.813  0.00  0.00    +0.000 C 
BRANCH  21  22
ATOM     22  C   UNL     1       1.142   9.906  19.048  0.00  0.00    +0.000 C 
BRANCH  22  23
ATOM     23  N   UNL     1       1.074  11.351  19.349  0.00  0.00    +0.000 NA
ATOM     24  C   UNL     1      -0.131  11.997  18.792  0.00  0.00    +0.000 C 
ATOM     25  C   UNL     1      -1.407  11.385  19.378  0.00  0.00    +0.000 C 
ATOM     26  N   UNL     1      -1.489  11.725  20.797  0.00  0.00    +0.000 N 
ATOM     27  C   UNL     1      -0.277  11.521  21.619  0.00  0.00    +0.000 C 
ATOM     28  C   UNL     1       1.072  11.627  20.813  0.00  0.00    +0.000 C 
BRANCH  26  29
ATOM     29  C   UNL     1      -2.501  12.589  21.190  0.00  0.00    +0.000 A 
ATOM     30  C   UNL     1      -3.575  12.882  20.330  0.00  0.00    +0.000 A 
ATOM     31  C   UNL     1      -4.702  13.578  20.764  0.00  0.00    +0.000 A 
ATOM     32  C   UNL     1      -4.763  14.021  22.076  0.00  0.00    +0.000 A 
ATOM     33  C   UNL     1      -3.683  13.793  22.928  0.00  0.00    +0.000 A 
ATOM     34 CL   UNL     1      -3.778  14.327  24.563  0.00  0.00    +0.000 Cl
ATOM     35  C   UNL     1      -2.553  13.097  22.489  0.00  0.00    +0.000 A 
ENDBRANCH  26  29
ENDBRANCH  22  23
ENDBRANCH  21  22
ENDBRANCH  20  21
ENDBRANCH  19  20
ENDBRANCH  12  19
TORSDOF 7
ENDMDL
MODEL 5
REMARK VINA RESULT:      -8.4      1.363      1.916
REMARK  Name = 
REMARK  7 active torsions:
REMARK  status: ('A' for Active; 'I' for Inactive)
REMARK    1  A    between atoms: N_11  and  C_12
REMARK    2  A    between atoms: N_18  and  C_19
REMARK    3  A    between atoms: C_19  and  C_20
REMARK    4  A    between atoms: C_20  and  C_21
REMARK    5  A    between atoms: C_21  and  C_22
REMARK    6  A    between atoms: C_22  and  N_23
REMARK    7  A    between atoms: N_26  and  C_27
REMARK                            x       y       z     vdW  Elec       q    Type
REMARK                         _______ _______ _______ _____ _____    ______ ____
ROOT
ATOM      1  O   UNL     1       2.869   6.870  20.155  0.00  0.00    +0.000 OA
ATOM      2  C   UNL     1       3.128   5.860  19.505  0.00  0.00    +0.000 A 
ATOM      3  C   UNL     1       2.601   4.569  19.980  0.00  0.00    +0.000 A 
ATOM      4  C   UNL     1       1.760   4.520  21.103  0.00  0.00    +0.000 A 
ATOM      5  C   UNL     1       1.236   3.300  21.541  0.00  0.00    +0.000 A 
ATOM      6  C   UNL     1       1.572   2.119  20.881  0.00  0.00    +0.000 A 
ATOM      7  C   UNL     1       2.401   2.172  19.765  0.00  0.00    +0.000 A 
ATOM      8  C   UNL     1       2.894   3.402  19.301  0.00  0.00    +0.000 A 
ATOM      9  C   UNL     1       3.721   3.422  18.092  0.00  0.00    +0.000 A 
ATOM     10  O   UNL     1       4.032   2.331  17.613  0.00  0.00    +0.000 OA
ATOM     11  N   UNL     1       4.125   4.670  17.585  0.00  0.00    +0.000 N 
ATOM     12  N   UNL     1       3.836   5.877  18.303  0.00  0.00    +0.000 N 
ENDROOT
BRANCH  11  13
ATOM     13  C   UNL     1       5.130   4.608  16.578  0.00  0.00    +0.000 A 
ATOM     14  C   UNL     1       6.472   4.729  16.978  0.00  0.00    +0.000 A 
ATOM     15  C   UNL     1       7.484   4.889  16.034  0.00  0.00    +0.000 A 
ATOM     16  C   UNL     1       7.156   4.941  14.686  0.00  0.00    +0.000 A 
ATOM     17  C   UNL     1       5.828   4.784  14.277  0.00  0.00    +0.000 A 
ATOM     18  C   UNL     1       4.811   4.596  15.221  0.00  0.00    +0.000 A 
ENDBRANCH  11  13
BRANCH  12  19
ATOM     19  C   UNL     1       3.942   7.149  17.579  0.00  0.00    +0.000 C 
BRANCH  19  20
ATOM     20  C   UNL     1       2.636   7.847  17.156  0.00  0.00    +0.000 C 
BRANCH  20  21
ATOM     21  C   UNL     1       2.404   9.195  17.831  0.00  0.00    +0.000 C 
BRANCH  21  22
ATOM     22  C   UNL     1       1.004   9.300  18.478  0.00  0.00    +0.000 C 
BRANCH  22  23
ATOM     23  N   UNL     1       0.432  10.660  18.395  0.00  0.00    +0.000 NA
ATOM     24  C   UNL     1      -0.869  10.777  19.083  0.00  0.00    +0.000 C 
ATOM     25  C   UNL     1      -0.735  10.468  20.577  0.00  0.00    +0.000 C 
ATOM     26  N   UNL     1       0.057  11.520  21.211  0.00  0.00    +0.000 N 
ATOM     27  C   UNL     1       1.319  11.915  20.550  0.00  0.00    +0.000 C 
ATOM     28  C   UNL     1       1.328  11.690  18.992  0.00  0.00    +0.000 C 
BRANCH  26  29
ATOM     29  C   UNL     1      -0.592  12.357  22.107  0.00  0.00    +0.000 A 
ATOM     30  C   UNL     1      -0.212  13.704  22.240  0.00  0.00    +0.000 A 
ATOM     31  C   UNL     1      -0.967  14.617  22.975  0.00  0.00    +0.000 A 
ATOM     32  C   UNL     1      -2.117  14.186  23.618  0.00  0.00    +0.000 A 
ATOM     33  C   UNL     1      -2.479  12.841  23.546  0.00  0.00    +0.000 A 
ATOM     34 CL   UNL     1      -3.922  12.319  24.329  0.00  0.00    +0.000 Cl
ATOM     35  C   UNL     1      -1.717  11.928  22.812  0.00  0.00    +0.000 A 
ENDBRANCH  26  29
ENDBRANCH  22  23
ENDBRANCH  21  22
ENDBRANCH  20  21
ENDBRANCH  19  20
ENDBRANCH  12  19
TORSDOF 7
ENDMDL
MODEL 6
REMARK VINA RESULT:      -8.4      1.826      4.493
REMARK  Name = 
REMARK  7 active torsions:
REMARK  status: ('A' for Active; 'I' for Inactive)
REMARK    1  A    between atoms: N_11  and  C_12
REMARK    2  A    between atoms: N_18  and  C_19
REMARK    3  A    between atoms: C_19  and  C_20
REMARK    4  A    between atoms: C_20  and  C_21
REMARK    5  A    between atoms: C_21  and  C_22
REMARK    6  A    between atoms: C_22  and  N_23
REMARK    7  A    between atoms: N_26  and  C_27
REMARK                            x       y       z     vdW  Elec       q    Type
REMARK                         _______ _______ _______ _____ _____    ______ ____
ROOT
ATOM      1  O   UNL     1       4.360   7.469  17.235  0.00  0.00    +0.000 OA
ATOM      2  C   UNL     1       4.328   6.249  17.377  0.00  0.00    +0.000 A 
ATOM      3  C   UNL     1       4.981   5.409  16.358  0.00  0.00    +0.000 A 
ATOM      4  C   UNL     1       5.688   6.003  15.300  0.00  0.00    +0.000 A 
ATOM      5  C   UNL     1       6.332   5.209  14.346  0.00  0.00    +0.000 A 
ATOM      6  C   UNL     1       6.249   3.820  14.424  0.00  0.00    +0.000 A 
ATOM      7  C   UNL     1       5.554   3.235  15.477  0.00  0.00    +0.000 A 
ATOM      8  C   UNL     1       4.941   4.032  16.457  0.00  0.00    +0.000 A 
ATOM      9  C   UNL     1       4.262   3.377  17.579  0.00  0.00    +0.000 A 
ATOM     10  O   UNL     1       4.171   2.150  17.533  0.00  0.00    +0.000 OA
ATOM     11  N   UNL     1       3.740   4.187  18.601  0.00  0.00    +0.000 N 
ATOM     12  N   UNL     1       3.765   5.617  18.486  0.00  0.00    +0.000 N 
ENDROOT
BRANCH  11  13
ATOM     13  C   UNL     1       2.875   3.515  19.512  0.00  0.00    +0.000 A 
ATOM     14  C   UNL     1       1.503   3.479  19.213  0.00  0.00    +0.000 A 
ATOM     15  C   UNL     1       0.581   3.028  20.155  0.00  0.00    +0.000 A 
ATOM     16  C   UNL     1       1.027   2.624  21.406  0.00  0.00    +0.000 A 
ATOM     17  C   UNL     1       2.394   2.622  21.700  0.00  0.00    +0.000 A 
ATOM     18  C   UNL     1       3.327   3.048  20.746  0.00  0.00    +0.000 A 
ENDBRANCH  11  13
BRANCH  12  19
ATOM     19  C   UNL     1       3.557   6.409  19.704  0.00  0.00    +0.000 C 
BRANCH  19  20
ATOM     20  C   UNL     1       2.117   6.826  20.053  0.00  0.00    +0.000 C 
BRANCH  20  21
ATOM     21  C   UNL     1       1.812   8.296  19.783  0.00  0.00    +0.000 C 
BRANCH  21  22
ATOM     22  C   UNL     1       0.660   8.832  20.664  0.00  0.00    +0.000 C 
BRANCH  22  23
ATOM     23  N   UNL     1       1.090   9.909  21.580  0.00  0.00    +0.000 NA
ATOM     24  C   UNL     1       0.856  11.259  21.028  0.00  0.00    +0.000 C 
ATOM     25  C   UNL     1      -0.634  11.498  20.765  0.00  0.00    +0.000 C 
ATOM     26  N   UNL     1      -1.339  11.551  22.045  0.00  0.00    +0.000 N 
ATOM     27  C   UNL     1      -1.052  10.482  23.025  0.00  0.00    +0.000 C 
ATOM     28  C   UNL     1       0.386   9.854  22.891  0.00  0.00    +0.000 C 
BRANCH  26  29
ATOM     29  C   UNL     1      -1.877  12.771  22.430  0.00  0.00    +0.000 A 
ATOM     30  C   UNL     1      -3.006  13.299  21.780  0.00  0.00    +0.000 A 
ATOM     31  C   UNL     1      -3.688  14.412  22.269  0.00  0.00    +0.000 A 
ATOM     32  C   UNL     1      -3.230  15.039  23.417  0.00  0.00    +0.000 A 
ATOM     33  C   UNL     1      -2.077  14.566  24.043  0.00  0.00    +0.000 A 
ATOM     34 CL   UNL     1      -1.529  15.337  25.483  0.00  0.00    +0.000 Cl
ATOM     35  C   UNL     1      -1.394  13.452  23.548  0.00  0.00    +0.000 A 
ENDBRANCH  26  29
ENDBRANCH  22  23
ENDBRANCH  21  22
ENDBRANCH  20  21
ENDBRANCH  19  20
ENDBRANCH  12  19
TORSDOF 7
ENDMDL
MODEL 7
REMARK VINA RESULT:      -8.4      2.806      5.262
REMARK  Name = 
REMARK  7 active torsions:
REMARK  status: ('A' for Active; 'I' for Inactive)
REMARK    1  A    between atoms: N_11  and  C_12
REMARK    2  A    between atoms: N_18  and  C_19
REMARK    3  A    between atoms: C_19  and  C_20
REMARK    4  A    between atoms: C_20  and  C_21
REMARK    5  A    between atoms: C_21  and  C_22
REMARK    6  A    between atoms: C_22  and  N_23
REMARK    7  A    between atoms: N_26  and  C_27
REMARK                            x       y       z     vdW  Elec       q    Type
REMARK                         _______ _______ _______ _____ _____    ______ ____
ROOT
ATOM      1  O   UNL     1       3.990   7.551  17.067  0.00  0.00    +0.000 OA
ATOM      2  C   UNL     1       4.068   6.345  17.286  0.00  0.00    +0.000 A 
ATOM      3  C   UNL     1       4.834   5.511  16.343  0.00  0.00    +0.000 A 
ATOM      4  C   UNL     1       5.518   6.105  15.271  0.00  0.00    +0.000 A 
ATOM      5  C   UNL     1       6.269   5.321  14.389  0.00  0.00    +0.000 A 
ATOM      6  C   UNL     1       6.315   3.938  14.553  0.00  0.00    +0.000 A 
ATOM      7  C   UNL     1       5.641   3.353  15.620  0.00  0.00    +0.000 A 
ATOM      8  C   UNL     1       4.922   4.145  16.529  0.00  0.00    +0.000 A 
ATOM      9  C   UNL     1       4.268   3.498  17.669  0.00  0.00    +0.000 A 
ATOM     10  O   UNL     1       4.296   2.267  17.700  0.00  0.00    +0.000 OA
ATOM     11  N   UNL     1       3.635   4.314  18.622  0.00  0.00    +0.000 N 
ATOM     12  N   UNL     1       3.529   5.730  18.416  0.00  0.00    +0.000 N 
ENDROOT
BRANCH  11  13
ATOM     13  C   UNL     1       2.806   3.618  19.548  0.00  0.00    +0.000 A 
ATOM     14  C   UNL     1       1.424   3.584  19.298  0.00  0.00    +0.000 A 
ATOM     15  C   UNL     1       0.538   3.108  20.263  0.00  0.00    +0.000 A 
ATOM     16  C   UNL     1       1.031   2.677  21.487  0.00  0.00    +0.000 A 
ATOM     17  C   UNL     1       2.408   2.673  21.730  0.00  0.00    +0.000 A 
ATOM     18  C   UNL     1       3.304   3.124  20.754  0.00  0.00    +0.000 A 
ENDBRANCH  11  13
BRANCH  12  19
ATOM     19  C   UNL     1       3.203   6.571  19.574  0.00  0.00    +0.000 C 
BRANCH  19  20
ATOM     20  C   UNL     1       1.783   7.158  19.660  0.00  0.00    +0.000 C 
BRANCH  20  21
ATOM     21  C   UNL     1       1.725   8.565  20.246  0.00  0.00    +0.000 C 
BRANCH  21  22
ATOM     22  C   UNL     1       0.686   9.460  19.532  0.00  0.00    +0.000 C 
BRANCH  22  23
ATOM     23  N   UNL     1       0.198  10.566  20.383  0.00  0.00    +0.000 NA
ATOM     24  C   UNL     1       1.238  11.576  20.663  0.00  0.00    +0.000 C 
ATOM     25  C   UNL     1       1.736  12.229  19.369  0.00  0.00    +0.000 C 
ATOM     26  N   UNL     1       0.658  13.031  18.796  0.00  0.00    +0.000 N 
ATOM     27  C   UNL     1      -0.678  12.404  18.693  0.00  0.00    +0.000 C 
ATOM     28  C   UNL     1      -0.950  11.290  19.771  0.00  0.00    +0.000 C 
BRANCH  26  29
ATOM     29  C   UNL     1       0.821  14.409  18.787  0.00  0.00    +0.000 A 
ATOM     30  C   UNL     1       2.098  14.984  18.665  0.00  0.00    +0.000 A 
ATOM     31  C   UNL     1       2.278  16.349  18.450  0.00  0.00    +0.000 A 
ATOM     32  C   UNL     1       1.169  17.177  18.377  0.00  0.00    +0.000 A 
ATOM     33  C   UNL     1      -0.104  16.636  18.554  0.00  0.00    +0.000 A 
ATOM     34 CL   UNL     1      -1.478  17.669  18.438  0.00  0.00    +0.000 Cl
ATOM     35  C   UNL     1      -0.280  15.267  18.773  0.00  0.00    +0.000 A 
ENDBRANCH  26  29
ENDBRANCH  22  23
ENDBRANCH  21  22
ENDBRANCH  20  21
ENDBRANCH  19  20
ENDBRANCH  12  19
TORSDOF 7
ENDMDL
MODEL 8
REMARK VINA RESULT:      -8.4      1.283      1.707
REMARK  Name = 
REMARK  7 active torsions:
REMARK  status: ('A' for Active; 'I' for Inactive)
REMARK    1  A    between atoms: N_11  and  C_12
REMARK    2  A    between atoms: N_18  and  C_19
REMARK    3  A    between atoms: C_19  and  C_20
REMARK    4  A    between atoms: C_20  and  C_21
REMARK    5  A    between atoms: C_21  and  C_22
REMARK    6  A    between atoms: C_22  and  N_23
REMARK    7  A    between atoms: N_26  and  C_27
REMARK                            x       y       z     vdW  Elec       q    Type
REMARK                         _______ _______ _______ _____ _____    ______ ____
ROOT
ATOM      1  O   UNL     1       2.319   6.931  20.231  0.00  0.00    +0.000 OA
ATOM      2  C   UNL     1       2.745   6.013  19.535  0.00  0.00    +0.000 A 
ATOM      3  C   UNL     1       2.343   4.636  19.870  0.00  0.00    +0.000 A 
ATOM      4  C   UNL     1       1.431   4.401  20.910  0.00  0.00    +0.000 A 
ATOM      5  C   UNL     1       1.025   3.098  21.214  0.00  0.00    +0.000 A 
ATOM      6  C   UNL     1       1.550   2.020  20.503  0.00  0.00    +0.000 A 
ATOM      7  C   UNL     1       2.449   2.258  19.468  0.00  0.00    +0.000 A 
ATOM      8  C   UNL     1       2.825   3.569  19.137  0.00  0.00    +0.000 A 
ATOM      9  C   UNL     1       3.734   3.781  18.008  0.00  0.00    +0.000 A 
ATOM     10  O   UNL     1       4.208   2.775  17.480  0.00  0.00    +0.000 OA
ATOM     11  N   UNL     1       4.022   5.104  17.628  0.00  0.00    +0.000 N 
ATOM     12  N   UNL     1       3.537   6.208  18.403  0.00  0.00    +0.000 N 
ENDROOT
BRANCH  11  13
ATOM     13  C   UNL     1       5.102   5.238  16.708  0.00  0.00    +0.000 A 
ATOM     14  C   UNL     1       4.873   4.888  15.367  0.00  0.00    +0.000 A 
ATOM     15  C   UNL     1       5.931   4.794  14.465  0.00  0.00    +0.000 A 
ATOM     16  C   UNL     1       7.224   5.037  14.906  0.00  0.00    +0.000 A 
ATOM     17  C   UNL     1       7.458   5.422  16.230  0.00  0.00    +0.000 A 
ATOM     18  C   UNL     1       6.395   5.545  17.132  0.00  0.00    +0.000 A 
ENDBRANCH  11  13
BRANCH  12  19
ATOM     19  C   UNL     1       3.544   7.539  17.783  0.00  0.00    +0.000 C 
BRANCH  19  20
ATOM     20  C   UNL     1       2.187   8.175  17.430  0.00  0.00    +0.000 C 
BRANCH  20  21
ATOM     21  C   UNL     1       2.048   9.628  17.871  0.00  0.00    +0.000 C 
BRANCH  21  22
ATOM     22  C   UNL     1       0.911   9.828  18.899  0.00  0.00    +0.000 C 
BRANCH  22  23
ATOM     23  N   UNL     1       1.136  10.988  19.787  0.00  0.00    +0.000 NA
ATOM     24  C   UNL     1       0.251  12.128  19.477  0.00  0.00    +0.000 C 
ATOM     25  C   UNL     1      -1.223  11.747  19.648  0.00  0.00    +0.000 C 
ATOM     26  N   UNL     1      -1.491  11.511  21.066  0.00  0.00    +0.000 N 
ATOM     27  C   UNL     1      -0.544  10.649  21.805  0.00  0.00    +0.000 C 
ATOM     28  C   UNL     1       0.920  10.654  21.223  0.00  0.00    +0.000 C 
BRANCH  26  29
ATOM     29  C   UNL     1      -2.322  12.411  21.718  0.00  0.00    +0.000 A 
ATOM     30  C   UNL     1      -2.655  12.233  23.073  0.00  0.00    +0.000 A 
ATOM     31  C   UNL     1      -3.315  13.217  23.808  0.00  0.00    +0.000 A 
ATOM     32  C   UNL     1      -3.679  14.401  23.185  0.00  0.00    +0.000 A 
ATOM     33  C   UNL     1      -3.409  14.572  21.827  0.00  0.00    +0.000 A 
ATOM     34 CL   UNL     1      -3.845  16.056  21.067  0.00  0.00    +0.000 Cl
ATOM     35  C   UNL     1      -2.751  13.582  21.092  0.00  0.00    +0.000 A 
ENDBRANCH  26  29
ENDBRANCH  22  23
ENDBRANCH  21  22
ENDBRANCH  20  21
ENDBRANCH  19  20
ENDBRANCH  12  19
TORSDOF 7
ENDMDL
MODEL 9
REMARK VINA RESULT:      -8.4      1.912      4.293
REMARK  Name = 
REMARK  7 active torsions:
REMARK  status: ('A' for Active; 'I' for Inactive)
REMARK    1  A    between atoms: N_11  and  C_12
REMARK    2  A    between atoms: N_18  and  C_19
REMARK    3  A    between atoms: C_19  and  C_20
REMARK    4  A    between atoms: C_20  and  C_21
REMARK    5  A    between atoms: C_21  and  C_22
REMARK    6  A    between atoms: C_22  and  N_23
REMARK    7  A    between atoms: N_26  and  C_27
REMARK                            x       y       z     vdW  Elec       q    Type
REMARK                         _______ _______ _______ _____ _____    ______ ____
ROOT
ATOM      1  O   UNL     1       4.153   8.032  16.554  0.00  0.00    +0.000 OA
ATOM      2  C   UNL     1       4.285   7.098  17.342  0.00  0.00    +0.000 A 
ATOM      3  C   UNL     1       5.642   6.753  17.797  0.00  0.00    +0.000 A 
ATOM      4  C   UNL     1       6.740   7.531  17.397  0.00  0.00    +0.000 A 
ATOM      5  C   UNL     1       8.027   7.223  17.849  0.00  0.00    +0.000 A 
ATOM      6  C   UNL     1       8.230   6.120  18.677  0.00  0.00    +0.000 A 
ATOM      7  C   UNL     1       7.139   5.356  19.077  0.00  0.00    +0.000 A 
ATOM      8  C   UNL     1       5.842   5.689  18.656  0.00  0.00    +0.000 A 
ATOM      9  C   UNL     1       4.713   4.891  19.140  0.00  0.00    +0.000 A 
ATOM     10  O   UNL     1       4.985   3.892  19.808  0.00  0.00    +0.000 OA
ATOM     11  N   UNL     1       3.414   5.297  18.789  0.00  0.00    +0.000 N 
ATOM     12  N   UNL     1       3.211   6.389  17.882  0.00  0.00    +0.000 N 
ENDROOT
BRANCH  11  13
ATOM     13  C   UNL     1       2.395   4.341  19.066  0.00  0.00    +0.000 A 
ATOM     14  C   UNL     1       1.859   4.308  20.364  0.00  0.00    +0.000 A 
ATOM     15  C   UNL     1       1.018   3.270  20.761  0.00  0.00    +0.000 A 
ATOM     16  C   UNL     1       0.721   2.254  19.864  0.00  0.00    +0.000 A 
ATOM     17  C   UNL     1       1.220   2.298  18.558  0.00  0.00    +0.000 A 
ATOM     18  C   UNL     1       2.043   3.353  18.147  0.00  0.00    +0.000 A 
ENDBRANCH  11  13
BRANCH  12  19
ATOM     19  C   UNL     1       1.879   7.004  17.834  0.00  0.00    +0.000 C 
BRANCH  19  20
ATOM     20  C   UNL     1       1.618   8.225  18.734  0.00  0.00    +0.000 C 
BRANCH  20  21
ATOM     21  C   UNL     1       1.306   9.507  17.970  0.00  0.00    +0.000 C 
BRANCH  21  22
ATOM     22  C   UNL     1       0.794  10.636  18.893  0.00  0.00    +0.000 C 
BRANCH  22  23
ATOM     23  N   UNL     1      -0.449  10.276  19.607  0.00  0.00    +0.000 NA
ATOM     24  C   UNL     1      -0.276  10.234  21.073  0.00  0.00    +0.000 C 
ATOM     25  C   UNL     1       0.142  11.602  21.620  0.00  0.00    +0.000 C 
ATOM     26  N   UNL     1      -0.968  12.539  21.457  0.00  0.00    +0.000 N 
ATOM     27  C   UNL     1      -1.634  12.583  20.137  0.00  0.00    +0.000 C 
ATOM     28  C   UNL     1      -1.559  11.231  19.333  0.00  0.00    +0.000 C 
BRANCH  26  29
ATOM     29  C   UNL     1      -1.595  12.996  22.608  0.00  0.00    +0.000 A 
ATOM     30  C   UNL     1      -1.112  14.125  23.292  0.00  0.00    +0.000 A 
ATOM     31  C   UNL     1      -1.828  14.727  24.325  0.00  0.00    +0.000 A 
ATOM     32  C   UNL     1      -3.045  14.187  24.712  0.00  0.00    +0.000 A 
ATOM     33  C   UNL     1      -3.513  13.032  24.085  0.00  0.00    +0.000 A 
ATOM     34 CL   UNL     1      -5.037  12.381  24.558  0.00  0.00    +0.000 Cl
ATOM     35  C   UNL     1      -2.790  12.429  23.052  0.00  0.00    +0.000 A 
ENDBRANCH  26  29
ENDBRANCH  22  23
ENDBRANCH  21  22
ENDBRANCH  20  21
ENDBRANCH  19  20
ENDBRANCH  12  19
TORSDOF 7
ENDMDL
