MODEL 1
REMARK VINA RESULT:      -8.6      0.000      0.000
REMARK  Name = 
REMARK  11 active torsions:
REMARK  status: ('A' for Active; 'I' for Inactive)
REMARK    1  A    between atoms: C_2  and  C_3
REMARK    2  A    between atoms: C_2  and  C_9
REMARK    3  A    between atoms: C_11  and  C_12
REMARK    4  A    between atoms: C_12  and  C_13
REMARK    5  A    between atoms: C_13  and  N_14
REMARK    6  A    between atoms: N_14  and  S_15
REMARK    7  A    between atoms: S_15  and  C_18
REMARK    8  A    between atoms: C_26  and  C_27
REMARK    9  A    between atoms: C_27  and  C_28
REMARK   10  A    between atoms: C_28  and  C_29
REMARK   11  A    between atoms: C_29  and  O_31
REMARK                            x       y       z     vdW  Elec       q    Type
REMARK                         _______ _______ _______ _____ _____    ______ ____
ROOT
ATOM      1  C   UNL     1       5.099   5.071  16.760  0.00  0.00    +0.000 A 
ATOM      2  C   UNL     1       4.684   6.409  16.780  0.00  0.00    +0.000 A 
ATOM      3  C   UNL     1       3.529   6.785  17.476  0.00  0.00    +0.000 A 
ATOM      4  C   UNL     1       2.760   5.795  18.105  0.00  0.00    +0.000 A 
ATOM      5  C   UNL     1       3.158   4.450  18.093  0.00  0.00    +0.000 A 
ATOM      6  C   UNL     1       4.332   4.098  17.415  0.00  0.00    +0.000 A 
ENDROOT
BRANCH   1   8
ATOM      7  C   UNL     1       7.425   4.502  17.008  0.00  0.00    +0.000 C 
ATOM      8  C   UNL     1       6.402   4.706  16.158  0.00  0.00    +0.000 C 
BRANCH   8   9
ATOM      9  C   UNL     1       6.595   4.563  14.691  0.00  0.00    +0.000 A 
ATOM     10  C   UNL     1       7.557   5.332  14.020  0.00  0.00    +0.000 A 
ATOM     11  C   UNL     1       7.792   5.132  12.658  0.00  0.00    +0.000 A 
ATOM     12  C   UNL     1       7.056   4.166  12.002  0.00  0.00    +0.000 A 
ATOM     13  N   UNL     1       6.116   3.408  12.599  0.00  0.00    +0.000 NA
ATOM     14  C   UNL     1       5.911   3.622  13.922  0.00  0.00    +0.000 A 
ENDBRANCH   8   9
ENDBRANCH   1   8
BRANCH   3  15
ATOM     15  C   UNL     1       3.183   8.247  17.638  0.00  0.00    +0.000 C 
BRANCH  15  16
ATOM     16  C   UNL     1       1.802   8.527  18.226  0.00  0.00    +0.000 C 
BRANCH  16  17
ATOM     17  N   UNL     1       1.265   9.820  17.775  0.00  0.00    +0.000 NA
ATOM     18  H   UNL     1       0.621   9.801  16.981  0.00  0.00    +0.000 HD
BRANCH  17  19
ATOM     19  S   UNL     1       0.677  10.839  18.989  0.00  0.00    +0.000 S 
ATOM     20  O   UNL     1       0.803  10.117  20.233  0.00  0.00    +0.000 OA
ATOM     21  O   UNL     1       1.263  12.143  18.794  0.00  0.00    +0.000 OA
BRANCH  19  22
ATOM     22  C   UNL     1      -1.053  10.927  18.598  0.00  0.00    +0.000 A 
ATOM     23  C   UNL     1      -1.590  10.036  17.665  0.00  0.00    +0.000 A 
ATOM     24  C   UNL     1      -2.952  10.094  17.364  0.00  0.00    +0.000 A 
ATOM     25  C   UNL     1      -3.765  11.031  18.004  0.00  0.00    +0.000 A 
ATOM     26 CL   UNL     1      -5.445  11.096  17.636  0.00  0.00    +0.000 Cl
ATOM     27  C   UNL     1      -3.230  11.914  18.942  0.00  0.00    +0.000 A 
ATOM     28  C   UNL     1      -1.866  11.866  19.243  0.00  0.00    +0.000 A 
ENDBRANCH  19  22
ENDBRANCH  17  19
ENDBRANCH  16  17
ENDBRANCH  15  16
ENDBRANCH   3  15
BRANCH   5  29
ATOM     29  C   UNL     1       2.332   3.418  18.831  0.00  0.00    +0.000 C 
BRANCH  29  30
ATOM     30  C   UNL     1       3.003   2.934  20.116  0.00  0.00    +0.000 C 
BRANCH  30  31
ATOM     31  C   UNL     1       2.288   3.464  21.337  0.00  0.00    +0.000 C 
ATOM     32  O   UNL     1       1.728   2.779  22.179  0.00  0.00    +0.000 OA
BRANCH  31  33
ATOM     33  O   UNL     1       2.326   4.812  21.411  0.00  0.00    +0.000 OA
ATOM     34  H   UNL     1       3.099   5.214  20.971  0.00  0.00    +0.000 HD
ENDBRANCH  31  33
ENDBRANCH  30  31
ENDBRANCH  29  30
ENDBRANCH   5  29
TORSDOF 11
ENDMDL
MODEL 2
REMARK VINA RESULT:      -8.5      3.937      6.287
REMARK  Name = 
REMARK  11 active torsions:
REMARK  status: ('A' for Active; 'I' for Inactive)
REMARK    1  A    between atoms: C_2  and  C_3
REMARK    2  A    between atoms: C_2  and  C_9
REMARK    3  A    between atoms: C_11  and  C_12
REMARK    4  A    between atoms: C_12  and  C_13
REMARK    5  A    between atoms: C_13  and  N_14
REMARK    6  A    between atoms: N_14  and  S_15
REMARK    7  A    between atoms: S_15  and  C_18
REMARK    8  A    between atoms: C_26  and  C_27
REMARK    9  A    between atoms: C_27  and  C_28
REMARK   10  A    between atoms: C_28  and  C_29
REMARK   11  A    between atoms: C_29  and  O_31
REMARK                            x       y       z     vdW  Elec       q    Type
REMARK                         _______ _______ _______ _____ _____    ______ ____
ROOT
ATOM      1  C   UNL     1       4.139   4.067  17.555  0.00  0.00    +0.000 A 
ATOM      2  C   UNL     1       3.811   5.351  18.011  0.00  0.00    +0.000 A 
ATOM      3  C   UNL     1       4.235   6.486  17.309  0.00  0.00    +0.000 A 
ATOM      4  C   UNL     1       5.043   6.321  16.174  0.00  0.00    +0.000 A 
ATOM      5  C   UNL     1       5.384   5.045  15.704  0.00  0.00    +0.000 A 
ATOM      6  C   UNL     1       4.925   3.921  16.404  0.00  0.00    +0.000 A 
ENDROOT
BRANCH   1   8
ATOM      7  C   UNL     1       3.752   1.692  17.597  0.00  0.00    +0.000 C 
ATOM      8  C   UNL     1       3.556   2.874  18.209  0.00  0.00    +0.000 C 
BRANCH   8   9
ATOM      9  C   UNL     1       2.789   2.952  19.481  0.00  0.00    +0.000 A 
ATOM     10  C   UNL     1       1.422   3.264  19.471  0.00  0.00    +0.000 A 
ATOM     11  C   UNL     1       0.688   3.252  20.660  0.00  0.00    +0.000 A 
ATOM     12  C   UNL     1       1.346   2.928  21.830  0.00  0.00    +0.000 A 
ATOM     13  N   UNL     1       2.658   2.629  21.893  0.00  0.00    +0.000 NA
ATOM     14  C   UNL     1       3.343   2.646  20.723  0.00  0.00    +0.000 A 
ENDBRANCH   8   9
ENDBRANCH   1   8
BRANCH   3  15
ATOM     15  C   UNL     1       3.736   7.855  17.707  0.00  0.00    +0.000 C 
BRANCH  15  16
ATOM     16  C   UNL     1       2.225   8.045  17.622  0.00  0.00    +0.000 C 
BRANCH  16  17
ATOM     17  N   UNL     1       1.857   9.462  17.473  0.00  0.00    +0.000 NA
ATOM     18  H   UNL     1       1.610   9.778  16.531  0.00  0.00    +0.000 HD
BRANCH  17  19
ATOM     19  S   UNL     1       0.755  10.063  18.606  0.00  0.00    +0.000 S 
ATOM     20  O   UNL     1      -0.556   9.940  18.015  0.00  0.00    +0.000 OA
ATOM     21  O   UNL     1       1.080   9.484  19.887  0.00  0.00    +0.000 OA
BRANCH  19  22
ATOM     22  C   UNL     1       1.162  11.791  18.643  0.00  0.00    +0.000 A 
ATOM     23  C   UNL     1       2.434  12.204  18.238  0.00  0.00    +0.000 A 
ATOM     24  C   UNL     1       2.753  13.563  18.253  0.00  0.00    +0.000 A 
ATOM     25  C   UNL     1       1.798  14.496  18.661  0.00  0.00    +0.000 A 
ATOM     26 CL   UNL     1       2.192  16.171  18.672  0.00  0.00    +0.000 Cl
ATOM     27  C   UNL     1       0.525  14.083  19.056  0.00  0.00    +0.000 A 
ATOM     28  C   UNL     1       0.201  12.724  19.049  0.00  0.00    +0.000 A 
ENDBRANCH  19  22
ENDBRANCH  17  19
ENDBRANCH  16  17
ENDBRANCH  15  16
ENDBRANCH   3  15
BRANCH   5  29
ATOM     29  C   UNL     1       6.211   4.907  14.444  0.00  0.00    +0.000 C 
BRANCH  29  30
ATOM     30  C   UNL     1       5.635   3.878  13.470  0.00  0.00    +0.000 C 
BRANCH  30  31
ATOM     31  C   UNL     1       6.588   3.617  12.327  0.00  0.00    +0.000 C 
ATOM     32  O   UNL     1       7.356   4.437  11.849  0.00  0.00    +0.000 OA
BRANCH  31  33
ATOM     33  O   UNL     1       6.507   2.350  11.867  0.00  0.00    +0.000 OA
ATOM     34  H   UNL     1       7.129   2.148  11.142  0.00  0.00    +0.000 HD
ENDBRANCH  31  33
ENDBRANCH  30  31
ENDBRANCH  29  30
ENDBRANCH   5  29
TORSDOF 11
ENDMDL
MODEL 3
REMARK VINA RESULT:      -8.4      3.127      5.696
REMARK  Name = 
REMARK  11 active torsions:
REMARK  status: ('A' for Active; 'I' for Inactive)
REMARK    1  A    between atoms: C_2  and  C_3
REMARK    2  A    between atoms: C_2  and  C_9
REMARK    3  A    between atoms: C_11  and  C_12
REMARK    4  A    between atoms: C_12  and  C_13
REMARK    5  A    between atoms: C_13  and  N_14
REMARK    6  A    between atoms: N_14  and  S_15
REMARK    7  A    between atoms: S_15  and  C_18
REMARK    8  A    between atoms: C_26  and  C_27
REMARK    9  A    between atoms: C_27  and  C_28
REMARK   10  A    between atoms: C_28  and  C_29
REMARK   11  A    between atoms: C_29  and  O_31
REMARK                            x       y       z     vdW  Elec       q    Type
REMARK                         _______ _______ _______ _____ _____    ______ ____
ROOT
ATOM      1  C   UNL     1       4.165   4.027  17.444  0.00  0.00    +0.000 A 
ATOM      2  C   UNL     1       3.808   5.295  17.921  0.00  0.00    +0.000 A 
ATOM      3  C   UNL     1       4.222   6.451  17.248  0.00  0.00    +0.000 A 
ATOM      4  C   UNL     1       5.047   6.324  16.121  0.00  0.00    +0.000 A 
ATOM      5  C   UNL     1       5.416   5.064  15.630  0.00  0.00    +0.000 A 
ATOM      6  C   UNL     1       4.969   3.919  16.301  0.00  0.00    +0.000 A 
ENDROOT
BRANCH   1   8
ATOM      7  C   UNL     1       3.886   1.636  17.476  0.00  0.00    +0.000 C 
ATOM      8  C   UNL     1       3.594   2.811  18.066  0.00  0.00    +0.000 C 
BRANCH   8   9
ATOM      9  C   UNL     1       2.741   2.858  19.283  0.00  0.00    +0.000 A 
ATOM     10  C   UNL     1       3.300   2.662  20.553  0.00  0.00    +0.000 A 
ATOM     11  C   UNL     1       2.509   2.793  21.697  0.00  0.00    +0.000 A 
ATOM     12  C   UNL     1       1.176   3.116  21.538  0.00  0.00    +0.000 A 
ATOM     13  N   UNL     1       0.591   3.306  20.339  0.00  0.00    +0.000 NA
ATOM     14  C   UNL     1       1.383   3.175  19.247  0.00  0.00    +0.000 A 
ENDBRANCH   8   9
ENDBRANCH   1   8
BRANCH   3  15
ATOM     15  C   UNL     1       3.693   7.803  17.667  0.00  0.00    +0.000 C 
BRANCH  15  16
ATOM     16  C   UNL     1       2.207   7.841  18.013  0.00  0.00    +0.000 C 
BRANCH  16  17
ATOM     17  N   UNL     1       1.574   9.097  17.580  0.00  0.00    +0.000 NA
ATOM     18  H   UNL     1       0.865   9.028  16.846  0.00  0.00    +0.000 HD
BRANCH  17  19
ATOM     19  S   UNL     1       1.047  10.123  18.817  0.00  0.00    +0.000 S 
ATOM     20  O   UNL     1       1.008   9.331  20.023  0.00  0.00    +0.000 OA
ATOM     21  O   UNL     1       1.801  11.349  18.725  0.00  0.00    +0.000 OA
BRANCH  19  22
ATOM     22  C   UNL     1      -0.633  10.450  18.341  0.00  0.00    +0.000 A 
ATOM     23  C   UNL     1      -1.325  11.497  18.953  0.00  0.00    +0.000 A 
ATOM     24  C   UNL     1      -2.641  11.766  18.572  0.00  0.00    +0.000 A 
ATOM     25  C   UNL     1      -3.248  10.995  17.578  0.00  0.00    +0.000 A 
ATOM     26 CL   UNL     1      -4.868  11.333  17.106  0.00  0.00    +0.000 Cl
ATOM     27  C   UNL     1      -2.551   9.955  16.961  0.00  0.00    +0.000 A 
ATOM     28  C   UNL     1      -1.236   9.677  17.342  0.00  0.00    +0.000 A 
ENDBRANCH  19  22
ENDBRANCH  17  19
ENDBRANCH  16  17
ENDBRANCH  15  16
ENDBRANCH   3  15
BRANCH   5  29
ATOM     29  C   UNL     1       6.262   4.966  14.379  0.00  0.00    +0.000 C 
BRANCH  29  30
ATOM     30  C   UNL     1       5.905   3.754  13.518  0.00  0.00    +0.000 C 
BRANCH  30  31
ATOM     31  C   UNL     1       6.792   3.673  12.297  0.00  0.00    +0.000 C 
ATOM     32  O   UNL     1       7.431   4.600  11.827  0.00  0.00    +0.000 OA
BRANCH  31  33
ATOM     33  O   UNL     1       6.810   2.435  11.756  0.00  0.00    +0.000 OA
ATOM     34  H   UNL     1       6.072   2.258  11.142  0.00  0.00    +0.000 HD
ENDBRANCH  31  33
ENDBRANCH  30  31
ENDBRANCH  29  30
ENDBRANCH   5  29
TORSDOF 11
ENDMDL
MODEL 4
REMARK VINA RESULT:      -8.4      2.336      2.957
REMARK  Name = 
REMARK  11 active torsions:
REMARK  status: ('A' for Active; 'I' for Inactive)
REMARK    1  A    between atoms: C_2  and  C_3
REMARK    2  A    between atoms: C_2  and  C_9
REMARK    3  A    between atoms: C_11  and  C_12
REMARK    4  A    between atoms: C_12  and  C_13
REMARK    5  A    between atoms: C_13  and  N_14
REMARK    6  A    between atoms: N_14  and  S_15
REMARK    7  A    between atoms: S_15  and  C_18
REMARK    8  A    between atoms: C_26  and  C_27
REMARK    9  A    between atoms: C_27  and  C_28
REMARK   10  A    between atoms: C_28  and  C_29
REMARK   11  A    between atoms: C_29  and  O_31
REMARK                            x       y       z     vdW  Elec       q    Type
REMARK                         _______ _______ _______ _____ _____    ______ ____
ROOT
ATOM      1  C   UNL     1       4.550   5.875  18.298  0.00  0.00    +0.000 A 
ATOM      2  C   UNL     1       3.825   7.011  17.912  0.00  0.00    +0.000 A 
ATOM      3  C   UNL     1       2.590   7.303  18.505  0.00  0.00    +0.000 A 
ATOM      4  C   UNL     1       2.061   6.411  19.449  0.00  0.00    +0.000 A 
ATOM      5  C   UNL     1       2.770   5.268  19.846  0.00  0.00    +0.000 A 
ATOM      6  C   UNL     1       4.017   5.009  19.262  0.00  0.00    +0.000 A 
ENDROOT
BRANCH   1   8
ATOM      7  C   UNL     1       6.932   5.907  18.638  0.00  0.00    +0.000 C 
ATOM      8  C   UNL     1       5.921   5.659  17.785  0.00  0.00    +0.000 C 
BRANCH   8   9
ATOM      9  C   UNL     1       6.194   5.188  16.401  0.00  0.00    +0.000 A 
ATOM     10  C   UNL     1       5.243   4.429  15.705  0.00  0.00    +0.000 A 
ATOM     11  C   UNL     1       5.469   4.063  14.376  0.00  0.00    +0.000 A 
ATOM     12  C   UNL     1       6.645   4.469  13.778  0.00  0.00    +0.000 A 
ATOM     13  N   UNL     1       7.594   5.191  14.405  0.00  0.00    +0.000 NA
ATOM     14  C   UNL     1       7.345   5.533  15.694  0.00  0.00    +0.000 A 
ENDBRANCH   8   9
ENDBRANCH   1   8
BRANCH   3  15
ATOM     15  C   UNL     1       1.899   8.613  18.211  0.00  0.00    +0.000 C 
BRANCH  15  16
ATOM     16  C   UNL     1       1.284   9.309  19.422  0.00  0.00    +0.000 C 
BRANCH  16  17
ATOM     17  N   UNL     1       0.048  10.028  19.074  0.00  0.00    +0.000 NA
ATOM     18  H   UNL     1      -0.830   9.629  19.415  0.00  0.00    +0.000 HD
BRANCH  17  19
ATOM     19  S   UNL     1       0.073  11.700  19.319  0.00  0.00    +0.000 S 
ATOM     20  O   UNL     1       1.409  12.036  19.751  0.00  0.00    +0.000 OA
ATOM     21  O   UNL     1      -0.545  12.324  18.175  0.00  0.00    +0.000 OA
BRANCH  19  22
ATOM     22  C   UNL     1      -1.002  11.889  20.721  0.00  0.00    +0.000 A 
ATOM     23  C   UNL     1      -2.179  12.630  20.586  0.00  0.00    +0.000 A 
ATOM     24  C   UNL     1      -3.033  12.769  21.681  0.00  0.00    +0.000 A 
ATOM     25  C   UNL     1      -2.710  12.159  22.895  0.00  0.00    +0.000 A 
ATOM     26 CL   UNL     1      -3.768  12.327  24.242  0.00  0.00    +0.000 Cl
ATOM     27  C   UNL     1      -1.539  11.412  23.026  0.00  0.00    +0.000 A 
ATOM     28  C   UNL     1      -0.677  11.274  21.935  0.00  0.00    +0.000 A 
ENDBRANCH  19  22
ENDBRANCH  17  19
ENDBRANCH  16  17
ENDBRANCH  15  16
ENDBRANCH   3  15
BRANCH   5  29
ATOM     29  C   UNL     1       2.191   4.359  20.909  0.00  0.00    +0.000 C 
BRANCH  29  30
ATOM     30  C   UNL     1       0.924   3.640  20.445  0.00  0.00    +0.000 C 
BRANCH  30  31
ATOM     31  C   UNL     1       1.249   2.546  19.455  0.00  0.00    +0.000 C 
ATOM     32  O   UNL     1       2.281   1.894  19.439  0.00  0.00    +0.000 OA
BRANCH  31  33
ATOM     33  O   UNL     1       0.259   2.353  18.557  0.00  0.00    +0.000 OA
ATOM     34  H   UNL     1       0.161   1.426  18.266  0.00  0.00    +0.000 HD
ENDBRANCH  31  33
ENDBRANCH  30  31
ENDBRANCH  29  30
ENDBRANCH   5  29
TORSDOF 11
ENDMDL
MODEL 5
REMARK VINA RESULT:      -8.3      0.882      1.484
REMARK  Name = 
REMARK  11 active torsions:
REMARK  status: ('A' for Active; 'I' for Inactive)
REMARK    1  A    between atoms: C_2  and  C_3
REMARK    2  A    between atoms: C_2  and  C_9
REMARK    3  A    between atoms: C_11  and  C_12
REMARK    4  A    between atoms: C_12  and  C_13
REMARK    5  A    between atoms: C_13  and  N_14
REMARK    6  A    between atoms: N_14  and  S_15
REMARK    7  A    between atoms: S_15  and  C_18
REMARK    8  A    between atoms: C_26  and  C_27
REMARK    9  A    between atoms: C_27  and  C_28
REMARK   10  A    between atoms: C_28  and  C_29
REMARK   11  A    between atoms: C_29  and  O_31
REMARK                            x       y       z     vdW  Elec       q    Type
REMARK                         _______ _______ _______ _____ _____    ______ ____
ROOT
ATOM      1  C   UNL     1       4.612   5.485  17.061  0.00  0.00    +0.000 A 
ATOM      2  C   UNL     1       3.933   6.659  17.415  0.00  0.00    +0.000 A 
ATOM      3  C   UNL     1       2.709   6.597  18.091  0.00  0.00    +0.000 A 
ATOM      4  C   UNL     1       2.143   5.341  18.360  0.00  0.00    +0.000 A 
ATOM      5  C   UNL     1       2.806   4.157  18.011  0.00  0.00    +0.000 A 
ATOM      6  C   UNL     1       4.043   4.240  17.360  0.00  0.00    +0.000 A 
ENDROOT
BRANCH   1   8
ATOM      7  C   UNL     1       6.924   6.124  17.258  0.00  0.00    +0.000 C 
ATOM      8  C   UNL     1       5.976   5.558  16.490  0.00  0.00    +0.000 C 
BRANCH   8   9
ATOM      9  C   UNL     1       6.307   5.037  15.137  0.00  0.00    +0.000 A 
ATOM     10  C   UNL     1       5.459   4.120  14.499  0.00  0.00    +0.000 A 
ATOM     11  C   UNL     1       5.730   3.700  13.195  0.00  0.00    +0.000 A 
ATOM     12  C   UNL     1       6.847   4.210  12.563  0.00  0.00    +0.000 A 
ATOM     13  N   UNL     1       7.695   5.087  13.135  0.00  0.00    +0.000 NA
ATOM     14  C   UNL     1       7.405   5.478  14.400  0.00  0.00    +0.000 A 
ENDBRANCH   8   9
ENDBRANCH   1   8
BRANCH   3  15
ATOM     15  C   UNL     1       2.069   7.859  18.620  0.00  0.00    +0.000 C 
BRANCH  15  16
ATOM     16  C   UNL     1       2.526   9.150  17.948  0.00  0.00    +0.000 C 
BRANCH  16  17
ATOM     17  N   UNL     1       1.390  10.002  17.564  0.00  0.00    +0.000 NA
ATOM     18  H   UNL     1       0.607   9.543  17.092  0.00  0.00    +0.000 HD
BRANCH  17  19
ATOM     19  S   UNL     1       0.824  11.060  18.756  0.00  0.00    +0.000 S 
ATOM     20  O   UNL     1       1.074  10.424  20.027  0.00  0.00    +0.000 OA
ATOM     21  O   UNL     1       1.318  12.379  18.445  0.00  0.00    +0.000 OA
BRANCH  19  22
ATOM     22  C   UNL     1      -0.930  11.029  18.481  0.00  0.00    +0.000 A 
ATOM     23  C   UNL     1      -1.748  11.919  19.181  0.00  0.00    +0.000 A 
ATOM     24  C   UNL     1      -3.126  11.907  18.958  0.00  0.00    +0.000 A 
ATOM     25  C   UNL     1      -3.672  11.016  18.032  0.00  0.00    +0.000 A 
ATOM     26 CL   UNL     1      -5.370  11.007  17.754  0.00  0.00    +0.000 Cl
ATOM     27  C   UNL     1      -2.853  10.134  17.326  0.00  0.00    +0.000 A 
ATOM     28  C   UNL     1      -1.473  10.137  17.550  0.00  0.00    +0.000 A 
ENDBRANCH  19  22
ENDBRANCH  17  19
ENDBRANCH  16  17
ENDBRANCH  15  16
ENDBRANCH   3  15
BRANCH   5  29
ATOM     29  C   UNL     1       2.189   2.821  18.368  0.00  0.00    +0.000 C 
BRANCH  29  30
ATOM     30  C   UNL     1       2.674   2.288  19.716  0.00  0.00    +0.000 C 
BRANCH  30  31
ATOM     31  C   UNL     1       1.771   2.744  20.839  0.00  0.00    +0.000 C 
ATOM     32  O   UNL     1       2.111   2.890  22.002  0.00  0.00    +0.000 OA
BRANCH  31  33
ATOM     33  O   UNL     1       0.508   2.980  20.420  0.00  0.00    +0.000 OA
ATOM     34  H   UNL     1       0.138   3.828  20.730  0.00  0.00    +0.000 HD
ENDBRANCH  31  33
ENDBRANCH  30  31
ENDBRANCH  29  30
ENDBRANCH   5  29
TORSDOF 11
ENDMDL
MODEL 6
REMARK VINA RESULT:      -8.3      6.354      8.685
REMARK  Name = 
REMARK  11 active torsions:
REMARK  status: ('A' for Active; 'I' for Inactive)
REMARK    1  A    between atoms: C_2  and  C_3
REMARK    2  A    between atoms: C_2  and  C_9
REMARK    3  A    between atoms: C_11  and  C_12
REMARK    4  A    between atoms: C_12  and  C_13
REMARK    5  A    between atoms: C_13  and  N_14
REMARK    6  A    between atoms: N_14  and  S_15
REMARK    7  A    between atoms: S_15  and  C_18
REMARK    8  A    between atoms: C_26  and  C_27
REMARK    9  A    between atoms: C_27  and  C_28
REMARK   10  A    between atoms: C_28  and  C_29
REMARK   11  A    between atoms: C_29  and  O_31
REMARK                            x       y       z     vdW  Elec       q    Type
REMARK                         _______ _______ _______ _____ _____    ______ ____
ROOT
ATOM      1  C   UNL     1       4.709   5.847  17.494  0.00  0.00    +0.000 A 
ATOM      2  C   UNL     1       5.749   6.507  18.162  0.00  0.00    +0.000 A 
ATOM      3  C   UNL     1       7.020   6.602  17.582  0.00  0.00    +0.000 A 
ATOM      4  C   UNL     1       7.254   5.976  16.349  0.00  0.00    +0.000 A 
ATOM      5  C   UNL     1       6.227   5.309  15.667  0.00  0.00    +0.000 A 
ATOM      6  C   UNL     1       4.954   5.249  16.251  0.00  0.00    +0.000 A 
ENDROOT
BRANCH   1   8
ATOM      7  C   UNL     1       2.682   7.062  17.950  0.00  0.00    +0.000 C 
ATOM      8  C   UNL     1       3.332   5.887  18.037  0.00  0.00    +0.000 C 
BRANCH   8   9
ATOM      9  C   UNL     1       2.679   4.701  18.653  0.00  0.00    +0.000 A 
ATOM     10  C   UNL     1       1.583   4.088  18.029  0.00  0.00    +0.000 A 
ATOM     11  C   UNL     1       1.028   2.924  18.566  0.00  0.00    +0.000 A 
ATOM     12  C   UNL     1       1.586   2.406  19.718  0.00  0.00    +0.000 A 
ATOM     13  N   UNL     1       2.632   2.962  20.359  0.00  0.00    +0.000 NA
ATOM     14  C   UNL     1       3.151   4.089  19.812  0.00  0.00    +0.000 A 
ENDBRANCH   8   9
ENDBRANCH   1   8
BRANCH   3  15
ATOM     15  C   UNL     1       8.085   7.459  18.224  0.00  0.00    +0.000 C 
BRANCH  15  16
ATOM     16  C   UNL     1       8.042   8.938  17.851  0.00  0.00    +0.000 C 
BRANCH  16  17
ATOM     17  N   UNL     1       8.850   9.760  18.765  0.00  0.00    +0.000 NA
ATOM     18  H   UNL     1       9.669   9.315  19.185  0.00  0.00    +0.000 HD
BRANCH  17  19
ATOM     19  S   UNL     1       9.236  11.312  18.217  0.00  0.00    +0.000 S 
ATOM     20  O   UNL     1      10.590  11.251  17.721  0.00  0.00    +0.000 OA
ATOM     21  O   UNL     1       8.139  11.780  17.405  0.00  0.00    +0.000 OA
BRANCH  19  22
ATOM     22  C   UNL     1       9.264  12.246  19.728  0.00  0.00    +0.000 A 
ATOM     23  C   UNL     1       9.523  13.618  19.679  0.00  0.00    +0.000 A 
ATOM     24  C   UNL     1       9.533  14.358  20.863  0.00  0.00    +0.000 A 
ATOM     25  C   UNL     1       9.275  13.725  22.080  0.00  0.00    +0.000 A 
ATOM     26 CL   UNL     1       9.282  14.640  23.537  0.00  0.00    +0.000 Cl
ATOM     27  C   UNL     1       9.008  12.356  22.126  0.00  0.00    +0.000 A 
ATOM     28  C   UNL     1       9.002  11.608  20.945  0.00  0.00    +0.000 A 
ENDBRANCH  19  22
ENDBRANCH  17  19
ENDBRANCH  16  17
ENDBRANCH  15  16
ENDBRANCH   3  15
BRANCH   5  29
ATOM     29  C   UNL     1       6.503   4.694  14.312  0.00  0.00    +0.000 C 
BRANCH  29  30
ATOM     30  C   UNL     1       5.382   3.764  13.845  0.00  0.00    +0.000 C 
BRANCH  30  31
ATOM     31  C   UNL     1       5.570   3.368  12.399  0.00  0.00    +0.000 C 
ATOM     32  O   UNL     1       4.704   3.408  11.539  0.00  0.00    +0.000 OA
BRANCH  31  33
ATOM     33  O   UNL     1       6.828   2.949  12.139  0.00  0.00    +0.000 OA
ATOM     34  H   UNL     1       6.891   2.005  11.899  0.00  0.00    +0.000 HD
ENDBRANCH  31  33
ENDBRANCH  30  31
ENDBRANCH  29  30
ENDBRANCH   5  29
TORSDOF 11
ENDMDL
MODEL 7
REMARK VINA RESULT:      -8.2      4.143      8.426
REMARK  Name = 
REMARK  11 active torsions:
REMARK  status: ('A' for Active; 'I' for Inactive)
REMARK    1  A    between atoms: C_2  and  C_3
REMARK    2  A    between atoms: C_2  and  C_9
REMARK    3  A    between atoms: C_11  and  C_12
REMARK    4  A    between atoms: C_12  and  C_13
REMARK    5  A    between atoms: C_13  and  N_14
REMARK    6  A    between atoms: N_14  and  S_15
REMARK    7  A    between atoms: S_15  and  C_18
REMARK    8  A    between atoms: C_26  and  C_27
REMARK    9  A    between atoms: C_27  and  C_28
REMARK   10  A    between atoms: C_28  and  C_29
REMARK   11  A    between atoms: C_29  and  O_31
REMARK                            x       y       z     vdW  Elec       q    Type
REMARK                         _______ _______ _______ _____ _____    ______ ____
ROOT
ATOM      1  C   UNL     1       1.693   9.006  18.866  0.00  0.00    +0.000 A 
ATOM      2  C   UNL     1       2.635   8.747  17.863  0.00  0.00    +0.000 A 
ATOM      3  C   UNL     1       3.362   7.550  17.860  0.00  0.00    +0.000 A 
ATOM      4  C   UNL     1       3.174   6.637  18.909  0.00  0.00    +0.000 A 
ATOM      5  C   UNL     1       2.237   6.880  19.923  0.00  0.00    +0.000 A 
ATOM      6  C   UNL     1       1.500   8.071  19.892  0.00  0.00    +0.000 A 
ENDROOT
BRANCH   1   8
ATOM      7  C   UNL     1      -0.320  10.059  18.071  0.00  0.00    +0.000 C 
ATOM      8  C   UNL     1       0.818  10.197  18.775  0.00  0.00    +0.000 C 
BRANCH   8   9
ATOM      9  C   UNL     1       1.157  11.491  19.424  0.00  0.00    +0.000 A 
ATOM     10  C   UNL     1       1.747  12.526  18.684  0.00  0.00    +0.000 A 
ATOM     11  C   UNL     1       1.985  13.768  19.277  0.00  0.00    +0.000 A 
ATOM     12  C   UNL     1       1.625  13.941  20.599  0.00  0.00    +0.000 A 
ATOM     13  N   UNL     1       1.064  12.977  21.354  0.00  0.00    +0.000 NA
ATOM     14  C   UNL     1       0.843  11.783  20.750  0.00  0.00    +0.000 A 
ENDBRANCH   8   9
ENDBRANCH   1   8
BRANCH   3  15
ATOM     15  C   UNL     1       4.248   7.202  16.687  0.00  0.00    +0.000 C 
BRANCH  15  16
ATOM     16  C   UNL     1       5.741   7.424  16.911  0.00  0.00    +0.000 C 
BRANCH  16  17
ATOM     17  N   UNL     1       6.549   6.326  16.358  0.00  0.00    +0.000 NA
ATOM     18  H   UNL     1       7.295   6.583  15.707  0.00  0.00    +0.000 HD
BRANCH  17  19
ATOM     19  S   UNL     1       7.105   5.184  17.474  0.00  0.00    +0.000 S 
ATOM     20  O   UNL     1       8.069   4.363  16.781  0.00  0.00    +0.000 OA
ATOM     21  O   UNL     1       7.425   5.880  18.696  0.00  0.00    +0.000 OA
BRANCH  19  22
ATOM     22  C   UNL     1       5.658   4.191  17.746  0.00  0.00    +0.000 A 
ATOM     23  C   UNL     1       5.358   3.759  19.041  0.00  0.00    +0.000 A 
ATOM     24  C   UNL     1       4.214   2.990  19.260  0.00  0.00    +0.000 A 
ATOM     25  C   UNL     1       3.377   2.668  18.190  0.00  0.00    +0.000 A 
ATOM     26 CL   UNL     1       1.964   1.725  18.465  0.00  0.00    +0.000 Cl
ATOM     27  C   UNL     1       3.673   3.108  16.899  0.00  0.00    +0.000 A 
ATOM     28  C   UNL     1       4.819   3.874  16.672  0.00  0.00    +0.000 A 
ENDBRANCH  19  22
ENDBRANCH  17  19
ENDBRANCH  16  17
ENDBRANCH  15  16
ENDBRANCH   3  15
BRANCH   5  29
ATOM     29  C   UNL     1       2.022   5.846  21.007  0.00  0.00    +0.000 C 
BRANCH  29  30
ATOM     30  C   UNL     1       1.285   4.605  20.503  0.00  0.00    +0.000 C 
BRANCH  30  31
ATOM     31  C   UNL     1       1.499   3.431  21.428  0.00  0.00    +0.000 C 
ATOM     32  O   UNL     1       2.410   3.324  22.233  0.00  0.00    +0.000 OA
BRANCH  31  33
ATOM     33  O   UNL     1       0.556   2.475  21.275  0.00  0.00    +0.000 OA
ATOM     34  H   UNL     1       0.826   1.594  21.594  0.00  0.00    +0.000 HD
ENDBRANCH  31  33
ENDBRANCH  30  31
ENDBRANCH  29  30
ENDBRANCH   5  29
TORSDOF 11
ENDMDL
MODEL 8
REMARK VINA RESULT:      -8.1      2.016      2.705
REMARK  Name = 
REMARK  11 active torsions:
REMARK  status: ('A' for Active; 'I' for Inactive)
REMARK    1  A    between atoms: C_2  and  C_3
REMARK    2  A    between atoms: C_2  and  C_9
REMARK    3  A    between atoms: C_11  and  C_12
REMARK    4  A    between atoms: C_12  and  C_13
REMARK    5  A    between atoms: C_13  and  N_14
REMARK    6  A    between atoms: N_14  and  S_15
REMARK    7  A    between atoms: S_15  and  C_18
REMARK    8  A    between atoms: C_26  and  C_27
REMARK    9  A    between atoms: C_27  and  C_28
REMARK   10  A    between atoms: C_28  and  C_29
REMARK   11  A    between atoms: C_29  and  O_31
REMARK                            x       y       z     vdW  Elec       q    Type
REMARK                         _______ _______ _______ _____ _____    ______ ____
ROOT
ATOM      1  C   UNL     1       4.437   5.927  18.466  0.00  0.00    +0.000 A 
ATOM      2  C   UNL     1       3.824   7.100  18.006  0.00  0.00    +0.000 A 
ATOM      3  C   UNL     1       2.588   7.507  18.525  0.00  0.00    +0.000 A 
ATOM      4  C   UNL     1       1.945   6.694  19.469  0.00  0.00    +0.000 A 
ATOM      5  C   UNL     1       2.542   5.515  19.939  0.00  0.00    +0.000 A 
ATOM      6  C   UNL     1       3.791   5.139  19.428  0.00  0.00    +0.000 A 
ENDROOT
BRANCH   1   8
ATOM      7  C   UNL     1       6.778   5.670  18.963  0.00  0.00    +0.000 C 
ATOM      8  C   UNL     1       5.811   5.586  18.031  0.00  0.00    +0.000 C 
BRANCH   8   9
ATOM      9  C   UNL     1       6.131   5.168  16.640  0.00  0.00    +0.000 A 
ATOM     10  C   UNL     1       5.212   4.417  15.893  0.00  0.00    +0.000 A 
ATOM     11  C   UNL     1       5.482   4.100  14.559  0.00  0.00    +0.000 A 
ATOM     12  C   UNL     1       6.668   4.545  14.009  0.00  0.00    +0.000 A 
ATOM     13  N   UNL     1       7.585   5.262  14.687  0.00  0.00    +0.000 NA
ATOM     14  C   UNL     1       7.295   5.556  15.978  0.00  0.00    +0.000 A 
ENDBRANCH   8   9
ENDBRANCH   1   8
BRANCH   3  15
ATOM     15  C   UNL     1       2.017   8.855  18.153  0.00  0.00    +0.000 C 
BRANCH  15  16
ATOM     16  C   UNL     1       0.949   9.393  19.102  0.00  0.00    +0.000 C 
BRANCH  16  17
ATOM     17  N   UNL     1       1.070  10.846  19.298  0.00  0.00    +0.000 NA
ATOM     18  H   UNL     1       0.511  11.443  18.684  0.00  0.00    +0.000 HD
BRANCH  17  19
ATOM     19  S   UNL     1       0.969  11.386  20.898  0.00  0.00    +0.000 S 
ATOM     20  O   UNL     1       1.149  10.227  21.738  0.00  0.00    +0.000 OA
ATOM     21  O   UNL     1       1.797  12.561  21.020  0.00  0.00    +0.000 OA
BRANCH  19  22
ATOM     22  C   UNL     1      -0.734  11.874  21.021  0.00  0.00    +0.000 A 
ATOM     23  C   UNL     1      -1.300  12.071  22.284  0.00  0.00    +0.000 A 
ATOM     24  C   UNL     1      -2.634  12.468  22.385  0.00  0.00    +0.000 A 
ATOM     25  C   UNL     1      -3.387  12.674  21.227  0.00  0.00    +0.000 A 
ATOM     26 CL   UNL     1      -5.030  13.169  21.354  0.00  0.00    +0.000 Cl
ATOM     27  C   UNL     1      -2.819  12.485  19.967  0.00  0.00    +0.000 A 
ATOM     28  C   UNL     1      -1.485  12.083  19.859  0.00  0.00    +0.000 A 
ENDBRANCH  19  22
ENDBRANCH  17  19
ENDBRANCH  16  17
ENDBRANCH  15  16
ENDBRANCH   3  15
BRANCH   5  29
ATOM     29  C   UNL     1       1.842   4.693  21.000  0.00  0.00    +0.000 C 
BRANCH  29  30
ATOM     30  C   UNL     1       2.157   3.200  20.893  0.00  0.00    +0.000 C 
BRANCH  30  31
ATOM     31  C   UNL     1       1.396   2.563  19.754  0.00  0.00    +0.000 C 
ATOM     32  O   UNL     1       1.901   1.979  18.808  0.00  0.00    +0.000 OA
BRANCH  31  33
ATOM     33  O   UNL     1       0.059   2.708  19.883  0.00  0.00    +0.000 OA
ATOM     34  H   UNL     1      -0.451   2.397  19.111  0.00  0.00    +0.000 HD
ENDBRANCH  31  33
ENDBRANCH  30  31
ENDBRANCH  29  30
ENDBRANCH   5  29
TORSDOF 11
ENDMDL
MODEL 9
REMARK VINA RESULT:      -8.1      6.315      8.746
REMARK  Name = 
REMARK  11 active torsions:
REMARK  status: ('A' for Active; 'I' for Inactive)
REMARK    1  A    between atoms: C_2  and  C_3
REMARK    2  A    between atoms: C_2  and  C_9
REMARK    3  A    between atoms: C_11  and  C_12
REMARK    4  A    between atoms: C_12  and  C_13
REMARK    5  A    between atoms: C_13  and  N_14
REMARK    6  A    between atoms: N_14  and  S_15
REMARK    7  A    between atoms: S_15  and  C_18
REMARK    8  A    between atoms: C_26  and  C_27
REMARK    9  A    between atoms: C_27  and  C_28
REMARK   10  A    between atoms: C_28  and  C_29
REMARK   11  A    between atoms: C_29  and  O_31
REMARK                            x       y       z     vdW  Elec       q    Type
REMARK                         _______ _______ _______ _____ _____    ______ ____
ROOT
ATOM      1  C   UNL     1       4.663   5.772  17.815  0.00  0.00    +0.000 A 
ATOM      2  C   UNL     1       5.708   6.499  18.402  0.00  0.00    +0.000 A 
ATOM      3  C   UNL     1       7.014   6.391  17.909  0.00  0.00    +0.000 A 
ATOM      4  C   UNL     1       7.273   5.500  16.856  0.00  0.00    +0.000 A 
ATOM      5  C   UNL     1       6.241   4.763  16.259  0.00  0.00    +0.000 A 
ATOM      6  C   UNL     1       4.936   4.907  16.747  0.00  0.00    +0.000 A 
ENDROOT
BRANCH   1   8
ATOM      7  C   UNL     1       2.808   7.273  18.133  0.00  0.00    +0.000 C 
ATOM      8  C   UNL     1       3.264   6.011  18.236  0.00  0.00    +0.000 C 
BRANCH   8   9
ATOM      9  C   UNL     1       2.385   4.926  18.749  0.00  0.00    +0.000 A 
ATOM     10  C   UNL     1       2.033   4.874  20.105  0.00  0.00    +0.000 A 
ATOM     11  C   UNL     1       1.140   3.904  20.564  0.00  0.00    +0.000 A 
ATOM     12  C   UNL     1       0.622   3.007  19.650  0.00  0.00    +0.000 A 
ATOM     13  N   UNL     1       0.935   3.010  18.339  0.00  0.00    +0.000 NA
ATOM     14  C   UNL     1       1.803   3.965  17.923  0.00  0.00    +0.000 A 
ENDBRANCH   8   9
ENDBRANCH   1   8
BRANCH   3  15
ATOM     15  C   UNL     1       8.100   7.302  18.431  0.00  0.00    +0.000 C 
BRANCH  15  16
ATOM     16  C   UNL     1       8.047   8.737  17.916  0.00  0.00    +0.000 C 
BRANCH  16  17
ATOM     17  N   UNL     1       8.840   9.651  18.754  0.00  0.00    +0.000 NA
ATOM     18  H   UNL     1       9.689   9.270  19.178  0.00  0.00    +0.000 HD
BRANCH  17  19
ATOM     19  S   UNL     1       9.142  11.179  18.097  0.00  0.00    +0.000 S 
ATOM     20  O   UNL     1      10.471  11.134  17.536  0.00  0.00    +0.000 OA
ATOM     21  O   UNL     1       7.990  11.561  17.317  0.00  0.00    +0.000 OA
BRANCH  19  22
ATOM     22  C   UNL     1       9.211  12.203  19.548  0.00  0.00    +0.000 A 
ATOM     23  C   UNL     1       9.159  13.592  19.408  0.00  0.00    +0.000 A 
ATOM     24  C   UNL     1       9.200  14.399  20.546  0.00  0.00    +0.000 A 
ATOM     25  C   UNL     1       9.281  13.813  21.811  0.00  0.00    +0.000 A 
ATOM     26 CL   UNL     1       9.325  14.810  23.212  0.00  0.00    +0.000 Cl
ATOM     27  C   UNL     1       9.324  12.425  21.949  0.00  0.00    +0.000 A 
ATOM     28  C   UNL     1       9.289  11.612  20.813  0.00  0.00    +0.000 A 
ENDBRANCH  19  22
ENDBRANCH  17  19
ENDBRANCH  16  17
ENDBRANCH  15  16
ENDBRANCH   3  15
BRANCH   5  29
ATOM     29  C   UNL     1       6.550   3.855  15.088  0.00  0.00    +0.000 C 
BRANCH  29  30
ATOM     30  C   UNL     1       6.080   4.432  13.752  0.00  0.00    +0.000 C 
BRANCH  30  31
ATOM     31  C   UNL     1       7.252   4.758  12.857  0.00  0.00    +0.000 C 
ATOM     32  O   UNL     1       8.089   5.620  13.077  0.00  0.00    +0.000 OA
BRANCH  31  33
ATOM     33  O   UNL     1       7.287   3.983  11.751  0.00  0.00    +0.000 OA
ATOM     34  H   UNL     1       8.059   3.387  11.708  0.00  0.00    +0.000 HD
ENDBRANCH  31  33
ENDBRANCH  30  31
ENDBRANCH  29  30
ENDBRANCH   5  29
TORSDOF 11
ENDMDL
