MODEL 1
REMARK VINA RESULT:      -7.4      0.000      0.000
REMARK  Name = 
REMARK  15 active torsions:
REMARK  status: ('A' for Active; 'I' for Inactive)
REMARK    1  A    between atoms: C_1  and  O_2
REMARK    2  A    between atoms: O_2  and  C_3
REMARK    3  A    between atoms: C_5  and  C_6
REMARK    4  A    between atoms: C_6  and  O_8
REMARK    5  A    between atoms: O_8  and  C_9
REMARK    6  A    between atoms: C_11  and  C_12
REMARK    7  A    between atoms: C_11  and  O_13
REMARK    8  A    between atoms: C_15  and  O_16
REMARK    9  A    between atoms: O_16  and  C_17
REMARK   10  A    between atoms: C_19  and  C_20
REMARK   11  A    between atoms: C_20  and  O_21
REMARK   12  A    between atoms: C_22  and  O_23
REMARK   13  A    between atoms: C_24  and  O_25
REMARK   14  A    between atoms: C_26  and  O_27
REMARK   15  A    between atoms: C_34  and  O_35
REMARK                            x       y       z     vdW  Elec       q    Type
REMARK                         _______ _______ _______ _____ _____    ______ ____
ROOT
ATOM      1  C   UNL     1       0.099  11.962  20.461  0.00  0.00    +0.000 C 
ATOM      2  C   UNL     1       0.857  11.872  19.144  0.00  0.00    +0.000 C 
ATOM      3  C   UNL     1       0.738  10.418  18.645  0.00  0.00    +0.000 C 
ATOM      4  C   UNL     1       1.984  10.071  17.837  0.00  0.00    +0.000 C 
ATOM      5  C   UNL     1       0.409   9.540  19.871  0.00  0.00    +0.000 C 
ATOM      6  C   UNL     1       1.563   8.608  20.373  0.00  0.00    +0.000 C 
ATOM      7  O   UNL     1       1.360   8.145  21.715  0.00  0.00    +0.000 OA
ATOM      8  C   UNL     1       0.889   9.080  22.593  0.00  0.00    +0.000 C 
ATOM      9  C   UNL     1       0.205  10.178  22.299  0.00  0.00    +0.000 C 
ATOM     10  C   UNL     1      -0.225  10.514  20.899  0.00  0.00    +0.000 C 
ENDROOT
BRANCH   3  11
ATOM     11  O   UNL     1      -0.352  10.321  17.717  0.00  0.00    +0.000 OA
ATOM     12  H   UNL     1      -0.071   9.792  16.942  0.00  0.00    +0.000 HD
ENDBRANCH   3  11
BRANCH   1  13
ATOM     13  O   UNL     1      -1.022  12.911  20.418  0.00  0.00    +0.000 OA
BRANCH  13  14
ATOM     14  C   UNL     1      -2.305  12.510  20.189  0.00  0.00    +0.000 C 
ATOM     15  O   UNL     1      -2.695  12.025  19.138  0.00  0.00    +0.000 OA
BRANCH  14  18
ATOM     16  C   UNL     1      -5.463  13.046  22.291  0.00  0.00    +0.000 A 
ATOM     17  C   UNL     1      -4.577  12.955  21.196  0.00  0.00    +0.000 A 
ATOM     18  C   UNL     1      -3.200  12.717  21.383  0.00  0.00    +0.000 A 
ATOM     19  C   UNL     1      -2.715  12.637  22.695  0.00  0.00    +0.000 A 
ATOM     20  C   UNL     1      -3.601  12.653  23.781  0.00  0.00    +0.000 A 
ATOM     21  C   UNL     1      -4.965  12.806  23.574  0.00  0.00    +0.000 A 
BRANCH  16  23
ATOM     22  C   UNL     1      -7.542  12.228  21.473  0.00  0.00    +0.000 C 
ATOM     23  O   UNL     1      -6.769  13.325  21.971  0.00  0.00    +0.000 OA
ENDBRANCH  16  23
BRANCH  21  24
ATOM     24  O   UNL     1      -5.815  12.689  24.648  0.00  0.00    +0.000 OA
ATOM     25  H   UNL     1      -6.664  13.109  24.416  0.00  0.00    +0.000 HD
ENDBRANCH  21  24
ENDBRANCH  14  18
ENDBRANCH  13  14
ENDBRANCH   1  13
BRANCH   6  26
ATOM     26  O   UNL     1       1.584   7.487  19.460  0.00  0.00    +0.000 OA
BRANCH  26  27
ATOM     27  C   UNL     1       2.780   6.685  19.360  0.00  0.00    +0.000 C 
ATOM     28  O   UNL     1       3.265   6.650  18.014  0.00  0.00    +0.000 OA
ATOM     29  C   UNL     1       4.328   5.691  17.824  0.00  0.00    +0.000 C 
ATOM     30  C   UNL     1       3.789   4.266  17.980  0.00  0.00    +0.000 C 
ATOM     31  C   UNL     1       3.216   4.083  19.384  0.00  0.00    +0.000 C 
ATOM     32  C   UNL     1       2.364   5.263  19.880  0.00  0.00    +0.000 C 
BRANCH  30  33
ATOM     33  O   UNL     1       4.827   3.298  17.749  0.00  0.00    +0.000 OA
ATOM     34  H   UNL     1       5.285   3.504  16.914  0.00  0.00    +0.000 HD
ENDBRANCH  30  33
BRANCH  31  35
ATOM     35  O   UNL     1       2.464   2.848  19.434  0.00  0.00    +0.000 OA
ATOM     36  H   UNL     1       1.554   3.015  19.127  0.00  0.00    +0.000 HD
ENDBRANCH  31  35
BRANCH  32  37
ATOM     37  O   UNL     1       2.437   5.243  21.324  0.00  0.00    +0.000 OA
ATOM     38  H   UNL     1       2.450   4.307  21.591  0.00  0.00    +0.000 HD
ENDBRANCH  32  37
BRANCH  29  39
ATOM     39  C   UNL     1       4.950   5.883  16.430  0.00  0.00    +0.000 C 
BRANCH  39  40
ATOM     40  O   UNL     1       6.318   5.482  16.394  0.00  0.00    +0.000 OA
ATOM     41  H   UNL     1       6.746   5.900  17.160  0.00  0.00    +0.000 HD
ENDBRANCH  39  40
ENDBRANCH  29  39
ENDBRANCH  26  27
ENDBRANCH   6  26
TORSDOF 13
ENDMDL
MODEL 2
REMARK VINA RESULT:      -7.3      1.334      1.519
REMARK  Name = 
REMARK  15 active torsions:
REMARK  status: ('A' for Active; 'I' for Inactive)
REMARK    1  A    between atoms: C_1  and  O_2
REMARK    2  A    between atoms: O_2  and  C_3
REMARK    3  A    between atoms: C_5  and  C_6
REMARK    4  A    between atoms: C_6  and  O_8
REMARK    5  A    between atoms: O_8  and  C_9
REMARK    6  A    between atoms: C_11  and  C_12
REMARK    7  A    between atoms: C_11  and  O_13
REMARK    8  A    between atoms: C_15  and  O_16
REMARK    9  A    between atoms: O_16  and  C_17
REMARK   10  A    between atoms: C_19  and  C_20
REMARK   11  A    between atoms: C_20  and  O_21
REMARK   12  A    between atoms: C_22  and  O_23
REMARK   13  A    between atoms: C_24  and  O_25
REMARK   14  A    between atoms: C_26  and  O_27
REMARK   15  A    between atoms: C_34  and  O_35
REMARK                            x       y       z     vdW  Elec       q    Type
REMARK                         _______ _______ _______ _____ _____    ______ ____
ROOT
ATOM      1  C   UNL     1       0.162  11.771  19.994  0.00  0.00    +0.000 C 
ATOM      2  C   UNL     1       1.023  11.528  18.763  0.00  0.00    +0.000 C 
ATOM      3  C   UNL     1       0.923  10.029  18.421  0.00  0.00    +0.000 C 
ATOM      4  C   UNL     1       2.226   9.585  17.762  0.00  0.00    +0.000 C 
ATOM      5  C   UNL     1       0.483   9.296  19.706  0.00  0.00    +0.000 C 
ATOM      6  C   UNL     1       1.578   8.419  20.402  0.00  0.00    +0.000 C 
ATOM      7  O   UNL     1       1.260   8.111  21.766  0.00  0.00    +0.000 OA
ATOM      8  C   UNL     1       0.733   9.141  22.492  0.00  0.00    +0.000 C 
ATOM      9  C   UNL     1       0.091  10.203  22.023  0.00  0.00    +0.000 C 
ATOM     10  C   UNL     1      -0.218  10.382  20.563  0.00  0.00    +0.000 C 
ENDROOT
BRANCH   3  11
ATOM     11  O   UNL     1      -0.089   9.834  17.423  0.00  0.00    +0.000 OA
ATOM     12  H   UNL     1      -0.899  10.320  17.684  0.00  0.00    +0.000 HD
ENDBRANCH   3  11
BRANCH   1  13
ATOM     13  O   UNL     1      -0.938  12.715  19.754  0.00  0.00    +0.000 OA
BRANCH  13  14
ATOM     14  C   UNL     1      -2.083  12.348  19.113  0.00  0.00    +0.000 C 
ATOM     15  O   UNL     1      -2.124  11.937  17.962  0.00  0.00    +0.000 OA
BRANCH  14  18
ATOM     16  C   UNL     1      -5.739  12.237  20.256  0.00  0.00    +0.000 A 
ATOM     17  C   UNL     1      -4.583  12.218  19.445  0.00  0.00    +0.000 A 
ATOM     18  C   UNL     1      -3.306  12.491  19.980  0.00  0.00    +0.000 A 
ATOM     19  C   UNL     1      -3.219  12.847  21.332  0.00  0.00    +0.000 A 
ATOM     20  C   UNL     1      -4.351  12.794  22.154  0.00  0.00    +0.000 A 
ATOM     21  C   UNL     1      -5.588  12.445  21.629  0.00  0.00    +0.000 A 
BRANCH  16  23
ATOM     22  C   UNL     1      -7.492  13.115  18.909  0.00  0.00    +0.000 C 
ATOM     23  O   UNL     1      -6.922  11.999  19.600  0.00  0.00    +0.000 OA
ENDBRANCH  16  23
BRANCH  21  24
ATOM     24  O   UNL     1      -6.649  12.279  22.486  0.00  0.00    +0.000 OA
ATOM     25  H   UNL     1      -6.451  11.533  23.081  0.00  0.00    +0.000 HD
ENDBRANCH  21  24
ENDBRANCH  14  18
ENDBRANCH  13  14
ENDBRANCH   1  13
BRANCH   6  26
ATOM     26  O   UNL     1       1.657   7.203  19.624  0.00  0.00    +0.000 OA
BRANCH  26  27
ATOM     27  C   UNL     1       2.593   6.177  20.017  0.00  0.00    +0.000 C 
ATOM     28  O   UNL     1       3.846   6.339  19.345  0.00  0.00    +0.000 OA
ATOM     29  C   UNL     1       4.737   5.219  19.538  0.00  0.00    +0.000 C 
ATOM     30  C   UNL     1       4.185   3.975  18.837  0.00  0.00    +0.000 C 
ATOM     31  C   UNL     1       2.820   3.617  19.423  0.00  0.00    +0.000 C 
ATOM     32  C   UNL     1       1.891   4.820  19.651  0.00  0.00    +0.000 C 
BRANCH  30  33
ATOM     33  O   UNL     1       5.083   2.863  18.983  0.00  0.00    +0.000 OA
ATOM     34  H   UNL     1       5.224   2.441  18.116  0.00  0.00    +0.000 HD
ENDBRANCH  30  33
BRANCH  31  35
ATOM     35  O   UNL     1       2.184   2.629  18.579  0.00  0.00    +0.000 OA
ATOM     36  H   UNL     1       1.231   2.601  18.781  0.00  0.00    +0.000 HD
ENDBRANCH  31  35
BRANCH  32  37
ATOM     37  O   UNL     1       0.990   4.446  20.718  0.00  0.00    +0.000 OA
ATOM     38  H   UNL     1       0.099   4.405  20.331  0.00  0.00    +0.000 HD
ENDBRANCH  32  37
BRANCH  29  39
ATOM     39  C   UNL     1       6.131   5.572  18.992  0.00  0.00    +0.000 C 
BRANCH  39  40
ATOM     40  O   UNL     1       7.172   5.174  19.883  0.00  0.00    +0.000 OA
ATOM     41  H   UNL     1       7.997   5.537  19.518  0.00  0.00    +0.000 HD
ENDBRANCH  39  40
ENDBRANCH  29  39
ENDBRANCH  26  27
ENDBRANCH   6  26
TORSDOF 13
ENDMDL
MODEL 3
REMARK VINA RESULT:      -7.3      2.084     10.597
REMARK  Name = 
REMARK  15 active torsions:
REMARK  status: ('A' for Active; 'I' for Inactive)
REMARK    1  A    between atoms: C_1  and  O_2
REMARK    2  A    between atoms: O_2  and  C_3
REMARK    3  A    between atoms: C_5  and  C_6
REMARK    4  A    between atoms: C_6  and  O_8
REMARK    5  A    between atoms: O_8  and  C_9
REMARK    6  A    between atoms: C_11  and  C_12
REMARK    7  A    between atoms: C_11  and  O_13
REMARK    8  A    between atoms: C_15  and  O_16
REMARK    9  A    between atoms: O_16  and  C_17
REMARK   10  A    between atoms: C_19  and  C_20
REMARK   11  A    between atoms: C_20  and  O_21
REMARK   12  A    between atoms: C_22  and  O_23
REMARK   13  A    between atoms: C_24  and  O_25
REMARK   14  A    between atoms: C_26  and  O_27
REMARK   15  A    between atoms: C_34  and  O_35
REMARK                            x       y       z     vdW  Elec       q    Type
REMARK                         _______ _______ _______ _____ _____    ______ ____
ROOT
ATOM      1  C   UNL     1       1.566   9.005  20.023  0.00  0.00    +0.000 C 
ATOM      2  C   UNL     1       1.405   8.600  21.481  0.00  0.00    +0.000 C 
ATOM      3  C   UNL     1       0.029   9.113  21.951  0.00  0.00    +0.000 C 
ATOM      4  C   UNL     1       0.101   9.419  23.444  0.00  0.00    +0.000 C 
ATOM      5  C   UNL     1      -0.379  10.259  21.001  0.00  0.00    +0.000 C 
ATOM      6  C   UNL     1      -0.336  11.700  21.611  0.00  0.00    +0.000 C 
ATOM      7  O   UNL     1      -0.315  12.727  20.611  0.00  0.00    +0.000 OA
ATOM      8  C   UNL     1       0.493  12.482  19.536  0.00  0.00    +0.000 C 
ATOM      9  C   UNL     1       0.895  11.298  19.093  0.00  0.00    +0.000 C 
ATOM     10  C   UNL     1       0.430  10.005  19.702  0.00  0.00    +0.000 C 
ENDROOT
BRANCH   3  11
ATOM     11  O   UNL     1      -0.938   8.061  21.829  0.00  0.00    +0.000 OA
ATOM     12  H   UNL     1      -1.372   7.918  22.695  0.00  0.00    +0.000 HD
ENDBRANCH   3  11
BRANCH   1  13
ATOM     13  O   UNL     1       1.719   7.858  19.118  0.00  0.00    +0.000 OA
BRANCH  13  14
ATOM     14  C   UNL     1       2.464   7.926  17.979  0.00  0.00    +0.000 C 
ATOM     15  O   UNL     1       2.322   8.779  17.115  0.00  0.00    +0.000 OA
BRANCH  14  18
ATOM     16  C   UNL     1       5.814   6.159  17.393  0.00  0.00    +0.000 A 
ATOM     17  C   UNL     1       4.784   7.125  17.385  0.00  0.00    +0.000 A 
ATOM     18  C   UNL     1       3.502   6.837  17.898  0.00  0.00    +0.000 A 
ATOM     19  C   UNL     1       3.252   5.539  18.361  0.00  0.00    +0.000 A 
ATOM     20  C   UNL     1       4.290   4.601  18.439  0.00  0.00    +0.000 A 
ATOM     21  C   UNL     1       5.568   4.928  18.005  0.00  0.00    +0.000 A 
BRANCH  16  23
ATOM     22  C   UNL     1       7.696   7.609  17.493  0.00  0.00    +0.000 C 
ATOM     23  O   UNL     1       6.998   6.556  16.822  0.00  0.00    +0.000 OA
ENDBRANCH  16  23
BRANCH  21  24
ATOM     24  O   UNL     1       6.588   4.030  18.214  0.00  0.00    +0.000 OA
ATOM     25  H   UNL     1       6.256   3.316  18.789  0.00  0.00    +0.000 HD
ENDBRANCH  21  24
ENDBRANCH  14  18
ENDBRANCH  13  14
ENDBRANCH   1  13
BRANCH   6  26
ATOM     26  O   UNL     1      -1.531  11.818  22.418  0.00  0.00    +0.000 OA
BRANCH  26  27
ATOM     27  C   UNL     1      -2.087  13.127  22.660  0.00  0.00    +0.000 C 
ATOM     28  O   UNL     1      -1.416  13.780  23.742  0.00  0.00    +0.000 OA
ATOM     29  C   UNL     1      -2.074  14.995  24.163  0.00  0.00    +0.000 C 
ATOM     30  C   UNL     1      -3.424  14.670  24.808  0.00  0.00    +0.000 C 
ATOM     31  C   UNL     1      -4.319  13.957  23.796  0.00  0.00    +0.000 C 
ATOM     32  C   UNL     1      -3.607  12.875  22.969  0.00  0.00    +0.000 C 
BRANCH  30  33
ATOM     33  O   UNL     1      -4.071  15.866  25.272  0.00  0.00    +0.000 OA
ATOM     34  H   UNL     1      -3.970  16.571  24.606  0.00  0.00    +0.000 HD
ENDBRANCH  30  33
BRANCH  31  35
ATOM     35  O   UNL     1      -5.468  13.407  24.483  0.00  0.00    +0.000 OA
ATOM     36  H   UNL     1      -5.467  13.716  25.407  0.00  0.00    +0.000 HD
ENDBRANCH  31  35
BRANCH  32  37
ATOM     37  O   UNL     1      -4.334  12.766  21.724  0.00  0.00    +0.000 OA
ATOM     38  H   UNL     1      -4.082  11.914  21.326  0.00  0.00    +0.000 HD
ENDBRANCH  32  37
BRANCH  29  39
ATOM     39  C   UNL     1      -1.171  15.752  25.152  0.00  0.00    +0.000 C 
BRANCH  39  40
ATOM     40  O   UNL     1      -1.465  15.421  26.508  0.00  0.00    +0.000 OA
ATOM     41  H   UNL     1      -0.630  15.120  26.903  0.00  0.00    +0.000 HD
ENDBRANCH  39  40
ENDBRANCH  29  39
ENDBRANCH  26  27
ENDBRANCH   6  26
TORSDOF 13
ENDMDL
MODEL 4
REMARK VINA RESULT:      -7.3      1.658     10.039
REMARK  Name = 
REMARK  15 active torsions:
REMARK  status: ('A' for Active; 'I' for Inactive)
REMARK    1  A    between atoms: C_1  and  O_2
REMARK    2  A    between atoms: O_2  and  C_3
REMARK    3  A    between atoms: C_5  and  C_6
REMARK    4  A    between atoms: C_6  and  O_8
REMARK    5  A    between atoms: O_8  and  C_9
REMARK    6  A    between atoms: C_11  and  C_12
REMARK    7  A    between atoms: C_11  and  O_13
REMARK    8  A    between atoms: C_15  and  O_16
REMARK    9  A    between atoms: O_16  and  C_17
REMARK   10  A    between atoms: C_19  and  C_20
REMARK   11  A    between atoms: C_20  and  O_21
REMARK   12  A    between atoms: C_22  and  O_23
REMARK   13  A    between atoms: C_24  and  O_25
REMARK   14  A    between atoms: C_26  and  O_27
REMARK   15  A    between atoms: C_34  and  O_35
REMARK                            x       y       z     vdW  Elec       q    Type
REMARK                         _______ _______ _______ _____ _____    ______ ____
ROOT
ATOM      1  C   UNL     1       0.586  10.278  19.001  0.00  0.00    +0.000 C 
ATOM      2  C   UNL     1       1.232  11.406  19.794  0.00  0.00    +0.000 C 
ATOM      3  C   UNL     1       0.191  11.900  20.818  0.00  0.00    +0.000 C 
ATOM      4  C   UNL     1       0.432  13.383  21.089  0.00  0.00    +0.000 C 
ATOM      5  C   UNL     1      -1.199  11.481  20.295  0.00  0.00    +0.000 C 
ATOM      6  C   UNL     1      -2.105  12.641  19.760  0.00  0.00    +0.000 C 
ATOM      7  O   UNL     1      -3.174  12.172  18.927  0.00  0.00    +0.000 OA
ATOM      8  C   UNL     1      -2.840  11.184  18.044  0.00  0.00    +0.000 C 
ATOM      9  C   UNL     1      -1.830  10.330  18.146  0.00  0.00    +0.000 C 
ATOM     10  C   UNL     1      -0.923  10.288  19.343  0.00  0.00    +0.000 C 
ENDROOT
BRANCH   3  11
ATOM     11  O   UNL     1       0.415  11.247  22.076  0.00  0.00    +0.000 OA
ATOM     12  H   UNL     1       1.202  11.638  22.508  0.00  0.00    +0.000 HD
ENDBRANCH   3  11
BRANCH   1  13
ATOM     13  O   UNL     1       1.292   8.996  19.141  0.00  0.00    +0.000 OA
BRANCH  13  14
ATOM     14  C   UNL     1       2.114   8.510  18.170  0.00  0.00    +0.000 C 
ATOM     15  O   UNL     1       2.311   9.063  17.097  0.00  0.00    +0.000 OA
BRANCH  14  18
ATOM     16  C   UNL     1       2.818   5.221  20.004  0.00  0.00    +0.000 A 
ATOM     17  C   UNL     1       2.294   6.489  19.673  0.00  0.00    +0.000 A 
ATOM     18  C   UNL     1       2.774   7.214  18.561  0.00  0.00    +0.000 A 
ATOM     19  C   UNL     1       3.835   6.670  17.826  0.00  0.00    +0.000 A 
ATOM     20  C   UNL     1       4.305   5.381  18.106  0.00  0.00    +0.000 A 
ATOM     21  C   UNL     1       3.766   4.647  19.154  0.00  0.00    +0.000 A 
BRANCH  16  23
ATOM     22  C   UNL     1       1.305   3.633  20.925  0.00  0.00    +0.000 C 
ATOM     23  O   UNL     1       2.294   4.645  21.136  0.00  0.00    +0.000 OA
ENDBRANCH  16  23
BRANCH  21  24
ATOM     24  O   UNL     1       4.161   3.341  19.321  0.00  0.00    +0.000 OA
ATOM     25  H   UNL     1       4.000   2.862  18.487  0.00  0.00    +0.000 HD
ENDBRANCH  21  24
ENDBRANCH  14  18
ENDBRANCH  13  14
ENDBRANCH   1  13
BRANCH   6  26
ATOM     26  O   UNL     1      -2.641  13.292  20.934  0.00  0.00    +0.000 OA
BRANCH  26  27
ATOM     27  C   UNL     1      -3.725  12.666  21.652  0.00  0.00    +0.000 C 
ATOM     28  O   UNL     1      -4.964  13.335  21.399  0.00  0.00    +0.000 OA
ATOM     29  C   UNL     1      -6.033  12.884  22.259  0.00  0.00    +0.000 C 
ATOM     30  C   UNL     1      -5.762  13.303  23.706  0.00  0.00    +0.000 C 
ATOM     31  C   UNL     1      -4.455  12.677  24.187  0.00  0.00    +0.000 C 
ATOM     32  C   UNL     1      -3.308  12.736  23.165  0.00  0.00    +0.000 C 
BRANCH  30  33
ATOM     33  O   UNL     1      -6.840  12.899  24.567  0.00  0.00    +0.000 OA
ATOM     34  H   UNL     1      -6.505  12.281  25.242  0.00  0.00    +0.000 HD
ENDBRANCH  30  33
BRANCH  31  35
ATOM     35  O   UNL     1      -4.064  13.294  25.437  0.00  0.00    +0.000 OA
ATOM     36  H   UNL     1      -3.280  12.833  25.789  0.00  0.00    +0.000 HD
ENDBRANCH  31  35
BRANCH  32  37
ATOM     37  O   UNL     1      -2.430  11.629  23.470  0.00  0.00    +0.000 OA
ATOM     38  H   UNL     1      -2.422  11.054  22.685  0.00  0.00    +0.000 HD
ENDBRANCH  32  37
BRANCH  29  39
ATOM     39  C   UNL     1      -7.368  13.469  21.768  0.00  0.00    +0.000 C 
BRANCH  39  40
ATOM     40  O   UNL     1      -7.688  14.697  22.420  0.00  0.00    +0.000 OA
ATOM     41  H   UNL     1      -7.863  14.475  23.350  0.00  0.00    +0.000 HD
ENDBRANCH  39  40
ENDBRANCH  29  39
ENDBRANCH  26  27
ENDBRANCH   6  26
TORSDOF 13
ENDMDL
MODEL 5
REMARK VINA RESULT:      -7.3      1.648      2.728
REMARK  Name = 
REMARK  15 active torsions:
REMARK  status: ('A' for Active; 'I' for Inactive)
REMARK    1  A    between atoms: C_1  and  O_2
REMARK    2  A    between atoms: O_2  and  C_3
REMARK    3  A    between atoms: C_5  and  C_6
REMARK    4  A    between atoms: C_6  and  O_8
REMARK    5  A    between atoms: O_8  and  C_9
REMARK    6  A    between atoms: C_11  and  C_12
REMARK    7  A    between atoms: C_11  and  O_13
REMARK    8  A    between atoms: C_15  and  O_16
REMARK    9  A    between atoms: O_16  and  C_17
REMARK   10  A    between atoms: C_19  and  C_20
REMARK   11  A    between atoms: C_20  and  O_21
REMARK   12  A    between atoms: C_22  and  O_23
REMARK   13  A    between atoms: C_24  and  O_25
REMARK   14  A    between atoms: C_26  and  O_27
REMARK   15  A    between atoms: C_34  and  O_35
REMARK                            x       y       z     vdW  Elec       q    Type
REMARK                         _______ _______ _______ _____ _____    ______ ____
ROOT
ATOM      1  C   UNL     1       0.174  11.950  20.248  0.00  0.00    +0.000 C 
ATOM      2  C   UNL     1       0.996  11.793  18.977  0.00  0.00    +0.000 C 
ATOM      3  C   UNL     1       0.883  10.320  18.536  0.00  0.00    +0.000 C 
ATOM      4  C   UNL     1       2.164   9.924  17.808  0.00  0.00    +0.000 C 
ATOM      5  C   UNL     1       0.482   9.501  19.782  0.00  0.00    +0.000 C 
ATOM      6  C   UNL     1       1.597   8.580  20.381  0.00  0.00    +0.000 C 
ATOM      7  O   UNL     1       1.322   8.179  21.730  0.00  0.00    +0.000 OA
ATOM      8  C   UNL     1       0.819   9.156  22.542  0.00  0.00    +0.000 C 
ATOM      9  C   UNL     1       0.165  10.248  22.166  0.00  0.00    +0.000 C 
ATOM     10  C   UNL     1      -0.189  10.526  20.732  0.00  0.00    +0.000 C 
ENDROOT
BRANCH   3  11
ATOM     11  O   UNL     1      -0.160  10.194  17.560  0.00  0.00    +0.000 OA
ATOM     12  H   UNL     1      -1.026  10.353  17.989  0.00  0.00    +0.000 HD
ENDBRANCH   3  11
BRANCH   1  13
ATOM     13  O   UNL     1      -0.931  12.908  20.107  0.00  0.00    +0.000 OA
BRANCH  13  14
ATOM     14  C   UNL     1      -2.110  12.760  20.775  0.00  0.00    +0.000 C 
ATOM     15  O   UNL     1      -2.230  12.865  21.987  0.00  0.00    +0.000 OA
BRANCH  14  18
ATOM     16  C   UNL     1      -4.172  11.212  17.941  0.00  0.00    +0.000 A 
ATOM     17  C   UNL     1      -3.088  11.595  18.759  0.00  0.00    +0.000 A 
ATOM     18  C   UNL     1      -3.266  12.465  19.855  0.00  0.00    +0.000 A 
ATOM     19  C   UNL     1      -4.543  12.996  20.077  0.00  0.00    +0.000 A 
ATOM     20  C   UNL     1      -5.634  12.561  19.314  0.00  0.00    +0.000 A 
ATOM     21  C   UNL     1      -5.455  11.641  18.289  0.00  0.00    +0.000 A 
BRANCH  16  23
ATOM     22  C   UNL     1      -3.501  11.062  15.664  0.00  0.00    +0.000 C 
ATOM     23  O   UNL     1      -3.852  10.398  16.882  0.00  0.00    +0.000 OA
ENDBRANCH  16  23
BRANCH  21  24
ATOM     24  O   UNL     1      -6.563  11.141  17.647  0.00  0.00    +0.000 OA
ATOM     25  H   UNL     1      -6.364  10.233  17.353  0.00  0.00    +0.000 HD
ENDBRANCH  21  24
ENDBRANCH  14  18
ENDBRANCH  13  14
ENDBRANCH   1  13
BRANCH   6  26
ATOM     26  O   UNL     1       1.650   7.419  19.520  0.00  0.00    +0.000 OA
BRANCH  26  27
ATOM     27  C   UNL     1       2.834   6.594  19.526  0.00  0.00    +0.000 C 
ATOM     28  O   UNL     1       3.427   6.536  18.224  0.00  0.00    +0.000 OA
ATOM     29  C   UNL     1       4.482   5.554  18.130  0.00  0.00    +0.000 C 
ATOM     30  C   UNL     1       3.905   4.142  18.253  0.00  0.00    +0.000 C 
ATOM     31  C   UNL     1       3.215   3.985  19.607  0.00  0.00    +0.000 C 
ATOM     32  C   UNL     1       2.348   5.185  20.022  0.00  0.00    +0.000 C 
BRANCH  30  33
ATOM     33  O   UNL     1       4.938   3.153  18.117  0.00  0.00    +0.000 OA
ATOM     34  H   UNL     1       4.971   2.603  18.920  0.00  0.00    +0.000 HD
ENDBRANCH  30  33
BRANCH  31  35
ATOM     35  O   UNL     1       2.437   2.764  19.606  0.00  0.00    +0.000 OA
ATOM     36  H   UNL     1       1.493   2.987  19.702  0.00  0.00    +0.000 HD
ENDBRANCH  31  35
BRANCH  32  37
ATOM     37  O   UNL     1       2.304   5.178  21.467  0.00  0.00    +0.000 OA
ATOM     38  H   UNL     1       1.367   5.100  21.718  0.00  0.00    +0.000 HD
ENDBRANCH  32  37
BRANCH  29  39
ATOM     39  C   UNL     1       5.219   5.721  16.790  0.00  0.00    +0.000 C 
BRANCH  39  40
ATOM     40  O   UNL     1       4.920   4.665  15.878  0.00  0.00    +0.000 OA
ATOM     41  H   UNL     1       4.161   4.187  16.253  0.00  0.00    +0.000 HD
ENDBRANCH  39  40
ENDBRANCH  29  39
ENDBRANCH  26  27
ENDBRANCH   6  26
TORSDOF 13
ENDMDL
MODEL 6
REMARK VINA RESULT:      -7.2      1.984     10.366
REMARK  Name = 
REMARK  15 active torsions:
REMARK  status: ('A' for Active; 'I' for Inactive)
REMARK    1  A    between atoms: C_1  and  O_2
REMARK    2  A    between atoms: O_2  and  C_3
REMARK    3  A    between atoms: C_5  and  C_6
REMARK    4  A    between atoms: C_6  and  O_8
REMARK    5  A    between atoms: O_8  and  C_9
REMARK    6  A    between atoms: C_11  and  C_12
REMARK    7  A    between atoms: C_11  and  O_13
REMARK    8  A    between atoms: C_15  and  O_16
REMARK    9  A    between atoms: O_16  and  C_17
REMARK   10  A    between atoms: C_19  and  C_20
REMARK   11  A    between atoms: C_20  and  O_21
REMARK   12  A    between atoms: C_22  and  O_23
REMARK   13  A    between atoms: C_24  and  O_25
REMARK   14  A    between atoms: C_26  and  O_27
REMARK   15  A    between atoms: C_34  and  O_35
REMARK                            x       y       z     vdW  Elec       q    Type
REMARK                         _______ _______ _______ _____ _____    ______ ____
ROOT
ATOM      1  C   UNL     1       1.445   8.996  19.878  0.00  0.00    +0.000 C 
ATOM      2  C   UNL     1       1.369   8.610  21.349  0.00  0.00    +0.000 C 
ATOM      3  C   UNL     1       0.023   9.128  21.891  0.00  0.00    +0.000 C 
ATOM      4  C   UNL     1       0.181   9.455  23.373  0.00  0.00    +0.000 C 
ATOM      5  C   UNL     1      -0.442  10.261  20.951  0.00  0.00    +0.000 C 
ATOM      6  C   UNL     1      -0.367  11.710  21.538  0.00  0.00    +0.000 C 
ATOM      7  O   UNL     1      -0.406  12.724  20.524  0.00  0.00    +0.000 OA
ATOM      8  C   UNL     1       0.338  12.465  19.408  0.00  0.00    +0.000 C 
ATOM      9  C   UNL     1       0.715  11.276  18.957  0.00  0.00    +0.000 C 
ATOM     10  C   UNL     1       0.290   9.990  19.610  0.00  0.00    +0.000 C 
ENDROOT
BRANCH   3  11
ATOM     11  O   UNL     1      -0.948   8.074  21.840  0.00  0.00    +0.000 OA
ATOM     12  H   UNL     1      -0.758   7.495  21.072  0.00  0.00    +0.000 HD
ENDBRANCH   3  11
BRANCH   1  13
ATOM     13  O   UNL     1       1.546   7.837  18.981  0.00  0.00    +0.000 OA
BRANCH  13  14
ATOM     14  C   UNL     1       2.507   7.745  18.019  0.00  0.00    +0.000 C 
ATOM     15  O   UNL     1       2.824   8.663  17.277  0.00  0.00    +0.000 OA
BRANCH  14  18
ATOM     16  C   UNL     1       3.068   3.988  18.519  0.00  0.00    +0.000 A 
ATOM     17  C   UNL     1       2.549   5.296  18.632  0.00  0.00    +0.000 A 
ATOM     18  C   UNL     1       3.153   6.386  17.970  0.00  0.00    +0.000 A 
ATOM     19  C   UNL     1       4.327   6.149  17.244  0.00  0.00    +0.000 A 
ATOM     20  C   UNL     1       4.802   4.843  17.069  0.00  0.00    +0.000 A 
ATOM     21  C   UNL     1       4.149   3.771  17.661  0.00  0.00    +0.000 A 
BRANCH  16  23
ATOM     22  C   UNL     1       1.178   2.555  18.702  0.00  0.00    +0.000 C 
ATOM     23  O   UNL     1       2.412   3.029  19.251  0.00  0.00    +0.000 OA
ENDBRANCH  16  23
BRANCH  21  24
ATOM     24  O   UNL     1       4.566   2.495  17.365  0.00  0.00    +0.000 OA
ATOM     25  H   UNL     1       5.525   2.439  17.530  0.00  0.00    +0.000 HD
ENDBRANCH  21  24
ENDBRANCH  14  18
ENDBRANCH  13  14
ENDBRANCH   1  13
BRANCH   6  26
ATOM     26  O   UNL     1      -1.512  11.838  22.411  0.00  0.00    +0.000 OA
BRANCH  26  27
ATOM     27  C   UNL     1      -2.065  13.149  22.657  0.00  0.00    +0.000 C 
ATOM     28  O   UNL     1      -1.397  13.793  23.746  0.00  0.00    +0.000 OA
ATOM     29  C   UNL     1      -2.052  15.008  24.169  0.00  0.00    +0.000 C 
ATOM     30  C   UNL     1      -3.407  14.686  24.804  0.00  0.00    +0.000 C 
ATOM     31  C   UNL     1      -4.300  13.982  23.784  0.00  0.00    +0.000 C 
ATOM     32  C   UNL     1      -3.587  12.901  22.955  0.00  0.00    +0.000 C 
BRANCH  30  33
ATOM     33  O   UNL     1      -4.052  15.883  25.270  0.00  0.00    +0.000 OA
ATOM     34  H   UNL     1      -3.440  16.382  25.841  0.00  0.00    +0.000 HD
ENDBRANCH  30  33
BRANCH  31  35
ATOM     35  O   UNL     1      -5.455  13.434  24.461  0.00  0.00    +0.000 OA
ATOM     36  H   UNL     1      -5.278  13.397  25.419  0.00  0.00    +0.000 HD
ENDBRANCH  31  35
BRANCH  32  37
ATOM     37  O   UNL     1      -4.308  12.802  21.705  0.00  0.00    +0.000 OA
ATOM     38  H   UNL     1      -3.639  12.760  20.999  0.00  0.00    +0.000 HD
ENDBRANCH  32  37
BRANCH  29  39
ATOM     39  C   UNL     1      -1.152  15.756  25.167  0.00  0.00    +0.000 C 
BRANCH  39  40
ATOM     40  O   UNL     1      -1.462  15.427  26.520  0.00  0.00    +0.000 OA
ATOM     41  H   UNL     1      -1.220  16.203  27.053  0.00  0.00    +0.000 HD
ENDBRANCH  39  40
ENDBRANCH  29  39
ENDBRANCH  26  27
ENDBRANCH   6  26
TORSDOF 13
ENDMDL
MODEL 7
REMARK VINA RESULT:      -7.1      1.657     10.297
REMARK  Name = 
REMARK  15 active torsions:
REMARK  status: ('A' for Active; 'I' for Inactive)
REMARK    1  A    between atoms: C_1  and  O_2
REMARK    2  A    between atoms: O_2  and  C_3
REMARK    3  A    between atoms: C_5  and  C_6
REMARK    4  A    between atoms: C_6  and  O_8
REMARK    5  A    between atoms: O_8  and  C_9
REMARK    6  A    between atoms: C_11  and  C_12
REMARK    7  A    between atoms: C_11  and  O_13
REMARK    8  A    between atoms: C_15  and  O_16
REMARK    9  A    between atoms: O_16  and  C_17
REMARK   10  A    between atoms: C_19  and  C_20
REMARK   11  A    between atoms: C_20  and  O_21
REMARK   12  A    between atoms: C_22  and  O_23
REMARK   13  A    between atoms: C_24  and  O_25
REMARK   14  A    between atoms: C_26  and  O_27
REMARK   15  A    between atoms: C_34  and  O_35
REMARK                            x       y       z     vdW  Elec       q    Type
REMARK                         _______ _______ _______ _____ _____    ______ ____
ROOT
ATOM      1  C   UNL     1       0.588  10.267  18.910  0.00  0.00    +0.000 C 
ATOM      2  C   UNL     1       1.237  11.428  19.651  0.00  0.00    +0.000 C 
ATOM      3  C   UNL     1       0.218  11.934  20.691  0.00  0.00    +0.000 C 
ATOM      4  C   UNL     1       0.441  13.428  20.913  0.00  0.00    +0.000 C 
ATOM      5  C   UNL     1      -1.179  11.479  20.221  0.00  0.00    +0.000 C 
ATOM      6  C   UNL     1      -2.120  12.607  19.680  0.00  0.00    +0.000 C 
ATOM      7  O   UNL     1      -3.205  12.097  18.893  0.00  0.00    +0.000 OA
ATOM      8  C   UNL     1      -2.879  11.091  18.028  0.00  0.00    +0.000 C 
ATOM      9  C   UNL     1      -1.853  10.256  18.124  0.00  0.00    +0.000 C 
ATOM     10  C   UNL     1      -0.910  10.263  19.295  0.00  0.00    +0.000 C 
ENDROOT
BRANCH   3  11
ATOM     11  O   UNL     1       0.489  11.322  21.959  0.00  0.00    +0.000 OA
ATOM     12  H   UNL     1      -0.357  11.157  22.426  0.00  0.00    +0.000 HD
ENDBRANCH   3  11
BRANCH   1  13
ATOM     13  O   UNL     1       1.319   9.002  19.065  0.00  0.00    +0.000 OA
BRANCH  13  14
ATOM     14  C   UNL     1       2.180   8.539  18.116  0.00  0.00    +0.000 C 
ATOM     15  O   UNL     1       2.473   9.151  17.099  0.00  0.00    +0.000 OA
BRANCH  14  18
ATOM     16  C   UNL     1       4.433   5.441  18.039  0.00  0.00    +0.000 A 
ATOM     17  C   UNL     1       3.803   6.653  17.684  0.00  0.00    +0.000 A 
ATOM     18  C   UNL     1       2.751   7.188  18.457  0.00  0.00    +0.000 A 
ATOM     19  C   UNL     1       2.299   6.449  19.559  0.00  0.00    +0.000 A 
ATOM     20  C   UNL     1       2.970   5.286  19.956  0.00  0.00    +0.000 A 
ATOM     21  C   UNL     1       4.056   4.816  19.230  0.00  0.00    +0.000 A 
BRANCH  16  23
ATOM     22  C   UNL     1       4.991   4.097  16.158  0.00  0.00    +0.000 C 
ATOM     23  O   UNL     1       5.411   5.011  17.175  0.00  0.00    +0.000 OA
ENDBRANCH  16  23
BRANCH  21  24
ATOM     24  O   UNL     1       4.767   3.747  19.719  0.00  0.00    +0.000 OA
ATOM     25  H   UNL     1       5.373   4.071  20.411  0.00  0.00    +0.000 HD
ENDBRANCH  21  24
ENDBRANCH  14  18
ENDBRANCH  13  14
ENDBRANCH   1  13
BRANCH   6  26
ATOM     26  O   UNL     1      -2.632  13.283  20.851  0.00  0.00    +0.000 OA
BRANCH  26  27
ATOM     27  C   UNL     1      -3.707  12.676  21.599  0.00  0.00    +0.000 C 
ATOM     28  O   UNL     1      -4.943  13.360  21.371  0.00  0.00    +0.000 OA
ATOM     29  C   UNL     1      -5.997  12.928  22.259  0.00  0.00    +0.000 C 
ATOM     30  C   UNL     1      -5.686  13.353  23.696  0.00  0.00    +0.000 C 
ATOM     31  C   UNL     1      -4.376  12.713  24.150  0.00  0.00    +0.000 C 
ATOM     32  C   UNL     1      -3.253  12.751  23.101  0.00  0.00    +0.000 C 
BRANCH  30  33
ATOM     33  O   UNL     1      -6.749  12.969  24.585  0.00  0.00    +0.000 OA
ATOM     34  H   UNL     1      -6.976  12.033  24.436  0.00  0.00    +0.000 HD
ENDBRANCH  30  33
BRANCH  31  35
ATOM     35  O   UNL     1      -3.947  13.333  25.386  0.00  0.00    +0.000 OA
ATOM     36  H   UNL     1      -4.192  12.758  26.134  0.00  0.00    +0.000 HD
ENDBRANCH  31  35
BRANCH  32  37
ATOM     37  O   UNL     1      -2.382  11.634  23.392  0.00  0.00    +0.000 OA
ATOM     38  H   UNL     1      -2.111  11.725  24.322  0.00  0.00    +0.000 HD
ENDBRANCH  32  37
BRANCH  29  39
ATOM     39  C   UNL     1      -7.336  13.528  21.795  0.00  0.00    +0.000 C 
BRANCH  39  40
ATOM     40  O   UNL     1      -7.619  14.769  22.439  0.00  0.00    +0.000 OA
ATOM     41  H   UNL     1      -6.821  15.003  22.943  0.00  0.00    +0.000 HD
ENDBRANCH  39  40
ENDBRANCH  29  39
ENDBRANCH  26  27
ENDBRANCH   6  26
TORSDOF 13
ENDMDL
MODEL 8
REMARK VINA RESULT:      -7.1      1.454      2.306
REMARK  Name = 
REMARK  15 active torsions:
REMARK  status: ('A' for Active; 'I' for Inactive)
REMARK    1  A    between atoms: C_1  and  O_2
REMARK    2  A    between atoms: O_2  and  C_3
REMARK    3  A    between atoms: C_5  and  C_6
REMARK    4  A    between atoms: C_6  and  O_8
REMARK    5  A    between atoms: O_8  and  C_9
REMARK    6  A    between atoms: C_11  and  C_12
REMARK    7  A    between atoms: C_11  and  O_13
REMARK    8  A    between atoms: C_15  and  O_16
REMARK    9  A    between atoms: O_16  and  C_17
REMARK   10  A    between atoms: C_19  and  C_20
REMARK   11  A    between atoms: C_20  and  O_21
REMARK   12  A    between atoms: C_22  and  O_23
REMARK   13  A    between atoms: C_24  and  O_25
REMARK   14  A    between atoms: C_26  and  O_27
REMARK   15  A    between atoms: C_34  and  O_35
REMARK                            x       y       z     vdW  Elec       q    Type
REMARK                         _______ _______ _______ _____ _____    ______ ____
ROOT
ATOM      1  C   UNL     1      -0.096  11.973  20.282  0.00  0.00    +0.000 C 
ATOM      2  C   UNL     1       0.759  11.876  19.027  0.00  0.00    +0.000 C 
ATOM      3  C   UNL     1       0.725  10.408  18.560  0.00  0.00    +0.000 C 
ATOM      4  C   UNL     1       2.038  10.085  17.853  0.00  0.00    +0.000 C 
ATOM      5  C   UNL     1       0.337   9.549  19.782  0.00  0.00    +0.000 C 
ATOM      6  C   UNL     1       1.481   8.670  20.390  0.00  0.00    +0.000 C 
ATOM      7  O   UNL     1       1.196   8.233  21.726  0.00  0.00    +0.000 OA
ATOM      8  C   UNL     1       0.631   9.172  22.542  0.00  0.00    +0.000 C 
ATOM      9  C   UNL     1      -0.066  10.238  22.171  0.00  0.00    +0.000 C 
ATOM     10  C   UNL     1      -0.402  10.525  20.734  0.00  0.00    +0.000 C 
ENDROOT
BRANCH   3  11
ATOM     11  O   UNL     1      -0.290  10.251  17.558  0.00  0.00    +0.000 OA
ATOM     12  H   UNL     1      -0.615   9.327  17.569  0.00  0.00    +0.000 HD
ENDBRANCH   3  11
BRANCH   1  13
ATOM     13  O   UNL     1      -1.241  12.880  20.133  0.00  0.00    +0.000 OA
BRANCH  13  14
ATOM     14  C   UNL     1      -2.431  12.658  20.760  0.00  0.00    +0.000 C 
ATOM     15  O   UNL     1      -2.592  12.726  21.970  0.00  0.00    +0.000 OA
BRANCH  14  18
ATOM     16  C   UNL     1      -5.922  12.492  19.191  0.00  0.00    +0.000 A 
ATOM     17  C   UNL     1      -4.871  12.686  20.113  0.00  0.00    +0.000 A 
ATOM     18  C   UNL     1      -3.543  12.331  19.799  0.00  0.00    +0.000 A 
ATOM     19  C   UNL     1      -3.298  11.715  18.564  0.00  0.00    +0.000 A 
ATOM     20  C   UNL     1      -4.324  11.589  17.619  0.00  0.00    +0.000 A 
ATOM     21  C   UNL     1      -5.611  12.019  17.914  0.00  0.00    +0.000 A 
BRANCH  16  23
ATOM     22  C   UNL     1      -7.240  13.344  20.978  0.00  0.00    +0.000 C 
ATOM     23  O   UNL     1      -7.173  12.838  19.641  0.00  0.00    +0.000 OA
ENDBRANCH  16  23
BRANCH  21  24
ATOM     24  O   UNL     1      -6.560  11.997  16.921  0.00  0.00    +0.000 OA
ATOM     25  H   UNL     1      -7.433  12.158  17.326  0.00  0.00    +0.000 HD
ENDBRANCH  21  24
ENDBRANCH  14  18
ENDBRANCH  13  14
ENDBRANCH   1  13
BRANCH   6  26
ATOM     26  O   UNL     1       1.606   7.529  19.511  0.00  0.00    +0.000 OA
BRANCH  26  27
ATOM     27  C   UNL     1       2.841   6.783  19.501  0.00  0.00    +0.000 C 
ATOM     28  O   UNL     1       3.457   6.824  18.210  0.00  0.00    +0.000 OA
ATOM     29  C   UNL     1       4.575   5.919  18.090  0.00  0.00    +0.000 C 
ATOM     30  C   UNL     1       4.090   4.468  18.138  0.00  0.00    +0.000 C 
ATOM     31  C   UNL     1       3.391   4.202  19.470  0.00  0.00    +0.000 C 
ATOM     32  C   UNL     1       2.441   5.323  19.923  0.00  0.00    +0.000 C 
BRANCH  30  33
ATOM     33  O   UNL     1       5.188   3.555  17.975  0.00  0.00    +0.000 OA
ATOM     34  H   UNL     1       4.898   2.786  17.451  0.00  0.00    +0.000 HD
ENDBRANCH  30  33
BRANCH  31  35
ATOM     35  O   UNL     1       2.694   2.936  19.397  0.00  0.00    +0.000 OA
ATOM     36  H   UNL     1       2.900   2.506  18.547  0.00  0.00    +0.000 HD
ENDBRANCH  31  35
BRANCH  32  37
ATOM     37  O   UNL     1       2.374   5.246  21.365  0.00  0.00    +0.000 OA
ATOM     38  H   UNL     1       2.882   6.000  21.710  0.00  0.00    +0.000 HD
ENDBRANCH  32  37
BRANCH  29  39
ATOM     39  C   UNL     1       5.322   6.196  16.774  0.00  0.00    +0.000 C 
BRANCH  39  40
ATOM     40  O   UNL     1       5.049   5.205  15.784  0.00  0.00    +0.000 OA
ATOM     41  H   UNL     1       5.084   5.659  14.925  0.00  0.00    +0.000 HD
ENDBRANCH  39  40
ENDBRANCH  29  39
ENDBRANCH  26  27
ENDBRANCH   6  26
TORSDOF 13
ENDMDL
MODEL 9
REMARK VINA RESULT:      -7.1      1.955     10.536
REMARK  Name = 
REMARK  15 active torsions:
REMARK  status: ('A' for Active; 'I' for Inactive)
REMARK    1  A    between atoms: C_1  and  O_2
REMARK    2  A    between atoms: O_2  and  C_3
REMARK    3  A    between atoms: C_5  and  C_6
REMARK    4  A    between atoms: C_6  and  O_8
REMARK    5  A    between atoms: O_8  and  C_9
REMARK    6  A    between atoms: C_11  and  C_12
REMARK    7  A    between atoms: C_11  and  O_13
REMARK    8  A    between atoms: C_15  and  O_16
REMARK    9  A    between atoms: O_16  and  C_17
REMARK   10  A    between atoms: C_19  and  C_20
REMARK   11  A    between atoms: C_20  and  O_21
REMARK   12  A    between atoms: C_22  and  O_23
REMARK   13  A    between atoms: C_24  and  O_25
REMARK   14  A    between atoms: C_26  and  O_27
REMARK   15  A    between atoms: C_34  and  O_35
REMARK                            x       y       z     vdW  Elec       q    Type
REMARK                         _______ _______ _______ _____ _____    ______ ____
ROOT
ATOM      1  C   UNL     1       1.418   8.933  19.972  0.00  0.00    +0.000 C 
ATOM      2  C   UNL     1       1.353   8.630  21.463  0.00  0.00    +0.000 C 
ATOM      3  C   UNL     1      -0.029   9.091  21.965  0.00  0.00    +0.000 C 
ATOM      4  C   UNL     1       0.093   9.514  23.426  0.00  0.00    +0.000 C 
ATOM      5  C   UNL     1      -0.556  10.134  20.957  0.00  0.00    +0.000 C 
ATOM      6  C   UNL     1      -0.580  11.617  21.458  0.00  0.00    +0.000 C 
ATOM      7  O   UNL     1      -0.673  12.565  20.386  0.00  0.00    +0.000 OA
ATOM      8  C   UNL     1       0.097  12.290  19.291  0.00  0.00    +0.000 C 
ATOM      9  C   UNL     1       0.554  11.103  18.914  0.00  0.00    +0.000 C 
ATOM     10  C   UNL     1       0.205   9.833  19.639  0.00  0.00    +0.000 C 
ENDROOT
BRANCH   3  11
ATOM     11  O   UNL     1      -0.930   7.975  21.970  0.00  0.00    +0.000 OA
ATOM     12  H   UNL     1      -0.945   7.566  21.079  0.00  0.00    +0.000 HD
ENDBRANCH   3  11
BRANCH   1  13
ATOM     13  O   UNL     1       1.603   7.732  19.146  0.00  0.00    +0.000 OA
BRANCH  13  14
ATOM     14  C   UNL     1       2.671   7.580  18.313  0.00  0.00    +0.000 C 
ATOM     15  O   UNL     1       3.205   8.499  17.708  0.00  0.00    +0.000 OA
BRANCH  14  18
ATOM     16  C   UNL     1       4.932   4.496  18.544  0.00  0.00    +0.000 A 
ATOM     17  C   UNL     1       4.484   5.834  18.514  0.00  0.00    +0.000 A 
ATOM     18  C   UNL     1       3.140   6.152  18.223  0.00  0.00    +0.000 A 
ATOM     19  C   UNL     1       2.268   5.105  17.899  0.00  0.00    +0.000 A 
ATOM     20  C   UNL     1       2.691   3.773  18.001  0.00  0.00    +0.000 A 
ATOM     21  C   UNL     1       3.996   3.474  18.368  0.00  0.00    +0.000 A 
BRANCH  16  23
ATOM     22  C   UNL     1       7.160   4.709  17.738  0.00  0.00    +0.000 C 
ATOM     23  O   UNL     1       6.272   4.329  18.794  0.00  0.00    +0.000 OA
ENDBRANCH  16  23
BRANCH  21  24
ATOM     24  O   UNL     1       4.340   2.161  18.581  0.00  0.00    +0.000 OA
ATOM     25  H   UNL     1       5.161   1.974  18.089  0.00  0.00    +0.000 HD
ENDBRANCH  21  24
ENDBRANCH  14  18
ENDBRANCH  13  14
ENDBRANCH   1  13
BRANCH   6  26
ATOM     26  O   UNL     1      -1.740  11.722  22.314  0.00  0.00    +0.000 OA
BRANCH  26  27
ATOM     27  C   UNL     1      -2.397  12.999  22.454  0.00  0.00    +0.000 C 
ATOM     28  O   UNL     1      -1.693  13.843  23.370  0.00  0.00    +0.000 OA
ATOM     29  C   UNL     1      -2.424  15.041  23.708  0.00  0.00    +0.000 C 
ATOM     30  C   UNL     1      -3.669  14.690  24.527  0.00  0.00    +0.000 C 
ATOM     31  C   UNL     1      -4.582  13.777  23.711  0.00  0.00    +0.000 C 
ATOM     32  C   UNL     1      -3.848  12.661  22.950  0.00  0.00    +0.000 C 
BRANCH  30  33
ATOM     33  O   UNL     1      -4.383  15.877  24.908  0.00  0.00    +0.000 OA
ATOM     34  H   UNL     1      -3.923  16.661  24.558  0.00  0.00    +0.000 HD
ENDBRANCH  30  33
BRANCH  31  35
ATOM     35  O   UNL     1      -5.601  13.226  24.577  0.00  0.00    +0.000 OA
ATOM     36  H   UNL     1      -6.080  12.523  24.101  0.00  0.00    +0.000 HD
ENDBRANCH  31  35
BRANCH  32  37
ATOM     37  O   UNL     1      -4.676  12.328  21.812  0.00  0.00    +0.000 OA
ATOM     38  H   UNL     1      -4.341  12.848  21.061  0.00  0.00    +0.000 HD
ENDBRANCH  32  37
BRANCH  29  39
ATOM     39  C   UNL     1      -1.510  15.996  24.496  0.00  0.00    +0.000 C 
BRANCH  39  40
ATOM     40  O   UNL     1      -0.417  15.310  25.105  0.00  0.00    +0.000 OA
ATOM     41  H   UNL     1       0.345  15.912  25.054  0.00  0.00    +0.000 HD
ENDBRANCH  39  40
ENDBRANCH  29  39
ENDBRANCH  26  27
ENDBRANCH   6  26
TORSDOF 13
ENDMDL
