MODEL 1
REMARK VINA RESULT:      -8.8      0.000      0.000
REMARK  Name = 
REMARK  7 active torsions:
REMARK  status: ('A' for Active; 'I' for Inactive)
REMARK    1  A    between atoms: C_2  and  C_5
REMARK    2  A    between atoms: N_3  and  O_4
REMARK    3  A    between atoms: C_10  and  C_12
REMARK    4  A    between atoms: C_15  and  C_16
REMARK    5  A    between atoms: C_17  and  C_18
REMARK    6  A    between atoms: C_21  and  C_22
REMARK    7  A    between atoms: C_22  and  N_23
REMARK                            x       y       z     vdW  Elec       q    Type
REMARK                         _______ _______ _______ _____ _____    ______ ____
ROOT
ATOM      1  C   UNL     1       5.834   5.038  17.212  0.00  0.00    +0.000 A 
ATOM      2  C   UNL     1       5.531   6.266  16.623  0.00  0.00    +0.000 A 
ATOM      3  C   UNL     1       6.303   7.387  16.908  0.00  0.00    +0.000 A 
ATOM      4  C   UNL     1       7.300   7.308  17.877  0.00  0.00    +0.000 A 
ATOM      5  C   UNL     1       7.541   6.109  18.551  0.00  0.00    +0.000 A 
ATOM      6  C   UNL     1       6.811   4.968  18.213  0.00  0.00    +0.000 A 
ENDROOT
BRANCH   1  12
ATOM      7  C   UNL     1       2.796   4.465  17.954  0.00  0.00    +0.000 C 
ATOM      8  C   UNL     1       1.967   3.505  18.823  0.00  0.00    +0.000 C 
ATOM      9  C   UNL     1       1.964   2.217  18.020  0.00  0.00    +0.000 C 
ATOM     10  C   UNL     1       3.310   2.226  17.309  0.00  0.00    +0.000 C 
ATOM     11  N   UNL     1       3.883   3.547  17.550  0.00  0.00    +0.000 N 
ATOM     12  C   UNL     1       5.062   3.826  16.868  0.00  0.00    +0.000 C 
ATOM     13  O   UNL     1       5.546   3.061  16.038  0.00  0.00    +0.000 OA
BRANCH   7  15
ATOM     14  O   UNL     1       3.618   5.881  19.794  0.00  0.00    +0.000 OA
ATOM     15  C   UNL     1       2.960   5.770  18.759  0.00  0.00    +0.000 C 
ATOM     16  N   UNL     1       2.308   6.857  18.206  0.00  0.00    +0.000 N 
ATOM     17  H   UNL     1       2.206   6.944  17.199  0.00  0.00    +0.000 HD
BRANCH  16  18
ATOM     18  O   UNL     1       2.517   8.081  18.895  0.00  0.00    +0.000 OA
ATOM     19  H   UNL     1       2.044   8.732  18.330  0.00  0.00    +0.000 HD
ENDBRANCH  16  18
ENDBRANCH   7  15
ENDBRANCH   1  12
BRANCH   4  20
ATOM     20  C   UNL     1       8.043   8.479  18.199  0.00  0.00    +0.000 C 
ATOM     21  C   UNL     1       8.693   9.452  18.443  0.00  0.00    +0.000 C 
BRANCH  21  22
ATOM     22  C   UNL     1       9.434  10.626  18.758  0.00  0.00    +0.000 A 
ATOM     23  C   UNL     1       9.732  10.950  20.082  0.00  0.00    +0.000 A 
ATOM     24  C   UNL     1      10.408  12.138  20.364  0.00  0.00    +0.000 A 
ATOM     25  C   UNL     1      10.804  12.999  19.328  0.00  0.00    +0.000 A 
ATOM     26  C   UNL     1      10.530  12.639  18.001  0.00  0.00    +0.000 A 
ATOM     27  C   UNL     1       9.844  11.461  17.720  0.00  0.00    +0.000 A 
BRANCH  25  28
ATOM     28  C   UNL     1      11.489  14.312  19.626  0.00  0.00    +0.000 C 
BRANCH  28  29
ATOM     29  N   UNL     1      11.184  15.407  18.675  0.00  0.00    +0.000 NA
ATOM     30  C   UNL     1      12.332  16.335  18.581  0.00  0.00    +0.000 C 
ATOM     31  C   UNL     1      12.112  17.647  17.816  0.00  0.00    +0.000 C 
ATOM     32  S   UNL     1      10.773  18.631  18.536  0.00  0.00    +0.000 S 
ATOM     33  C   UNL     1       9.509  17.339  18.413  0.00  0.00    +0.000 C 
ATOM     34  C   UNL     1       9.939  16.061  19.140  0.00  0.00    +0.000 C 
ENDBRANCH  28  29
ENDBRANCH  25  28
ENDBRANCH  21  22
ENDBRANCH   4  20
TORSDOF 7
ENDMDL
MODEL 2
REMARK VINA RESULT:      -8.6      4.583     11.489
REMARK  Name = 
REMARK  7 active torsions:
REMARK  status: ('A' for Active; 'I' for Inactive)
REMARK    1  A    between atoms: C_2  and  C_5
REMARK    2  A    between atoms: N_3  and  O_4
REMARK    3  A    between atoms: C_10  and  C_12
REMARK    4  A    between atoms: C_15  and  C_16
REMARK    5  A    between atoms: C_17  and  C_18
REMARK    6  A    between atoms: C_21  and  C_22
REMARK    7  A    between atoms: C_22  and  N_23
REMARK                            x       y       z     vdW  Elec       q    Type
REMARK                         _______ _______ _______ _____ _____    ______ ____
ROOT
ATOM      1  C   UNL     1      10.450  12.822  18.880  0.00  0.00    +0.000 A 
ATOM      2  C   UNL     1       9.358  12.851  18.011  0.00  0.00    +0.000 A 
ATOM      3  C   UNL     1       8.616  11.697  17.785  0.00  0.00    +0.000 A 
ATOM      4  C   UNL     1       9.040  10.487  18.329  0.00  0.00    +0.000 A 
ATOM      5  C   UNL     1      10.193  10.428  19.113  0.00  0.00    +0.000 A 
ATOM      6  C   UNL     1      10.897  11.599  19.396  0.00  0.00    +0.000 A 
ENDROOT
BRANCH   1  12
ATOM      7  C   UNL     1      10.283  14.531  21.556  0.00  0.00    +0.000 C 
ATOM      8  C   UNL     1       9.821  15.920  22.028  0.00  0.00    +0.000 C 
ATOM      9  C   UNL     1      10.941  16.837  21.569  0.00  0.00    +0.000 C 
ATOM     10  C   UNL     1      11.446  16.185  20.289  0.00  0.00    +0.000 C 
ATOM     11  N   UNL     1      10.782  14.887  20.210  0.00  0.00    +0.000 N 
ATOM     12  C   UNL     1      11.207  14.054  19.180  0.00  0.00    +0.000 C 
ATOM     13  O   UNL     1      12.147  14.339  18.442  0.00  0.00    +0.000 OA
BRANCH   7  15
ATOM     14  O   UNL     1       7.944  13.765  21.657  0.00  0.00    +0.000 OA
ATOM     15  C   UNL     1       9.137  13.547  21.870  0.00  0.00    +0.000 C 
ATOM     16  N   UNL     1       9.559  12.346  22.409  0.00  0.00    +0.000 N 
ATOM     17  H   UNL     1      10.455  11.945  22.146  0.00  0.00    +0.000 HD
BRANCH  16  18
ATOM     18  O   UNL     1       8.521  11.402  22.629  0.00  0.00    +0.000 OA
ATOM     19  H   UNL     1       8.999  10.544  22.602  0.00  0.00    +0.000 HD
ENDBRANCH  16  18
ENDBRANCH   7  15
ENDBRANCH   1  12
BRANCH   4  20
ATOM     20  C   UNL     1       8.301   9.305  18.039  0.00  0.00    +0.000 C 
ATOM     21  C   UNL     1       7.701   8.295  17.824  0.00  0.00    +0.000 C 
BRANCH  21  22
ATOM     22  C   UNL     1       6.958   7.113  17.540  0.00  0.00    +0.000 A 
ATOM     23  C   UNL     1       5.803   7.164  16.759  0.00  0.00    +0.000 A 
ATOM     24  C   UNL     1       5.064   5.999  16.548  0.00  0.00    +0.000 A 
ATOM     25  C   UNL     1       5.482   4.777  17.100  0.00  0.00    +0.000 A 
ATOM     26  C   UNL     1       6.665   4.737  17.850  0.00  0.00    +0.000 A 
ATOM     27  C   UNL     1       7.396   5.901  18.073  0.00  0.00    +0.000 A 
BRANCH  25  28
ATOM     28  C   UNL     1       4.660   3.522  16.921  0.00  0.00    +0.000 C 
BRANCH  28  29
ATOM     29  N   UNL     1       3.299   3.577  17.505  0.00  0.00    +0.000 NA
ATOM     30  C   UNL     1       3.296   4.432  18.713  0.00  0.00    +0.000 C 
ATOM     31  C   UNL     1       2.026   4.425  19.574  0.00  0.00    +0.000 C 
ATOM     32  S   UNL     1       1.630   2.764  20.177  0.00  0.00    +0.000 S 
ATOM     33  C   UNL     1       1.568   1.985  18.542  0.00  0.00    +0.000 C 
ATOM     34  C   UNL     1       2.879   2.183  17.775  0.00  0.00    +0.000 C 
ENDBRANCH  28  29
ENDBRANCH  25  28
ENDBRANCH  21  22
ENDBRANCH   4  20
TORSDOF 7
ENDMDL
MODEL 3
REMARK VINA RESULT:      -8.6      4.432     11.369
REMARK  Name = 
REMARK  7 active torsions:
REMARK  status: ('A' for Active; 'I' for Inactive)
REMARK    1  A    between atoms: C_2  and  C_5
REMARK    2  A    between atoms: N_3  and  O_4
REMARK    3  A    between atoms: C_10  and  C_12
REMARK    4  A    between atoms: C_15  and  C_16
REMARK    5  A    between atoms: C_17  and  C_18
REMARK    6  A    between atoms: C_21  and  C_22
REMARK    7  A    between atoms: C_22  and  N_23
REMARK                            x       y       z     vdW  Elec       q    Type
REMARK                         _______ _______ _______ _____ _____    ______ ____
ROOT
ATOM      1  C   UNL     1      10.354  12.883  18.682  0.00  0.00    +0.000 A 
ATOM      2  C   UNL     1       9.169  12.891  17.946  0.00  0.00    +0.000 A 
ATOM      3  C   UNL     1       8.452  11.714  17.763  0.00  0.00    +0.000 A 
ATOM      4  C   UNL     1       8.984  10.507  18.209  0.00  0.00    +0.000 A 
ATOM      5  C   UNL     1      10.222  10.473  18.853  0.00  0.00    +0.000 A 
ATOM      6  C   UNL     1      10.907  11.665  19.097  0.00  0.00    +0.000 A 
ENDROOT
BRANCH   1  12
ATOM      7  C   UNL     1      10.292  14.585  21.366  0.00  0.00    +0.000 C 
ATOM      8  C   UNL     1       9.818  15.960  21.867  0.00  0.00    +0.000 C 
ATOM      9  C   UNL     1      10.882  16.910  21.345  0.00  0.00    +0.000 C 
ATOM     10  C   UNL     1      11.330  16.273  20.037  0.00  0.00    +0.000 C 
ATOM     11  N   UNL     1      10.702  14.956  19.995  0.00  0.00    +0.000 N 
ATOM     12  C   UNL     1      11.090  14.137  18.940  0.00  0.00    +0.000 C 
ATOM     13  O   UNL     1      11.977  14.449  18.149  0.00  0.00    +0.000 OA
BRANCH   7  15
ATOM     14  O   UNL     1       7.986  13.759  21.621  0.00  0.00    +0.000 OA
ATOM     15  C   UNL     1       9.197  13.568  21.745  0.00  0.00    +0.000 C 
ATOM     16  N   UNL     1       9.685  12.370  22.233  0.00  0.00    +0.000 N 
ATOM     17  H   UNL     1      10.569  11.997  21.900  0.00  0.00    +0.000 HD
BRANCH  16  18
ATOM     18  O   UNL     1       8.690  11.397  22.510  0.00  0.00    +0.000 OA
ATOM     19  H   UNL     1       8.333  11.191  21.618  0.00  0.00    +0.000 HD
ENDBRANCH  16  18
ENDBRANCH   7  15
ENDBRANCH   1  12
BRANCH   4  20
ATOM     20  C   UNL     1       8.265   9.303  17.961  0.00  0.00    +0.000 C 
ATOM     21  C   UNL     1       7.681   8.276  17.783  0.00  0.00    +0.000 C 
BRANCH  21  22
ATOM     22  C   UNL     1       6.958   7.073  17.541  0.00  0.00    +0.000 A 
ATOM     23  C   UNL     1       7.530   5.829  17.808  0.00  0.00    +0.000 A 
ATOM     24  C   UNL     1       6.818   4.667  17.505  0.00  0.00    +0.000 A 
ATOM     25  C   UNL     1       5.531   4.740  16.951  0.00  0.00    +0.000 A 
ATOM     26  C   UNL     1       4.957   5.998  16.724  0.00  0.00    +0.000 A 
ATOM     27  C   UNL     1       5.670   7.158  17.014  0.00  0.00    +0.000 A 
BRANCH  25  28
ATOM     28  C   UNL     1       4.776   3.488  16.570  0.00  0.00    +0.000 C 
BRANCH  28  29
ATOM     29  N   UNL     1       3.779   3.031  17.567  0.00  0.00    +0.000 NA
ATOM     30  C   UNL     1       2.489   3.723  17.354  0.00  0.00    +0.000 C 
ATOM     31  C   UNL     1       1.409   3.542  18.429  0.00  0.00    +0.000 C 
ATOM     32  S   UNL     1       1.976   4.102  20.055  0.00  0.00    +0.000 S 
ATOM     33  C   UNL     1       3.440   3.037  20.115  0.00  0.00    +0.000 C 
ATOM     34  C   UNL     1       4.356   3.271  18.910  0.00  0.00    +0.000 C 
ENDBRANCH  28  29
ENDBRANCH  25  28
ENDBRANCH  21  22
ENDBRANCH   4  20
TORSDOF 7
ENDMDL
MODEL 4
REMARK VINA RESULT:      -8.6      0.932      1.756
REMARK  Name = 
REMARK  7 active torsions:
REMARK  status: ('A' for Active; 'I' for Inactive)
REMARK    1  A    between atoms: C_2  and  C_5
REMARK    2  A    between atoms: N_3  and  O_4
REMARK    3  A    between atoms: C_10  and  C_12
REMARK    4  A    between atoms: C_15  and  C_16
REMARK    5  A    between atoms: C_17  and  C_18
REMARK    6  A    between atoms: C_21  and  C_22
REMARK    7  A    between atoms: C_22  and  N_23
REMARK                            x       y       z     vdW  Elec       q    Type
REMARK                         _______ _______ _______ _____ _____    ______ ____
ROOT
ATOM      1  C   UNL     1       5.564   5.047  17.419  0.00  0.00    +0.000 A 
ATOM      2  C   UNL     1       6.419   5.064  18.521  0.00  0.00    +0.000 A 
ATOM      3  C   UNL     1       7.174   6.197  18.802  0.00  0.00    +0.000 A 
ATOM      4  C   UNL     1       7.167   7.268  17.912  0.00  0.00    +0.000 A 
ATOM      5  C   UNL     1       6.396   7.218  16.749  0.00  0.00    +0.000 A 
ATOM      6  C   UNL     1       5.586   6.108  16.504  0.00  0.00    +0.000 A 
ENDROOT
BRANCH   1  12
ATOM      7  C   UNL     1       2.439   4.829  17.962  0.00  0.00    +0.000 C 
ATOM      8  C   UNL     1       1.460   4.052  18.859  0.00  0.00    +0.000 C 
ATOM      9  C   UNL     1       1.393   2.685  18.203  0.00  0.00    +0.000 C 
ATOM     10  C   UNL     1       2.783   2.494  17.612  0.00  0.00    +0.000 C 
ATOM     11  N   UNL     1       3.460   3.780  17.754  0.00  0.00    +0.000 N 
ATOM     12  C   UNL     1       4.708   3.875  17.146  0.00  0.00    +0.000 C 
ATOM     13  O   UNL     1       5.176   2.978  16.449  0.00  0.00    +0.000 OA
BRANCH   7  15
ATOM     14  O   UNL     1       3.043   7.216  18.043  0.00  0.00    +0.000 OA
ATOM     15  C   UNL     1       2.667   6.200  18.630  0.00  0.00    +0.000 C 
ATOM     16  N   UNL     1       2.391   6.219  19.984  0.00  0.00    +0.000 N 
ATOM     17  H   UNL     1       1.659   5.631  20.373  0.00  0.00    +0.000 HD
BRANCH  16  18
ATOM     18  O   UNL     1       2.520   7.495  20.594  0.00  0.00    +0.000 OA
ATOM     19  H   UNL     1       2.586   7.273  21.549  0.00  0.00    +0.000 HD
ENDBRANCH  16  18
ENDBRANCH   7  15
ENDBRANCH   1  12
BRANCH   4  20
ATOM     20  C   UNL     1       7.991   8.396  18.185  0.00  0.00    +0.000 C 
ATOM     21  C   UNL     1       8.709   9.320  18.429  0.00  0.00    +0.000 C 
BRANCH  21  22
ATOM     22  C   UNL     1       9.537  10.447  18.697  0.00  0.00    +0.000 A 
ATOM     23  C   UNL     1      10.135  11.159  17.657  0.00  0.00    +0.000 A 
ATOM     24  C   UNL     1      10.989  12.223  17.954  0.00  0.00    +0.000 A 
ATOM     25  C   UNL     1      11.237  12.591  19.286  0.00  0.00    +0.000 A 
ATOM     26  C   UNL     1      10.598  11.889  20.317  0.00  0.00    +0.000 A 
ATOM     27  C   UNL     1       9.756  10.819  20.022  0.00  0.00    +0.000 A 
BRANCH  25  28
ATOM     28  C   UNL     1      12.200  13.705  19.618  0.00  0.00    +0.000 C 
BRANCH  28  29
ATOM     29  N   UNL     1      11.658  15.074  19.446  0.00  0.00    +0.000 NA
ATOM     30  C   UNL     1      10.237  15.115  19.857  0.00  0.00    +0.000 C 
ATOM     31  C   UNL     1       9.451  16.393  19.537  0.00  0.00    +0.000 C 
ATOM     32  S   UNL     1       9.435  16.748  17.762  0.00  0.00    +0.000 S 
ATOM     33  C   UNL     1      11.235  16.771  17.562  0.00  0.00    +0.000 C 
ATOM     34  C   UNL     1      11.869  15.457  18.032  0.00  0.00    +0.000 C 
ENDBRANCH  28  29
ENDBRANCH  25  28
ENDBRANCH  21  22
ENDBRANCH   4  20
TORSDOF 7
ENDMDL
MODEL 5
REMARK VINA RESULT:      -8.6      0.784      1.392
REMARK  Name = 
REMARK  7 active torsions:
REMARK  status: ('A' for Active; 'I' for Inactive)
REMARK    1  A    between atoms: C_2  and  C_5
REMARK    2  A    between atoms: N_3  and  O_4
REMARK    3  A    between atoms: C_10  and  C_12
REMARK    4  A    between atoms: C_15  and  C_16
REMARK    5  A    between atoms: C_17  and  C_18
REMARK    6  A    between atoms: C_21  and  C_22
REMARK    7  A    between atoms: C_22  and  N_23
REMARK                            x       y       z     vdW  Elec       q    Type
REMARK                         _______ _______ _______ _____ _____    ______ ____
ROOT
ATOM      1  C   UNL     1       5.826   5.105  17.342  0.00  0.00    +0.000 A 
ATOM      2  C   UNL     1       6.631   5.136  18.481  0.00  0.00    +0.000 A 
ATOM      3  C   UNL     1       7.349   6.284  18.797  0.00  0.00    +0.000 A 
ATOM      4  C   UNL     1       7.360   7.357  17.909  0.00  0.00    +0.000 A 
ATOM      5  C   UNL     1       6.643   7.294  16.714  0.00  0.00    +0.000 A 
ATOM      6  C   UNL     1       5.867   6.168  16.431  0.00  0.00    +0.000 A 
ENDROOT
BRANCH   1  12
ATOM      7  C   UNL     1       2.709   4.772  17.870  0.00  0.00    +0.000 C 
ATOM      8  C   UNL     1       1.754   3.936  18.739  0.00  0.00    +0.000 C 
ATOM      9  C   UNL     1       1.731   2.589  18.039  0.00  0.00    +0.000 C 
ATOM     10  C   UNL     1       3.126   2.462  17.444  0.00  0.00    +0.000 C 
ATOM     11  N   UNL     1       3.763   3.763  17.630  0.00  0.00    +0.000 N 
ATOM     12  C   UNL     1       5.008   3.916  17.029  0.00  0.00    +0.000 C 
ATOM     13  O   UNL     1       5.505   3.058  16.303  0.00  0.00    +0.000 OA
BRANCH   7  15
ATOM     14  O   UNL     1       3.354   7.142  18.058  0.00  0.00    +0.000 OA
ATOM     15  C   UNL     1       2.893   6.127  18.583  0.00  0.00    +0.000 C 
ATOM     16  N   UNL     1       2.471   6.132  19.899  0.00  0.00    +0.000 N 
ATOM     17  H   UNL     1       1.689   5.556  20.195  0.00  0.00    +0.000 HD
BRANCH  16  18
ATOM     18  O   UNL     1       2.562   7.395  20.542  0.00  0.00    +0.000 OA
ATOM     19  H   UNL     1       2.804   7.153  21.464  0.00  0.00    +0.000 HD
ENDBRANCH  16  18
ENDBRANCH   7  15
ENDBRANCH   1  12
BRANCH   4  20
ATOM     20  C   UNL     1       8.147   8.501  18.221  0.00  0.00    +0.000 C 
ATOM     21  C   UNL     1       8.826   9.458  18.448  0.00  0.00    +0.000 C 
BRANCH  21  22
ATOM     22  C   UNL     1       9.609  10.607  18.756  0.00  0.00    +0.000 A 
ATOM     23  C   UNL     1       9.637  11.129  20.049  0.00  0.00    +0.000 A 
ATOM     24  C   UNL     1      10.367  12.291  20.306  0.00  0.00    +0.000 A 
ATOM     25  C   UNL     1      11.085  12.926  19.280  0.00  0.00    +0.000 A 
ATOM     26  C   UNL     1      11.077  12.366  17.995  0.00  0.00    +0.000 A 
ATOM     27  C   UNL     1      10.338  11.215  17.735  0.00  0.00    +0.000 A 
BRANCH  25  28
ATOM     28  C   UNL     1      11.834  14.212  19.537  0.00  0.00    +0.000 C 
BRANCH  28  29
ATOM     29  N   UNL     1      11.008  15.441  19.474  0.00  0.00    +0.000 NA
ATOM     30  C   UNL     1      10.066  15.365  18.336  0.00  0.00    +0.000 C 
ATOM     31  C   UNL     1       9.288  16.640  17.982  0.00  0.00    +0.000 C 
ATOM     32  S   UNL     1      10.396  18.016  17.583  0.00  0.00    +0.000 S 
ATOM     33  C   UNL     1      11.315  17.971  19.143  0.00  0.00    +0.000 C 
ATOM     34  C   UNL     1      11.935  16.592  19.391  0.00  0.00    +0.000 C 
ENDBRANCH  28  29
ENDBRANCH  25  28
ENDBRANCH  21  22
ENDBRANCH   4  20
TORSDOF 7
ENDMDL
MODEL 6
REMARK VINA RESULT:      -8.5      0.774      1.394
REMARK  Name = 
REMARK  7 active torsions:
REMARK  status: ('A' for Active; 'I' for Inactive)
REMARK    1  A    between atoms: C_2  and  C_5
REMARK    2  A    between atoms: N_3  and  O_4
REMARK    3  A    between atoms: C_10  and  C_12
REMARK    4  A    between atoms: C_15  and  C_16
REMARK    5  A    between atoms: C_17  and  C_18
REMARK    6  A    between atoms: C_21  and  C_22
REMARK    7  A    between atoms: C_22  and  N_23
REMARK                            x       y       z     vdW  Elec       q    Type
REMARK                         _______ _______ _______ _____ _____    ______ ____
ROOT
ATOM      1  C   UNL     1       5.639   5.010  17.316  0.00  0.00    +0.000 A 
ATOM      2  C   UNL     1       5.517   6.171  16.551  0.00  0.00    +0.000 A 
ATOM      3  C   UNL     1       6.348   7.258  16.796  0.00  0.00    +0.000 A 
ATOM      4  C   UNL     1       7.216   7.232  17.885  0.00  0.00    +0.000 A 
ATOM      5  C   UNL     1       7.269   6.116  18.721  0.00  0.00    +0.000 A 
ATOM      6  C   UNL     1       6.484   4.998  18.433  0.00  0.00    +0.000 A 
ENDROOT
BRANCH   1  12
ATOM      7  C   UNL     1       2.551   4.664  17.988  0.00  0.00    +0.000 C 
ATOM      8  C   UNL     1       1.640   3.814  18.889  0.00  0.00    +0.000 C 
ATOM      9  C   UNL     1       1.584   2.477  18.171  0.00  0.00    +0.000 C 
ATOM     10  C   UNL     1       2.950   2.361  17.508  0.00  0.00    +0.000 C 
ATOM     11  N   UNL     1       3.593   3.660  17.682  0.00  0.00    +0.000 N 
ATOM     12  C   UNL     1       4.808   3.825  17.025  0.00  0.00    +0.000 C 
ATOM     13  O   UNL     1       5.270   2.979  16.263  0.00  0.00    +0.000 OA
BRANCH   7  15
ATOM     14  O   UNL     1       3.331   6.140  19.799  0.00  0.00    +0.000 OA
ATOM     15  C   UNL     1       2.768   6.008  18.712  0.00  0.00    +0.000 C 
ATOM     16  N   UNL     1       2.286   7.104  18.020  0.00  0.00    +0.000 N 
ATOM     17  H   UNL     1       2.290   7.119  17.004  0.00  0.00    +0.000 HD
BRANCH  16  18
ATOM     18  O   UNL     1       2.550   8.354  18.638  0.00  0.00    +0.000 OA
ATOM     19  H   UNL     1       1.935   8.352  19.405  0.00  0.00    +0.000 HD
ENDBRANCH  16  18
ENDBRANCH   7  15
ENDBRANCH   1  12
BRANCH   4  20
ATOM     20  C   UNL     1       8.018   8.377  18.155  0.00  0.00    +0.000 C 
ATOM     21  C   UNL     1       8.706   9.319  18.412  0.00  0.00    +0.000 C 
BRANCH  21  22
ATOM     22  C   UNL     1       9.514  10.461  18.681  0.00  0.00    +0.000 A 
ATOM     23  C   UNL     1      10.086  11.193  17.640  0.00  0.00    +0.000 A 
ATOM     24  C   UNL     1      10.921  12.271  17.936  0.00  0.00    +0.000 A 
ATOM     25  C   UNL     1      11.177  12.634  19.269  0.00  0.00    +0.000 A 
ATOM     26  C   UNL     1      10.564  11.910  20.301  0.00  0.00    +0.000 A 
ATOM     27  C   UNL     1       9.741  10.826  20.007  0.00  0.00    +0.000 A 
BRANCH  25  28
ATOM     28  C   UNL     1      12.121  13.765  19.600  0.00  0.00    +0.000 C 
BRANCH  28  29
ATOM     29  N   UNL     1      11.558  15.124  19.416  0.00  0.00    +0.000 NA
ATOM     30  C   UNL     1      10.225  15.214  20.051  0.00  0.00    +0.000 C 
ATOM     31  C   UNL     1       9.398  16.475  19.769  0.00  0.00    +0.000 C 
ATOM     32  S   UNL     1       9.089  16.697  17.998  0.00  0.00    +0.000 S 
ATOM     33  C   UNL     1      10.831  16.680  17.504  0.00  0.00    +0.000 C 
ATOM     34  C   UNL     1      11.533  15.397  17.961  0.00  0.00    +0.000 C 
ENDBRANCH  28  29
ENDBRANCH  25  28
ENDBRANCH  21  22
ENDBRANCH   4  20
TORSDOF 7
ENDMDL
MODEL 7
REMARK VINA RESULT:      -8.5      4.830     11.806
REMARK  Name = 
REMARK  7 active torsions:
REMARK  status: ('A' for Active; 'I' for Inactive)
REMARK    1  A    between atoms: C_2  and  C_5
REMARK    2  A    between atoms: N_3  and  O_4
REMARK    3  A    between atoms: C_10  and  C_12
REMARK    4  A    between atoms: C_15  and  C_16
REMARK    5  A    between atoms: C_17  and  C_18
REMARK    6  A    between atoms: C_21  and  C_22
REMARK    7  A    between atoms: C_22  and  N_23
REMARK                            x       y       z     vdW  Elec       q    Type
REMARK                         _______ _______ _______ _____ _____    ______ ____
ROOT
ATOM      1  C   UNL     1      10.807  13.750  18.039  0.00  0.00    +0.000 A 
ATOM      2  C   UNL     1      11.504  12.571  18.305  0.00  0.00    +0.000 A 
ATOM      3  C   UNL     1      10.857  11.343  18.222  0.00  0.00    +0.000 A 
ATOM      4  C   UNL     1       9.483  11.302  17.994  0.00  0.00    +0.000 A 
ATOM      5  C   UNL     1       8.757  12.483  17.832  0.00  0.00    +0.000 A 
ATOM      6  C   UNL     1       9.420  13.711  17.847  0.00  0.00    +0.000 A 
ENDROOT
BRANCH   1  12
ATOM      7  C   UNL     1      11.013  15.731  20.517  0.00  0.00    +0.000 C 
ATOM      8  C   UNL     1      10.533  17.131  20.937  0.00  0.00    +0.000 C 
ATOM      9  C   UNL     1      11.458  18.063  20.175  0.00  0.00    +0.000 C 
ATOM     10  C   UNL     1      11.760  17.307  18.888  0.00  0.00    +0.000 C 
ATOM     11  N   UNL     1      11.210  15.968  19.070  0.00  0.00    +0.000 N 
ATOM     12  C   UNL     1      11.498  15.055  18.060  0.00  0.00    +0.000 C 
ATOM     13  O   UNL     1      12.249  15.317  17.124  0.00  0.00    +0.000 OA
BRANCH   7  15
ATOM     14  O   UNL     1      10.339  13.567  21.481  0.00  0.00    +0.000 OA
ATOM     15  C   UNL     1      10.040  14.715  21.148  0.00  0.00    +0.000 C 
ATOM     16  N   UNL     1       8.763  15.206  21.343  0.00  0.00    +0.000 N 
ATOM     17  H   UNL     1       8.611  16.187  21.557  0.00  0.00    +0.000 HD
BRANCH  16  18
ATOM     18  O   UNL     1       7.880  14.306  21.996  0.00  0.00    +0.000 OA
ATOM     19  H   UNL     1       8.425  13.494  22.087  0.00  0.00    +0.000 HD
ENDBRANCH  16  18
ENDBRANCH   7  15
ENDBRANCH   1  12
BRANCH   4  20
ATOM     20  C   UNL     1       8.826  10.040  17.969  0.00  0.00    +0.000 C 
ATOM     21  C   UNL     1       8.240   8.998  17.951  0.00  0.00    +0.000 C 
BRANCH  21  22
ATOM     22  C   UNL     1       7.580   7.737  17.920  0.00  0.00    +0.000 A 
ATOM     23  C   UNL     1       6.470   7.530  17.100  0.00  0.00    +0.000 A 
ATOM     24  C   UNL     1       5.809   6.301  17.136  0.00  0.00    +0.000 A 
ATOM     25  C   UNL     1       6.260   5.270  17.975  0.00  0.00    +0.000 A 
ATOM     26  C   UNL     1       7.400   5.482  18.763  0.00  0.00    +0.000 A 
ATOM     27  C   UNL     1       8.052   6.712  18.738  0.00  0.00    +0.000 A 
BRANCH  25  28
ATOM     28  C   UNL     1       5.519   3.956  18.059  0.00  0.00    +0.000 C 
BRANCH  28  29
ATOM     29  N   UNL     1       4.158   4.042  18.639  0.00  0.00    +0.000 NA
ATOM     30  C   UNL     1       3.994   3.033  19.709  0.00  0.00    +0.000 C 
ATOM     31  C   UNL     1       2.580   2.826  20.267  0.00  0.00    +0.000 C 
ATOM     32  S   UNL     1       1.411   2.332  18.975  0.00  0.00    +0.000 S 
ATOM     33  C   UNL     1       1.713   3.758  17.899  0.00  0.00    +0.000 C 
ATOM     34  C   UNL     1       3.194   3.878  17.527  0.00  0.00    +0.000 C 
ENDBRANCH  28  29
ENDBRANCH  25  28
ENDBRANCH  21  22
ENDBRANCH   4  20
TORSDOF 7
ENDMDL
MODEL 8
REMARK VINA RESULT:      -8.4      1.050      1.364
REMARK  Name = 
REMARK  7 active torsions:
REMARK  status: ('A' for Active; 'I' for Inactive)
REMARK    1  A    between atoms: C_2  and  C_5
REMARK    2  A    between atoms: N_3  and  O_4
REMARK    3  A    between atoms: C_10  and  C_12
REMARK    4  A    between atoms: C_15  and  C_16
REMARK    5  A    between atoms: C_17  and  C_18
REMARK    6  A    between atoms: C_21  and  C_22
REMARK    7  A    between atoms: C_22  and  N_23
REMARK                            x       y       z     vdW  Elec       q    Type
REMARK                         _______ _______ _______ _____ _____    ______ ____
ROOT
ATOM      1  C   UNL     1       5.604   5.029  17.384  0.00  0.00    +0.000 A 
ATOM      2  C   UNL     1       5.611   6.137  16.537  0.00  0.00    +0.000 A 
ATOM      3  C   UNL     1       6.467   7.203  16.790  0.00  0.00    +0.000 A 
ATOM      4  C   UNL     1       7.225   7.216  17.957  0.00  0.00    +0.000 A 
ATOM      5  C   UNL     1       7.145   6.160  18.866  0.00  0.00    +0.000 A 
ATOM      6  C   UNL     1       6.338   5.059  18.576  0.00  0.00    +0.000 A 
ENDROOT
BRANCH   1  12
ATOM      7  C   UNL     1       2.484   4.793  17.948  0.00  0.00    +0.000 C 
ATOM      8  C   UNL     1       1.514   3.993  18.834  0.00  0.00    +0.000 C 
ATOM      9  C   UNL     1       1.444   2.641  18.147  0.00  0.00    +0.000 C 
ATOM     10  C   UNL     1       2.829   2.467  17.540  0.00  0.00    +0.000 C 
ATOM     11  N   UNL     1       3.505   3.750  17.706  0.00  0.00    +0.000 N 
ATOM     12  C   UNL     1       4.748   3.861  17.091  0.00  0.00    +0.000 C 
ATOM     13  O   UNL     1       5.212   2.982  16.368  0.00  0.00    +0.000 OA
BRANCH   7  15
ATOM     14  O   UNL     1       3.165   7.155  18.096  0.00  0.00    +0.000 OA
ATOM     15  C   UNL     1       2.716   6.148  18.645  0.00  0.00    +0.000 C 
ATOM     16  N   UNL     1       2.351   6.164  19.979  0.00  0.00    +0.000 N 
ATOM     17  H   UNL     1       1.576   5.598  20.311  0.00  0.00    +0.000 HD
BRANCH  16  18
ATOM     18  O   UNL     1       2.485   7.428  20.611  0.00  0.00    +0.000 OA
ATOM     19  H   UNL     1       3.305   7.788  20.206  0.00  0.00    +0.000 HD
ENDBRANCH  16  18
ENDBRANCH   7  15
ENDBRANCH   1  12
BRANCH   4  20
ATOM     20  C   UNL     1       8.052   8.343  18.229  0.00  0.00    +0.000 C 
ATOM     21  C   UNL     1       8.732   9.289  18.494  0.00  0.00    +0.000 C 
BRANCH  21  22
ATOM     22  C   UNL     1       9.563  10.412  18.770  0.00  0.00    +0.000 A 
ATOM     23  C   UNL     1       9.829  10.800  20.084  0.00  0.00    +0.000 A 
ATOM     24  C   UNL     1      10.599  11.940  20.322  0.00  0.00    +0.000 A 
ATOM     25  C   UNL     1      11.120  12.687  19.254  0.00  0.00    +0.000 A 
ATOM     26  C   UNL     1      10.875  12.262  17.941  0.00  0.00    +0.000 A 
ATOM     27  C   UNL     1      10.096  11.132  17.702  0.00  0.00    +0.000 A 
BRANCH  25  28
ATOM     28  C   UNL     1      11.908  13.951  19.501  0.00  0.00    +0.000 C 
BRANCH  28  29
ATOM     29  N   UNL     1      11.110  15.200  19.483  0.00  0.00    +0.000 NA
ATOM     30  C   UNL     1       9.780  14.965  20.086  0.00  0.00    +0.000 C 
ATOM     31  C   UNL     1       8.740  16.085  19.950  0.00  0.00    +0.000 C 
ATOM     32  S   UNL     1       8.403  16.484  18.216  0.00  0.00    +0.000 S 
ATOM     33  C   UNL     1      10.122  16.846  17.773  0.00  0.00    +0.000 C 
ATOM     34  C   UNL     1      11.042  15.659  18.077  0.00  0.00    +0.000 C 
ENDBRANCH  28  29
ENDBRANCH  25  28
ENDBRANCH  21  22
ENDBRANCH   4  20
TORSDOF 7
ENDMDL
MODEL 9
REMARK VINA RESULT:      -8.4      0.939      1.462
REMARK  Name = 
REMARK  7 active torsions:
REMARK  status: ('A' for Active; 'I' for Inactive)
REMARK    1  A    between atoms: C_2  and  C_5
REMARK    2  A    between atoms: N_3  and  O_4
REMARK    3  A    between atoms: C_10  and  C_12
REMARK    4  A    between atoms: C_15  and  C_16
REMARK    5  A    between atoms: C_17  and  C_18
REMARK    6  A    between atoms: C_21  and  C_22
REMARK    7  A    between atoms: C_22  and  N_23
REMARK                            x       y       z     vdW  Elec       q    Type
REMARK                         _______ _______ _______ _____ _____    ______ ____
ROOT
ATOM      1  C   UNL     1       5.884   5.069  17.257  0.00  0.00    +0.000 A 
ATOM      2  C   UNL     1       6.823   5.019  18.288  0.00  0.00    +0.000 A 
ATOM      3  C   UNL     1       7.527   6.163  18.646  0.00  0.00    +0.000 A 
ATOM      4  C   UNL     1       7.383   7.325  17.892  0.00  0.00    +0.000 A 
ATOM      5  C   UNL     1       6.526   7.354  16.792  0.00  0.00    +0.000 A 
ATOM      6  C   UNL     1       5.767   6.225  16.476  0.00  0.00    +0.000 A 
ENDROOT
BRANCH   1  12
ATOM      7  C   UNL     1       2.809   4.609  17.921  0.00  0.00    +0.000 C 
ATOM      8  C   UNL     1       1.924   3.691  18.781  0.00  0.00    +0.000 C 
ATOM      9  C   UNL     1       1.900   2.391  17.997  0.00  0.00    +0.000 C 
ATOM     10  C   UNL     1       3.265   2.344  17.325  0.00  0.00    +0.000 C 
ATOM     11  N   UNL     1       3.875   3.649  17.562  0.00  0.00    +0.000 N 
ATOM     12  C   UNL     1       5.082   3.878  16.910  0.00  0.00    +0.000 C 
ATOM     13  O   UNL     1       5.563   3.083  16.105  0.00  0.00    +0.000 OA
BRANCH   7  15
ATOM     14  O   UNL     1       3.668   6.036  19.736  0.00  0.00    +0.000 OA
ATOM     15  C   UNL     1       2.995   5.921  18.711  0.00  0.00    +0.000 C 
ATOM     16  N   UNL     1       2.344   7.008  18.156  0.00  0.00    +0.000 N 
ATOM     17  H   UNL     1       2.228   7.085  17.150  0.00  0.00    +0.000 HD
BRANCH  16  18
ATOM     18  O   UNL     1       2.572   8.237  18.830  0.00  0.00    +0.000 OA
ATOM     19  H   UNL     1       3.553   8.277  18.881  0.00  0.00    +0.000 HD
ENDBRANCH  16  18
ENDBRANCH   7  15
ENDBRANCH   1  12
BRANCH   4  20
ATOM     20  C   UNL     1       8.156   8.470  18.237  0.00  0.00    +0.000 C 
ATOM     21  C   UNL     1       8.792   9.449  18.494  0.00  0.00    +0.000 C 
BRANCH  21  22
ATOM     22  C   UNL     1       9.559  10.598  18.840  0.00  0.00    +0.000 A 
ATOM     23  C   UNL     1       9.613  11.050  20.159  0.00  0.00    +0.000 A 
ATOM     24  C   UNL     1      10.325  12.214  20.458  0.00  0.00    +0.000 A 
ATOM     25  C   UNL     1      10.997  12.920  19.448  0.00  0.00    +0.000 A 
ATOM     26  C   UNL     1      10.963  12.430  18.135  0.00  0.00    +0.000 A 
ATOM     27  C   UNL     1      10.242  11.277  17.834  0.00  0.00    +0.000 A 
BRANCH  25  28
ATOM     28  C   UNL     1      11.725  14.208  19.752  0.00  0.00    +0.000 C 
BRANCH  28  29
ATOM     29  N   UNL     1      10.956  15.443  19.466  0.00  0.00    +0.000 NA
ATOM     30  C   UNL     1       9.761  15.513  20.335  0.00  0.00    +0.000 C 
ATOM     31  C   UNL     1       8.731  16.607  20.024  0.00  0.00    +0.000 C 
ATOM     32  S   UNL     1       8.078  16.459  18.342  0.00  0.00    +0.000 S 
ATOM     33  C   UNL     1       9.687  16.530  17.513  0.00  0.00    +0.000 C 
ATOM     34  C   UNL     1      10.630  15.435  18.022  0.00  0.00    +0.000 C 
ENDBRANCH  28  29
ENDBRANCH  25  28
ENDBRANCH  21  22
ENDBRANCH   4  20
TORSDOF 7
ENDMDL
