MODEL 1
REMARK VINA RESULT:      -6.8      0.000      0.000
REMARK  Name = 
REMARK  14 active torsions:
REMARK  status: ('A' for Active; 'I' for Inactive)
REMARK    1  A    between atoms: C_1  and  C_2
REMARK    2  A    between atoms: C_3  and  C_4
REMARK    3  A    between atoms: N_6  and  C_7
REMARK    4  A    between atoms: N_6  and  C_10
REMARK    5  A    between atoms: C_7  and  C_8
REMARK    6  A    between atoms: C_7  and  C_9
REMARK    7  A    between atoms: C_10  and  C_11
REMARK    8  A    between atoms: C_10  and  C_12
REMARK    9  A    between atoms: C_14  and  C_15
REMARK   10  A    between atoms: C_15  and  C_16
REMARK   11  A    between atoms: N_18  and  C_19
REMARK   12  A    between atoms: C_19  and  C_20
REMARK   13  A    between atoms: N_28  and  C_29
REMARK   14  A    between atoms: C_29  and  C_30
REMARK                            x       y       z     vdW  Elec       q    Type
REMARK                         _______ _______ _______ _____ _____    ______ ____
ROOT
ATOM      1  C   UNL     1      -0.739  14.485  20.039  0.00  0.00    +0.000 C 
ATOM      2  C   UNL     1      -0.583  13.024  19.641  0.00  0.00    +0.000 C 
ATOM      3  C   UNL     1      -1.489  12.031  19.914  0.00  0.00    +0.000 C 
ATOM      4  C   UNL     1      -1.219  10.719  19.233  0.00  0.00    +0.000 C 
ATOM      5  C   UNL     1       0.257  10.325  19.314  0.00  0.00    +0.000 C 
ATOM      6  C   UNL     1       1.111  11.439  18.759  0.00  0.00    +0.000 C 
ATOM      7  O   UNL     1       2.210  11.184  18.269  0.00  0.00    +0.000 OA
ATOM      8  N   UNL     1       0.612  12.735  18.913  0.00  0.00    +0.000 N 
ENDROOT
BRANCH   3   9
ATOM      9  C   UNL     1      -2.834  12.356  20.562  0.00  0.00    +0.000 C 
ATOM     10  O   UNL     1      -3.801  12.255  19.796  0.00  0.00    +0.000 OA
ATOM     11  N   UNL     1      -3.061  12.757  21.901  0.00  0.00    +0.000 N 
BRANCH  11  12
ATOM     12  C   UNL     1      -2.197  12.441  23.082  0.00  0.00    +0.000 C 
ATOM     13  C   UNL     1      -1.442  11.086  23.057  0.00  0.00    +0.000 C 
ATOM     14  C   UNL     1      -1.126  13.517  23.306  0.00  0.00    +0.000 C 
ENDBRANCH  11  12
BRANCH  11  15
ATOM     15  C   UNL     1      -4.348  13.469  22.227  0.00  0.00    +0.000 C 
ATOM     16  C   UNL     1      -4.867  13.045  23.610  0.00  0.00    +0.000 C 
ATOM     17  C   UNL     1      -4.399  14.999  22.145  0.00  0.00    +0.000 C 
ENDBRANCH  11  15
ENDBRANCH   3   9
BRANCH   5  18
ATOM     18  C   UNL     1       0.735   9.952  20.719  0.00  0.00    +0.000 C 
BRANCH  18  19
ATOM     19  C   UNL     1       0.457   8.488  20.977  0.00  0.00    +0.000 C 
ATOM     20  O   UNL     1      -0.505   8.094  21.629  0.00  0.00    +0.000 OA
ATOM     21  N   UNL     1       1.420   7.649  20.476  0.00  0.00    +0.000 N 
ATOM     22  H   UNL     1       2.152   8.017  19.882  0.00  0.00    +0.000 HD
BRANCH  21  23
ATOM     23  C   UNL     1       1.444   6.245  20.819  0.00  0.00    +0.000 C 
BRANCH  23  24
ATOM     24  C   UNL     1       2.626   5.487  20.215  0.00  0.00    +0.000 C 
ATOM     25  C   UNL     1       2.591   3.996  20.587  0.00  0.00    +0.000 C 
ATOM     26  C   UNL     1       1.483   3.223  19.872  0.00  0.00    +0.000 C 
ATOM     27  C   UNL     1       1.536   3.426  18.362  0.00  0.00    +0.000 C 
ATOM     28  C   UNL     1       1.516   4.903  17.983  0.00  0.00    +0.000 C 
ATOM     29  C   UNL     1       2.628   5.669  18.683  0.00  0.00    +0.000 C 
ENDBRANCH  23  24
ENDBRANCH  21  23
ENDBRANCH  18  19
ENDBRANCH   5  18
BRANCH   8  30
ATOM     30  C   UNL     1       1.384  13.799  18.212  0.00  0.00    +0.000 C 
BRANCH  30  31
ATOM     31  C   UNL     1       2.336  14.544  19.136  0.00  0.00    +0.000 A 
ATOM     32  C   UNL     1       2.627  15.903  18.921  0.00  0.00    +0.000 A 
ATOM     33  C   UNL     1       3.607  16.548  19.678  0.00  0.00    +0.000 A 
ATOM     34  C   UNL     1       4.270  15.852  20.678  0.00  0.00    +0.000 A 
ATOM     35  F   UNL     1       5.245  16.456  21.371  0.00  0.00    +0.000 F 
ATOM     36  C   UNL     1       3.940  14.534  20.967  0.00  0.00    +0.000 A 
ATOM     37  C   UNL     1       2.965  13.883  20.206  0.00  0.00    +0.000 A 
ENDBRANCH  30  31
ENDBRANCH   8  30
TORSDOF 9
ENDMDL
MODEL 2
REMARK VINA RESULT:      -6.8      0.905      1.381
REMARK  Name = 
REMARK  14 active torsions:
REMARK  status: ('A' for Active; 'I' for Inactive)
REMARK    1  A    between atoms: C_1  and  C_2
REMARK    2  A    between atoms: C_3  and  C_4
REMARK    3  A    between atoms: N_6  and  C_7
REMARK    4  A    between atoms: N_6  and  C_10
REMARK    5  A    between atoms: C_7  and  C_8
REMARK    6  A    between atoms: C_7  and  C_9
REMARK    7  A    between atoms: C_10  and  C_11
REMARK    8  A    between atoms: C_10  and  C_12
REMARK    9  A    between atoms: C_14  and  C_15
REMARK   10  A    between atoms: C_15  and  C_16
REMARK   11  A    between atoms: N_18  and  C_19
REMARK   12  A    between atoms: C_19  and  C_20
REMARK   13  A    between atoms: N_28  and  C_29
REMARK   14  A    between atoms: C_29  and  C_30
REMARK                            x       y       z     vdW  Elec       q    Type
REMARK                         _______ _______ _______ _____ _____    ______ ____
ROOT
ATOM      1  C   UNL     1      -0.713  14.690  19.917  0.00  0.00    +0.000 C 
ATOM      2  C   UNL     1      -0.601  13.205  19.604  0.00  0.00    +0.000 C 
ATOM      3  C   UNL     1      -1.537  12.257  19.934  0.00  0.00    +0.000 C 
ATOM      4  C   UNL     1      -1.308  10.900  19.331  0.00  0.00    +0.000 C 
ATOM      5  C   UNL     1       0.156  10.467  19.435  0.00  0.00    +0.000 C 
ATOM      6  C   UNL     1       1.043  11.520  18.818  0.00  0.00    +0.000 C 
ATOM      7  O   UNL     1       2.133  11.204  18.345  0.00  0.00    +0.000 OA
ATOM      8  N   UNL     1       0.583  12.837  18.896  0.00  0.00    +0.000 N 
ENDROOT
BRANCH   3   9
ATOM      9  C   UNL     1      -2.871  12.660  20.561  0.00  0.00    +0.000 C 
ATOM     10  O   UNL     1      -3.829  12.620  19.777  0.00  0.00    +0.000 OA
ATOM     11  N   UNL     1      -3.097  13.069  21.898  0.00  0.00    +0.000 N 
BRANCH  11  12
ATOM     12  C   UNL     1      -2.274  12.696  23.091  0.00  0.00    +0.000 C 
ATOM     13  C   UNL     1      -1.687  11.261  23.119  0.00  0.00    +0.000 C 
ATOM     14  C   UNL     1      -1.081  13.644  23.277  0.00  0.00    +0.000 C 
ENDBRANCH  11  12
BRANCH  11  15
ATOM     15  C   UNL     1      -4.344  13.856  22.205  0.00  0.00    +0.000 C 
ATOM     16  C   UNL     1      -5.001  13.347  23.498  0.00  0.00    +0.000 C 
ATOM     17  C   UNL     1      -4.265  15.385  22.278  0.00  0.00    +0.000 C 
ENDBRANCH  11  15
ENDBRANCH   3   9
BRANCH   5  18
ATOM     18  C   UNL     1       0.623  10.162  20.861  0.00  0.00    +0.000 C 
BRANCH  18  19
ATOM     19  C   UNL     1       1.257   8.790  20.904  0.00  0.00    +0.000 C 
ATOM     20  O   UNL     1       1.515   8.204  21.951  0.00  0.00    +0.000 OA
ATOM     21  N   UNL     1       1.581   8.295  19.666  0.00  0.00    +0.000 N 
ATOM     22  H   UNL     1       1.280   8.782  18.831  0.00  0.00    +0.000 HD
BRANCH  21  23
ATOM     23  C   UNL     1       2.396   7.109  19.522  0.00  0.00    +0.000 C 
BRANCH  23  24
ATOM     24  C   UNL     1       2.549   6.643  18.074  0.00  0.00    +0.000 C 
ATOM     25  C   UNL     1       4.009   6.736  17.602  0.00  0.00    +0.000 C 
ATOM     26  C   UNL     1       4.915   5.683  18.238  0.00  0.00    +0.000 C 
ATOM     27  C   UNL     1       4.355   4.275  18.064  0.00  0.00    +0.000 C 
ATOM     28  C   UNL     1       2.924   4.162  18.580  0.00  0.00    +0.000 C 
ATOM     29  C   UNL     1       2.020   5.201  17.937  0.00  0.00    +0.000 C 
ENDBRANCH  23  24
ENDBRANCH  21  23
ENDBRANCH  18  19
ENDBRANCH   5  18
BRANCH   8  30
ATOM     30  C   UNL     1       1.387  13.836  18.134  0.00  0.00    +0.000 C 
BRANCH  30  31
ATOM     31  C   UNL     1       2.352  14.613  19.018  0.00  0.00    +0.000 A 
ATOM     32  C   UNL     1       2.655  15.958  18.737  0.00  0.00    +0.000 A 
ATOM     33  C   UNL     1       3.646  16.628  19.457  0.00  0.00    +0.000 A 
ATOM     34  C   UNL     1       4.309  15.973  20.485  0.00  0.00    +0.000 A 
ATOM     35  F   UNL     1       5.294  16.599  21.142  0.00  0.00    +0.000 F 
ATOM     36  C   UNL     1       3.967  14.673  20.837  0.00  0.00    +0.000 A 
ATOM     37  C   UNL     1       2.981  13.997  20.113  0.00  0.00    +0.000 A 
ENDBRANCH  30  31
ENDBRANCH   8  30
TORSDOF 9
ENDMDL
MODEL 3
REMARK VINA RESULT:      -6.7      3.196      5.968
REMARK  Name = 
REMARK  14 active torsions:
REMARK  status: ('A' for Active; 'I' for Inactive)
REMARK    1  A    between atoms: C_1  and  C_2
REMARK    2  A    between atoms: C_3  and  C_4
REMARK    3  A    between atoms: N_6  and  C_7
REMARK    4  A    between atoms: N_6  and  C_10
REMARK    5  A    between atoms: C_7  and  C_8
REMARK    6  A    between atoms: C_7  and  C_9
REMARK    7  A    between atoms: C_10  and  C_11
REMARK    8  A    between atoms: C_10  and  C_12
REMARK    9  A    between atoms: C_14  and  C_15
REMARK   10  A    between atoms: C_15  and  C_16
REMARK   11  A    between atoms: N_18  and  C_19
REMARK   12  A    between atoms: C_19  and  C_20
REMARK   13  A    between atoms: N_28  and  C_29
REMARK   14  A    between atoms: C_29  and  C_30
REMARK                            x       y       z     vdW  Elec       q    Type
REMARK                         _______ _______ _______ _____ _____    ______ ____
ROOT
ATOM      1  C   UNL     1      -0.440  13.509  18.039  0.00  0.00    +0.000 C 
ATOM      2  C   UNL     1       0.126  12.473  19.001  0.00  0.00    +0.000 C 
ATOM      3  C   UNL     1       1.409  12.465  19.485  0.00  0.00    +0.000 C 
ATOM      4  C   UNL     1       1.668  11.473  20.584  0.00  0.00    +0.000 C 
ATOM      5  C   UNL     1       1.055  10.105  20.276  0.00  0.00    +0.000 C 
ATOM      6  C   UNL     1      -0.418  10.262  19.987  0.00  0.00    +0.000 C 
ATOM      7  O   UNL     1      -1.189   9.328  20.203  0.00  0.00    +0.000 OA
ATOM      8  N   UNL     1      -0.808  11.471  19.405  0.00  0.00    +0.000 N 
ENDROOT
BRANCH   3   9
ATOM      9  C   UNL     1       2.370  13.611  19.174  0.00  0.00    +0.000 C 
ATOM     10  O   UNL     1       3.158  13.372  18.249  0.00  0.00    +0.000 OA
ATOM     11  N   UNL     1       2.443  14.866  19.827  0.00  0.00    +0.000 N 
BRANCH  11  12
ATOM     12  C   UNL     1       1.326  15.558  20.545  0.00  0.00    +0.000 C 
ATOM     13  C   UNL     1       1.102  15.177  22.031  0.00  0.00    +0.000 C 
ATOM     14  C   UNL     1       1.496  17.084  20.521  0.00  0.00    +0.000 C 
ENDBRANCH  11  12
BRANCH  11  15
ATOM     15  C   UNL     1       3.716  15.662  19.709  0.00  0.00    +0.000 C 
ATOM     16  C   UNL     1       4.850  14.992  20.500  0.00  0.00    +0.000 C 
ATOM     17  C   UNL     1       4.249  16.018  18.317  0.00  0.00    +0.000 C 
ENDBRANCH  11  15
ENDBRANCH   3   9
BRANCH   5  18
ATOM     18  C   UNL     1       1.734   9.353  19.129  0.00  0.00    +0.000 C 
BRANCH  18  19
ATOM     19  C   UNL     1       1.932   7.906  19.518  0.00  0.00    +0.000 C 
ATOM     20  O   UNL     1       1.748   7.489  20.658  0.00  0.00    +0.000 OA
ATOM     21  N   UNL     1       2.406   7.121  18.498  0.00  0.00    +0.000 N 
ATOM     22  H   UNL     1       2.469   7.495  17.560  0.00  0.00    +0.000 HD
BRANCH  21  23
ATOM     23  C   UNL     1       2.869   5.773  18.741  0.00  0.00    +0.000 C 
BRANCH  23  24
ATOM     24  C   UNL     1       1.927   4.695  18.206  0.00  0.00    +0.000 C 
ATOM     25  C   UNL     1       2.660   3.712  17.281  0.00  0.00    +0.000 C 
ATOM     26  C   UNL     1       3.612   2.778  18.028  0.00  0.00    +0.000 C 
ATOM     27  C   UNL     1       2.913   2.058  19.176  0.00  0.00    +0.000 C 
ATOM     28  C   UNL     1       2.228   3.033  20.129  0.00  0.00    +0.000 C 
ATOM     29  C   UNL     1       1.270   3.951  19.387  0.00  0.00    +0.000 C 
ENDBRANCH  23  24
ENDBRANCH  21  23
ENDBRANCH  18  19
ENDBRANCH   5  18
BRANCH   8  30
ATOM     30  C   UNL     1      -2.280  11.672  19.286  0.00  0.00    +0.000 C 
BRANCH  30  31
ATOM     31  C   UNL     1      -2.840  11.164  17.965  0.00  0.00    +0.000 A 
ATOM     32  C   UNL     1      -2.100  10.270  17.171  0.00  0.00    +0.000 A 
ATOM     33  C   UNL     1      -2.547   9.916  15.896  0.00  0.00    +0.000 A 
ATOM     34  C   UNL     1      -3.751  10.419  15.426  0.00  0.00    +0.000 A 
ATOM     35  F   UNL     1      -4.155  10.120  14.184  0.00  0.00    +0.000 F 
ATOM     36  C   UNL     1      -4.542  11.236  16.226  0.00  0.00    +0.000 A 
ATOM     37  C   UNL     1      -4.093  11.598  17.500  0.00  0.00    +0.000 A 
ENDBRANCH  30  31
ENDBRANCH   8  30
TORSDOF 9
ENDMDL
MODEL 4
REMARK VINA RESULT:      -6.6      3.210      5.858
REMARK  Name = 
REMARK  14 active torsions:
REMARK  status: ('A' for Active; 'I' for Inactive)
REMARK    1  A    between atoms: C_1  and  C_2
REMARK    2  A    between atoms: C_3  and  C_4
REMARK    3  A    between atoms: N_6  and  C_7
REMARK    4  A    between atoms: N_6  and  C_10
REMARK    5  A    between atoms: C_7  and  C_8
REMARK    6  A    between atoms: C_7  and  C_9
REMARK    7  A    between atoms: C_10  and  C_11
REMARK    8  A    between atoms: C_10  and  C_12
REMARK    9  A    between atoms: C_14  and  C_15
REMARK   10  A    between atoms: C_15  and  C_16
REMARK   11  A    between atoms: N_18  and  C_19
REMARK   12  A    between atoms: C_19  and  C_20
REMARK   13  A    between atoms: N_28  and  C_29
REMARK   14  A    between atoms: C_29  and  C_30
REMARK                            x       y       z     vdW  Elec       q    Type
REMARK                         _______ _______ _______ _____ _____    ______ ____
ROOT
ATOM      1  C   UNL     1      -0.448  13.400  18.015  0.00  0.00    +0.000 C 
ATOM      2  C   UNL     1       0.091  12.400  19.028  0.00  0.00    +0.000 C 
ATOM      3  C   UNL     1       1.357  12.417  19.557  0.00  0.00    +0.000 C 
ATOM      4  C   UNL     1       1.584  11.463  20.695  0.00  0.00    +0.000 C 
ATOM      5  C   UNL     1       0.992  10.081  20.410  0.00  0.00    +0.000 C 
ATOM      6  C   UNL     1      -0.471  10.216  20.065  0.00  0.00    +0.000 C 
ATOM      7  O   UNL     1      -1.242   9.284  20.284  0.00  0.00    +0.000 OA
ATOM      8  N   UNL     1      -0.849  11.403  19.432  0.00  0.00    +0.000 N 
ENDROOT
BRANCH   3   9
ATOM      9  C   UNL     1       2.319  13.562  19.243  0.00  0.00    +0.000 C 
ATOM     10  O   UNL     1       3.033  13.362  18.251  0.00  0.00    +0.000 OA
ATOM     11  N   UNL     1       2.468  14.774  19.960  0.00  0.00    +0.000 N 
BRANCH  11  12
ATOM     12  C   UNL     1       1.423  15.444  20.796  0.00  0.00    +0.000 C 
ATOM     13  C   UNL     1       0.119  15.876  20.076  0.00  0.00    +0.000 C 
ATOM     14  C   UNL     1       0.984  14.563  21.973  0.00  0.00    +0.000 C 
ENDBRANCH  11  12
BRANCH  11  15
ATOM     15  C   UNL     1       3.748  15.551  19.795  0.00  0.00    +0.000 C 
ATOM     16  C   UNL     1       3.498  17.054  19.998  0.00  0.00    +0.000 C 
ATOM     17  C   UNL     1       4.977  15.154  20.620  0.00  0.00    +0.000 C 
ENDBRANCH  11  15
ENDBRANCH   3   9
BRANCH   5  18
ATOM     18  C   UNL     1       1.716   9.299  19.311  0.00  0.00    +0.000 C 
BRANCH  18  19
ATOM     19  C   UNL     1       1.924   7.870  19.760  0.00  0.00    +0.000 C 
ATOM     20  O   UNL     1       1.557   7.453  20.855  0.00  0.00    +0.000 OA
ATOM     21  N   UNL     1       2.623   7.107  18.859  0.00  0.00    +0.000 N 
ATOM     22  H   UNL     1       2.837   7.476  17.942  0.00  0.00    +0.000 HD
BRANCH  21  23
ATOM     23  C   UNL     1       3.113   5.793  19.210  0.00  0.00    +0.000 C 
BRANCH  23  24
ATOM     24  C   UNL     1       3.185   4.829  18.026  0.00  0.00    +0.000 C 
ATOM     25  C   UNL     1       4.108   3.638  18.323  0.00  0.00    +0.000 C 
ATOM     26  C   UNL     1       3.516   2.654  19.332  0.00  0.00    +0.000 C 
ATOM     27  C   UNL     1       2.119   2.198  18.924  0.00  0.00    +0.000 C 
ATOM     28  C   UNL     1       1.182   3.376  18.680  0.00  0.00    +0.000 C 
ATOM     29  C   UNL     1       1.765   4.346  17.666  0.00  0.00    +0.000 C 
ENDBRANCH  23  24
ENDBRANCH  21  23
ENDBRANCH  18  19
ENDBRANCH   5  18
BRANCH   8  30
ATOM     30  C   UNL     1      -2.317  11.588  19.255  0.00  0.00    +0.000 C 
BRANCH  30  31
ATOM     31  C   UNL     1      -2.797  11.204  17.863  0.00  0.00    +0.000 A 
ATOM     32  C   UNL     1      -4.003  11.719  17.354  0.00  0.00    +0.000 A 
ATOM     33  C   UNL     1      -4.516  11.257  16.140  0.00  0.00    +0.000 A 
ATOM     34  C   UNL     1      -3.809  10.311  15.411  0.00  0.00    +0.000 A 
ATOM     35  F   UNL     1      -4.324   9.831  14.272  0.00  0.00    +0.000 F 
ATOM     36  C   UNL     1      -2.573   9.851  15.852  0.00  0.00    +0.000 A 
ATOM     37  C   UNL     1      -2.061  10.306  17.070  0.00  0.00    +0.000 A 
ENDBRANCH  30  31
ENDBRANCH   8  30
TORSDOF 9
ENDMDL
MODEL 5
REMARK VINA RESULT:      -6.6      2.946      6.888
REMARK  Name = 
REMARK  14 active torsions:
REMARK  status: ('A' for Active; 'I' for Inactive)
REMARK    1  A    between atoms: C_1  and  C_2
REMARK    2  A    between atoms: C_3  and  C_4
REMARK    3  A    between atoms: N_6  and  C_7
REMARK    4  A    between atoms: N_6  and  C_10
REMARK    5  A    between atoms: C_7  and  C_8
REMARK    6  A    between atoms: C_7  and  C_9
REMARK    7  A    between atoms: C_10  and  C_11
REMARK    8  A    between atoms: C_10  and  C_12
REMARK    9  A    between atoms: C_14  and  C_15
REMARK   10  A    between atoms: C_15  and  C_16
REMARK   11  A    between atoms: N_18  and  C_19
REMARK   12  A    between atoms: C_19  and  C_20
REMARK   13  A    between atoms: N_28  and  C_29
REMARK   14  A    between atoms: C_29  and  C_30
REMARK                            x       y       z     vdW  Elec       q    Type
REMARK                         _______ _______ _______ _____ _____    ______ ____
ROOT
ATOM      1  C   UNL     1       2.504  12.689  17.960  0.00  0.00    +0.000 C 
ATOM      2  C   UNL     1       2.007  13.832  18.834  0.00  0.00    +0.000 C 
ATOM      3  C   UNL     1       1.158  13.695  19.903  0.00  0.00    +0.000 C 
ATOM      4  C   UNL     1       0.984  14.931  20.739  0.00  0.00    +0.000 C 
ATOM      5  C   UNL     1       0.788  16.181  19.879  0.00  0.00    +0.000 C 
ATOM      6  C   UNL     1       1.931  16.312  18.903  0.00  0.00    +0.000 C 
ATOM      7  O   UNL     1       2.257  17.421  18.484  0.00  0.00    +0.000 OA
ATOM      8  N   UNL     1       2.514  15.117  18.471  0.00  0.00    +0.000 N 
ENDROOT
BRANCH   3   9
ATOM      9  C   UNL     1       0.728  12.311  20.387  0.00  0.00    +0.000 C 
ATOM     10  O   UNL     1       1.196  11.994  21.489  0.00  0.00    +0.000 OA
ATOM     11  N   UNL     1      -0.114  11.394  19.712  0.00  0.00    +0.000 N 
BRANCH  11  12
ATOM     12  C   UNL     1      -1.171  11.734  18.708  0.00  0.00    +0.000 C 
ATOM     13  C   UNL     1      -1.522  10.644  17.662  0.00  0.00    +0.000 C 
ATOM     14  C   UNL     1      -2.496  12.113  19.383  0.00  0.00    +0.000 C 
ENDBRANCH  11  12
BRANCH  11  15
ATOM     15  C   UNL     1      -0.051   9.941  20.105  0.00  0.00    +0.000 C 
ATOM     16  C   UNL     1       1.264   9.307  19.622  0.00  0.00    +0.000 C 
ATOM     17  C   UNL     1      -0.259   9.553  21.572  0.00  0.00    +0.000 C 
ENDBRANCH  11  15
ENDBRANCH   3   9
BRANCH   5  18
ATOM     18  C   UNL     1      -0.546  16.227  19.128  0.00  0.00    +0.000 C 
BRANCH  18  19
ATOM     19  C   UNL     1      -1.676  16.418  20.114  0.00  0.00    +0.000 C 
ATOM     20  O   UNL     1      -1.957  17.506  20.607  0.00  0.00    +0.000 OA
ATOM     21  N   UNL     1      -2.308  15.250  20.460  0.00  0.00    +0.000 N 
ATOM     22  H   UNL     1      -2.089  14.392  19.970  0.00  0.00    +0.000 HD
BRANCH  21  23
ATOM     23  C   UNL     1      -3.252  15.203  21.553  0.00  0.00    +0.000 C 
BRANCH  23  24
ATOM     24  C   UNL     1      -2.601  14.975  22.917  0.00  0.00    +0.000 C 
ATOM     25  C   UNL     1      -3.648  14.914  24.040  0.00  0.00    +0.000 C 
ATOM     26  C   UNL     1      -4.485  13.635  24.014  0.00  0.00    +0.000 C 
ATOM     27  C   UNL     1      -3.610  12.387  23.989  0.00  0.00    +0.000 C 
ATOM     28  C   UNL     1      -2.604  12.416  22.843  0.00  0.00    +0.000 C 
ATOM     29  C   UNL     1      -1.762  13.681  22.878  0.00  0.00    +0.000 C 
ENDBRANCH  23  24
ENDBRANCH  21  23
ENDBRANCH  18  19
ENDBRANCH   5  18
BRANCH   8  30
ATOM     30  C   UNL     1       3.745  15.273  17.645  0.00  0.00    +0.000 C 
BRANCH  30  31
ATOM     31  C   UNL     1       5.021  15.033  18.438  0.00  0.00    +0.000 A 
ATOM     32  C   UNL     1       5.062  15.280  19.822  0.00  0.00    +0.000 A 
ATOM     33  C   UNL     1       6.267  15.199  20.523  0.00  0.00    +0.000 A 
ATOM     34  C   UNL     1       7.426  14.832  19.855  0.00  0.00    +0.000 A 
ATOM     35  F   UNL     1       8.591  14.802  20.516  0.00  0.00    +0.000 F 
ATOM     36  C   UNL     1       7.395  14.499  18.506  0.00  0.00    +0.000 A 
ATOM     37  C   UNL     1       6.192  14.587  17.800  0.00  0.00    +0.000 A 
ENDBRANCH  30  31
ENDBRANCH   8  30
TORSDOF 9
ENDMDL
MODEL 6
REMARK VINA RESULT:      -6.5      2.405      5.186
REMARK  Name = 
REMARK  14 active torsions:
REMARK  status: ('A' for Active; 'I' for Inactive)
REMARK    1  A    between atoms: C_1  and  C_2
REMARK    2  A    between atoms: C_3  and  C_4
REMARK    3  A    between atoms: N_6  and  C_7
REMARK    4  A    between atoms: N_6  and  C_10
REMARK    5  A    between atoms: C_7  and  C_8
REMARK    6  A    between atoms: C_7  and  C_9
REMARK    7  A    between atoms: C_10  and  C_11
REMARK    8  A    between atoms: C_10  and  C_12
REMARK    9  A    between atoms: C_14  and  C_15
REMARK   10  A    between atoms: C_15  and  C_16
REMARK   11  A    between atoms: N_18  and  C_19
REMARK   12  A    between atoms: C_19  and  C_20
REMARK   13  A    between atoms: N_28  and  C_29
REMARK   14  A    between atoms: C_29  and  C_30
REMARK                            x       y       z     vdW  Elec       q    Type
REMARK                         _______ _______ _______ _____ _____    ______ ____
ROOT
ATOM      1  C   UNL     1      -2.303  14.007  20.345  0.00  0.00    +0.000 C 
ATOM      2  C   UNL     1      -1.158  13.122  20.816  0.00  0.00    +0.000 C 
ATOM      3  C   UNL     1       0.117  13.146  20.310  0.00  0.00    +0.000 C 
ATOM      4  C   UNL     1       1.122  12.337  21.080  0.00  0.00    +0.000 C 
ATOM      5  C   UNL     1       0.576  10.961  21.465  0.00  0.00    +0.000 C 
ATOM      6  C   UNL     1      -0.722  11.122  22.219  0.00  0.00    +0.000 C 
ATOM      7  O   UNL     1      -1.072  10.265  23.028  0.00  0.00    +0.000 OA
ATOM      8  N   UNL     1      -1.498  12.234  21.881  0.00  0.00    +0.000 N 
ENDROOT
BRANCH   3   9
ATOM      9  C   UNL     1       0.527  14.191  19.274  0.00  0.00    +0.000 C 
ATOM     10  O   UNL     1       0.292  13.861  18.104  0.00  0.00    +0.000 OA
ATOM     11  N   UNL     1       1.136  15.445  19.521  0.00  0.00    +0.000 N 
BRANCH  11  12
ATOM     12  C   UNL     1       1.025  16.254  20.776  0.00  0.00    +0.000 C 
ATOM     13  C   UNL     1      -0.403  16.653  21.230  0.00  0.00    +0.000 C 
ATOM     14  C   UNL     1       1.664  15.536  21.973  0.00  0.00    +0.000 C 
ENDBRANCH  11  12
BRANCH  11  15
ATOM     15  C   UNL     1       1.877  16.116  18.394  0.00  0.00    +0.000 C 
ATOM     16  C   UNL     1       1.140  17.388  17.944  0.00  0.00    +0.000 C 
ATOM     17  C   UNL     1       3.360  16.460  18.572  0.00  0.00    +0.000 C 
ENDBRANCH  11  15
ENDBRANCH   3   9
BRANCH   5  18
ATOM     18  C   UNL     1       0.377  10.008  20.284  0.00  0.00    +0.000 C 
BRANCH  18  19
ATOM     19  C   UNL     1       1.084   8.701  20.563  0.00  0.00    +0.000 C 
ATOM     20  O   UNL     1       1.236   8.251  21.695  0.00  0.00    +0.000 OA
ATOM     21  N   UNL     1       1.602   8.105  19.441  0.00  0.00    +0.000 N 
ATOM     22  H   UNL     1       1.385   8.476  18.525  0.00  0.00    +0.000 HD
BRANCH  21  23
ATOM     23  C   UNL     1       2.500   6.977  19.538  0.00  0.00    +0.000 C 
BRANCH  23  24
ATOM     24  C   UNL     1       2.863   6.364  18.185  0.00  0.00    +0.000 C 
ATOM     25  C   UNL     1       4.373   6.110  18.066  0.00  0.00    +0.000 C 
ATOM     26  C   UNL     1       4.860   4.952  18.936  0.00  0.00    +0.000 C 
ATOM     27  C   UNL     1       4.054   3.681  18.688  0.00  0.00    +0.000 C 
ATOM     28  C   UNL     1       2.556   3.913  18.858  0.00  0.00    +0.000 C 
ATOM     29  C   UNL     1       2.070   5.056  17.981  0.00  0.00    +0.000 C 
ENDBRANCH  23  24
ENDBRANCH  21  23
ENDBRANCH  18  19
ENDBRANCH   5  18
BRANCH   8  30
ATOM     30  C   UNL     1      -2.686  12.466  22.751  0.00  0.00    +0.000 C 
BRANCH  30  31
ATOM     31  C   UNL     1      -2.579  13.748  23.565  0.00  0.00    +0.000 A 
ATOM     32  C   UNL     1      -1.322  14.261  23.932  0.00  0.00    +0.000 A 
ATOM     33  C   UNL     1      -1.226  15.353  24.797  0.00  0.00    +0.000 A 
ATOM     34  C   UNL     1      -2.381  15.962  25.266  0.00  0.00    +0.000 A 
ATOM     35  F   UNL     1      -2.289  16.977  26.134  0.00  0.00    +0.000 F 
ATOM     36  C   UNL     1      -3.634  15.527  24.849  0.00  0.00    +0.000 A 
ATOM     37  C   UNL     1      -3.733  14.429  23.989  0.00  0.00    +0.000 A 
ENDBRANCH  30  31
ENDBRANCH   8  30
TORSDOF 9
ENDMDL
MODEL 7
REMARK VINA RESULT:      -6.3      2.577      5.786
REMARK  Name = 
REMARK  14 active torsions:
REMARK  status: ('A' for Active; 'I' for Inactive)
REMARK    1  A    between atoms: C_1  and  C_2
REMARK    2  A    between atoms: C_3  and  C_4
REMARK    3  A    between atoms: N_6  and  C_7
REMARK    4  A    between atoms: N_6  and  C_10
REMARK    5  A    between atoms: C_7  and  C_8
REMARK    6  A    between atoms: C_7  and  C_9
REMARK    7  A    between atoms: C_10  and  C_11
REMARK    8  A    between atoms: C_10  and  C_12
REMARK    9  A    between atoms: C_14  and  C_15
REMARK   10  A    between atoms: C_15  and  C_16
REMARK   11  A    between atoms: N_18  and  C_19
REMARK   12  A    between atoms: C_19  and  C_20
REMARK   13  A    between atoms: N_28  and  C_29
REMARK   14  A    between atoms: C_29  and  C_30
REMARK                            x       y       z     vdW  Elec       q    Type
REMARK                         _______ _______ _______ _____ _____    ______ ____
ROOT
ATOM      1  C   UNL     1      -0.123  14.949  19.742  0.00  0.00    +0.000 C 
ATOM      2  C   UNL     1       0.278  13.505  20.010  0.00  0.00    +0.000 C 
ATOM      3  C   UNL     1       1.513  13.097  20.446  0.00  0.00    +0.000 C 
ATOM      4  C   UNL     1       1.601  11.652  20.845  0.00  0.00    +0.000 C 
ATOM      5  C   UNL     1       0.908  10.736  19.834  0.00  0.00    +0.000 C 
ATOM      6  C   UNL     1      -0.520  11.185  19.637  0.00  0.00    +0.000 C 
ATOM      7  O   UNL     1      -1.378  10.372  19.298  0.00  0.00    +0.000 OA
ATOM      8  N   UNL     1      -0.763  12.553  19.788  0.00  0.00    +0.000 N 
ENDROOT
BRANCH   3   9
ATOM      9  C   UNL     1       2.585  14.119  20.825  0.00  0.00    +0.000 C 
ATOM     10  O   UNL     1       2.817  14.179  22.040  0.00  0.00    +0.000 OA
ATOM     11  N   UNL     1       3.298  14.973  19.949  0.00  0.00    +0.000 N 
BRANCH  11  12
ATOM     12  C   UNL     1       3.581  14.723  18.501  0.00  0.00    +0.000 C 
ATOM     13  C   UNL     1       3.091  15.796  17.494  0.00  0.00    +0.000 C 
ATOM     14  C   UNL     1       5.083  14.551  18.237  0.00  0.00    +0.000 C 
ENDBRANCH  11  12
BRANCH  11  15
ATOM     15  C   UNL     1       3.950  16.204  20.523  0.00  0.00    +0.000 C 
ATOM     16  C   UNL     1       2.888  17.208  20.999  0.00  0.00    +0.000 C 
ATOM     17  C   UNL     1       4.993  16.048  21.635  0.00  0.00    +0.000 C 
ENDBRANCH  11  15
ENDBRANCH   3   9
BRANCH   5  18
ATOM     18  C   UNL     1       1.615  10.640  18.480  0.00  0.00    +0.000 C 
BRANCH  18  19
ATOM     19  C   UNL     1       1.507   9.228  17.950  0.00  0.00    +0.000 C 
ATOM     20  O   UNL     1       0.608   8.863  17.198  0.00  0.00    +0.000 OA
ATOM     21  N   UNL     1       2.463   8.379  18.447  0.00  0.00    +0.000 N 
ATOM     22  H   UNL     1       3.224   8.746  19.004  0.00  0.00    +0.000 HD
BRANCH  21  23
ATOM     23  C   UNL     1       2.381   6.952  18.236  0.00  0.00    +0.000 C 
BRANCH  23  24
ATOM     24  C   UNL     1       3.147   6.133  19.276  0.00  0.00    +0.000 C 
ATOM     25  C   UNL     1       2.196   5.469  20.284  0.00  0.00    +0.000 C 
ATOM     26  C   UNL     1       1.395   4.313  19.684  0.00  0.00    +0.000 C 
ATOM     27  C   UNL     1       2.301   3.291  19.005  0.00  0.00    +0.000 C 
ATOM     28  C   UNL     1       3.211   3.937  17.964  0.00  0.00    +0.000 C 
ATOM     29  C   UNL     1       4.017   5.077  18.565  0.00  0.00    +0.000 C 
ENDBRANCH  23  24
ENDBRANCH  21  23
ENDBRANCH  18  19
ENDBRANCH   5  18
BRANCH   8  30
ATOM     30  C   UNL     1      -2.199  12.949  19.758  0.00  0.00    +0.000 C 
BRANCH  30  31
ATOM     31  C   UNL     1      -2.896  12.744  21.096  0.00  0.00    +0.000 A 
ATOM     32  C   UNL     1      -4.271  13.005  21.234  0.00  0.00    +0.000 A 
ATOM     33  C   UNL     1      -4.879  12.955  22.490  0.00  0.00    +0.000 A 
ATOM     34  C   UNL     1      -4.129  12.607  23.604  0.00  0.00    +0.000 A 
ATOM     35  F   UNL     1      -4.701  12.609  24.816  0.00  0.00    +0.000 F 
ATOM     36  C   UNL     1      -2.789  12.262  23.479  0.00  0.00    +0.000 A 
ATOM     37  C   UNL     1      -2.175  12.317  22.225  0.00  0.00    +0.000 A 
ENDBRANCH  30  31
ENDBRANCH   8  30
TORSDOF 9
ENDMDL
MODEL 8
REMARK VINA RESULT:      -6.3      1.039      1.623
REMARK  Name = 
REMARK  14 active torsions:
REMARK  status: ('A' for Active; 'I' for Inactive)
REMARK    1  A    between atoms: C_1  and  C_2
REMARK    2  A    between atoms: C_3  and  C_4
REMARK    3  A    between atoms: N_6  and  C_7
REMARK    4  A    between atoms: N_6  and  C_10
REMARK    5  A    between atoms: C_7  and  C_8
REMARK    6  A    between atoms: C_7  and  C_9
REMARK    7  A    between atoms: C_10  and  C_11
REMARK    8  A    between atoms: C_10  and  C_12
REMARK    9  A    between atoms: C_14  and  C_15
REMARK   10  A    between atoms: C_15  and  C_16
REMARK   11  A    between atoms: N_18  and  C_19
REMARK   12  A    between atoms: C_19  and  C_20
REMARK   13  A    between atoms: N_28  and  C_29
REMARK   14  A    between atoms: C_29  and  C_30
REMARK                            x       y       z     vdW  Elec       q    Type
REMARK                         _______ _______ _______ _____ _____    ______ ____
ROOT
ATOM      1  C   UNL     1      -0.316  14.076  20.046  0.00  0.00    +0.000 C 
ATOM      2  C   UNL     1      -0.214  12.682  19.443  0.00  0.00    +0.000 C 
ATOM      3  C   UNL     1      -1.171  11.705  19.548  0.00  0.00    +0.000 C 
ATOM      4  C   UNL     1      -0.940  10.494  18.691  0.00  0.00    +0.000 C 
ATOM      5  C   UNL     1       0.514  10.021  18.748  0.00  0.00    +0.000 C 
ATOM      6  C   UNL     1       1.434  11.160  18.382  0.00  0.00    +0.000 C 
ATOM      7  O   UNL     1       2.534  10.925  17.886  0.00  0.00    +0.000 OA
ATOM      8  N   UNL     1       0.988  12.443  18.710  0.00  0.00    +0.000 N 
ENDROOT
BRANCH   3   9
ATOM      9  C   UNL     1      -2.519  11.999  20.205  0.00  0.00    +0.000 C 
ATOM     10  O   UNL     1      -3.486  11.903  19.437  0.00  0.00    +0.000 OA
ATOM     11  N   UNL     1      -2.750  12.367  21.553  0.00  0.00    +0.000 N 
BRANCH  11  12
ATOM     12  C   UNL     1      -1.881  12.034  22.725  0.00  0.00    +0.000 C 
ATOM     13  C   UNL     1      -1.057  10.723  22.639  0.00  0.00    +0.000 C 
ATOM     14  C   UNL     1      -0.869  13.150  23.016  0.00  0.00    +0.000 C 
ENDBRANCH  11  12
BRANCH  11  15
ATOM     15  C   UNL     1      -4.046  13.055  21.896  0.00  0.00    +0.000 C 
ATOM     16  C   UNL     1      -4.447  12.761  23.350  0.00  0.00    +0.000 C 
ATOM     17  C   UNL     1      -4.177  14.564  21.658  0.00  0.00    +0.000 C 
ENDBRANCH  11  15
ENDBRANCH   3   9
BRANCH   5  18
ATOM     18  C   UNL     1       0.931   9.427  20.096  0.00  0.00    +0.000 C 
BRANCH  18  19
ATOM     19  C   UNL     1       1.786   8.201  19.866  0.00  0.00    +0.000 C 
ATOM     20  O   UNL     1       2.465   8.038  18.856  0.00  0.00    +0.000 OA
ATOM     21  N   UNL     1       1.673   7.258  20.856  0.00  0.00    +0.000 N 
ATOM     22  H   UNL     1       1.159   7.471  21.702  0.00  0.00    +0.000 HD
BRANCH  21  23
ATOM     23  C   UNL     1       2.232   5.934  20.698  0.00  0.00    +0.000 C 
BRANCH  23  24
ATOM     24  C   UNL     1       1.232   4.906  20.168  0.00  0.00    +0.000 C 
ATOM     25  C   UNL     1       1.508   4.556  18.698  0.00  0.00    +0.000 C 
ATOM     26  C   UNL     1       2.768   3.712  18.506  0.00  0.00    +0.000 C 
ATOM     27  C   UNL     1       2.756   2.469  19.389  0.00  0.00    +0.000 C 
ATOM     28  C   UNL     1       2.536   2.814  20.858  0.00  0.00    +0.000 C 
ATOM     29  C   UNL     1       1.275   3.641  21.050  0.00  0.00    +0.000 C 
ENDBRANCH  23  24
ENDBRANCH  21  23
ENDBRANCH  18  19
ENDBRANCH   5  18
BRANCH   8  30
ATOM     30  C   UNL     1       1.828  13.559  18.189  0.00  0.00    +0.000 C 
BRANCH  30  31
ATOM     31  C   UNL     1       2.629  14.254  19.280  0.00  0.00    +0.000 A 
ATOM     32  C   UNL     1       3.003  13.560  20.446  0.00  0.00    +0.000 A 
ATOM     33  C   UNL     1       3.610  14.233  21.508  0.00  0.00    +0.000 A 
ATOM     34  C   UNL     1       3.883  15.589  21.396  0.00  0.00    +0.000 A 
ATOM     35  F   UNL     1       4.419  16.245  22.434  0.00  0.00    +0.000 F 
ATOM     36  C   UNL     1       3.601  16.277  20.222  0.00  0.00    +0.000 A 
ATOM     37  C   UNL     1       2.986  15.608  19.160  0.00  0.00    +0.000 A 
ENDBRANCH  30  31
ENDBRANCH   8  30
TORSDOF 9
ENDMDL
MODEL 9
REMARK VINA RESULT:      -6.3      2.719      5.922
REMARK  Name = 
REMARK  14 active torsions:
REMARK  status: ('A' for Active; 'I' for Inactive)
REMARK    1  A    between atoms: C_1  and  C_2
REMARK    2  A    between atoms: C_3  and  C_4
REMARK    3  A    between atoms: N_6  and  C_7
REMARK    4  A    between atoms: N_6  and  C_10
REMARK    5  A    between atoms: C_7  and  C_8
REMARK    6  A    between atoms: C_7  and  C_9
REMARK    7  A    between atoms: C_10  and  C_11
REMARK    8  A    between atoms: C_10  and  C_12
REMARK    9  A    between atoms: C_14  and  C_15
REMARK   10  A    between atoms: C_15  and  C_16
REMARK   11  A    between atoms: N_18  and  C_19
REMARK   12  A    between atoms: C_19  and  C_20
REMARK   13  A    between atoms: N_28  and  C_29
REMARK   14  A    between atoms: C_29  and  C_30
REMARK                            x       y       z     vdW  Elec       q    Type
REMARK                         _______ _______ _______ _____ _____    ______ ____
ROOT
ATOM      1  C   UNL     1      -1.081  14.764  20.904  0.00  0.00    +0.000 C 
ATOM      2  C   UNL     1      -0.322  13.466  21.143  0.00  0.00    +0.000 C 
ATOM      3  C   UNL     1       0.730  13.017  20.386  0.00  0.00    +0.000 C 
ATOM      4  C   UNL     1       1.452  11.824  20.945  0.00  0.00    +0.000 C 
ATOM      5  C   UNL     1       0.483  10.754  21.453  0.00  0.00    +0.000 C 
ATOM      6  C   UNL     1      -0.467  11.364  22.455  0.00  0.00    +0.000 C 
ATOM      7  O   UNL     1      -0.970  10.662  23.330  0.00  0.00    +0.000 OA
ATOM      8  N   UNL     1      -0.779  12.713  22.268  0.00  0.00    +0.000 N 
ENDROOT
BRANCH   3   9
ATOM      9  C   UNL     1       1.318  13.883  19.273  0.00  0.00    +0.000 C 
ATOM     10  O   UNL     1       0.680  13.842  18.212  0.00  0.00    +0.000 OA
ATOM     11  N   UNL     1       2.482  14.685  19.340  0.00  0.00    +0.000 N 
BRANCH  11  12
ATOM     12  C   UNL     1       3.069  15.295  20.575  0.00  0.00    +0.000 C 
ATOM     13  C   UNL     1       2.097  16.055  21.514  0.00  0.00    +0.000 C 
ATOM     14  C   UNL     1       3.768  14.246  21.450  0.00  0.00    +0.000 C 
ENDBRANCH  11  12
BRANCH  11  15
ATOM     15  C   UNL     1       3.154  15.083  18.052  0.00  0.00    +0.000 C 
ATOM     16  C   UNL     1       2.900  16.568  17.744  0.00  0.00    +0.000 C 
ATOM     17  C   UNL     1       4.650  14.806  17.871  0.00  0.00    +0.000 C 
ENDBRANCH  11  15
ENDBRANCH   3   9
BRANCH   5  18
ATOM     18  C   UNL     1      -0.307  10.044  20.351  0.00  0.00    +0.000 C 
BRANCH  18  19
ATOM     19  C   UNL     1       0.651   9.464  19.335  0.00  0.00    +0.000 C 
ATOM     20  O   UNL     1       0.737   9.879  18.183  0.00  0.00    +0.000 OA
ATOM     21  N   UNL     1       1.360   8.386  19.800  0.00  0.00    +0.000 N 
ATOM     22  H   UNL     1       1.309   8.130  20.778  0.00  0.00    +0.000 HD
BRANCH  21  23
ATOM     23  C   UNL     1       2.149   7.565  18.909  0.00  0.00    +0.000 C 
BRANCH  23  24
ATOM     24  C   UNL     1       2.934   6.465  19.622  0.00  0.00    +0.000 C 
ATOM     25  C   UNL     1       2.041   5.667  20.584  0.00  0.00    +0.000 C 
ATOM     26  C   UNL     1       1.047   4.754  19.867  0.00  0.00    +0.000 C 
ATOM     27  C   UNL     1       1.740   3.846  18.856  0.00  0.00    +0.000 C 
ATOM     28  C   UNL     1       2.586   4.638  17.863  0.00  0.00    +0.000 C 
ATOM     29  C   UNL     1       3.584   5.534  18.578  0.00  0.00    +0.000 C 
ENDBRANCH  23  24
ENDBRANCH  21  23
ENDBRANCH  18  19
ENDBRANCH   5  18
BRANCH   8  30
ATOM     30  C   UNL     1      -1.579  13.337  23.359  0.00  0.00    +0.000 C 
BRANCH  30  31
ATOM     31  C   UNL     1      -3.056  13.457  23.013  0.00  0.00    +0.000 A 
ATOM     32  C   UNL     1      -3.871  14.399  23.667  0.00  0.00    +0.000 A 
ATOM     33  C   UNL     1      -5.251  14.413  23.456  0.00  0.00    +0.000 A 
ATOM     34  C   UNL     1      -5.818  13.515  22.563  0.00  0.00    +0.000 A 
ATOM     35  F   UNL     1      -7.147  13.495  22.397  0.00  0.00    +0.000 F 
ATOM     36  C   UNL     1      -5.024  12.632  21.841  0.00  0.00    +0.000 A 
ATOM     37  C   UNL     1      -3.643  12.611  22.056  0.00  0.00    +0.000 A 
ENDBRANCH  30  31
ENDBRANCH   8  30
TORSDOF 9
ENDMDL
