MODEL 1
REMARK VINA RESULT:      -8.0      0.000      0.000
REMARK  Name = 
REMARK  5 active torsions:
REMARK  status: ('A' for Active; 'I' for Inactive)
REMARK    1  A    between atoms: C_2  and  O_3
REMARK    2  A    between atoms: C_2  and  C_4
REMARK    3  A    between atoms: C_7  and  C_8
REMARK    4  A    between atoms: N_11  and  C_12
REMARK    5  A    between atoms: N_19  and  C_20
REMARK                            x       y       z     vdW  Elec       q    Type
REMARK                         _______ _______ _______ _____ _____    ______ ____
ROOT
ATOM      1  C   UNL     1       0.779  11.577  19.235  0.00  0.00    +0.000 A 
ATOM      2  S   UNL     1       1.889  12.802  19.734  0.00  0.00    +0.000 S 
ATOM      3  C   UNL     1       0.816  14.030  19.188  0.00  0.00    +0.000 A 
ATOM      4  N   UNL     1       1.181  15.327  19.294  0.00  0.00    +0.000 N 
ATOM      5  N   UNL     1      -0.313  13.550  18.711  0.00  0.00    +0.000 NA
ATOM      6  N   UNL     1      -0.340  12.170  18.819  0.00  0.00    +0.000 N 
ATOM      7  H   UNL     1       2.017  15.559  19.823  0.00  0.00    +0.000 HD
ENDROOT
BRANCH   1  11
ATOM      8  C   UNL     1       2.114   7.496  19.389  0.00  0.00    +0.000 A 
ATOM      9  C   UNL     1       2.261   8.240  18.216  0.00  0.00    +0.000 A 
ATOM     10  C   UNL     1       1.800   9.560  18.155  0.00  0.00    +0.000 A 
ATOM     11  C   UNL     1       1.163  10.155  19.257  0.00  0.00    +0.000 A 
ATOM     12  C   UNL     1       0.936   9.356  20.393  0.00  0.00    +0.000 A 
ATOM     13  C   UNL     1       1.463   8.064  20.486  0.00  0.00    +0.000 A 
BRANCH   8  15
ATOM     14  O   UNL     1       3.248   5.629  18.480  0.00  0.00    +0.000 OA
ATOM     15  C   UNL     1       2.722   6.145  19.448  0.00  0.00    +0.000 C 
BRANCH  15  16
ATOM     16  O   UNL     1       2.636   5.555  20.656  0.00  0.00    +0.000 OA
ATOM     17  H   UNL     1       2.117   4.731  20.703  0.00  0.00    +0.000 HD
ENDBRANCH  15  16
ENDBRANCH   8  15
ENDBRANCH   1  11
BRANCH   4  18
ATOM     18  C   UNL     1       0.724  16.405  18.505  0.00  0.00    +0.000 A 
ATOM     19  C   UNL     1      -0.603  16.852  18.513  0.00  0.00    +0.000 A 
ATOM     20  C   UNL     1      -1.004  17.948  17.750  0.00  0.00    +0.000 A 
ATOM     21  C   UNL     1      -0.070  18.629  16.970  0.00  0.00    +0.000 A 
ATOM     22  C   UNL     1       1.257  18.209  16.957  0.00  0.00    +0.000 A 
ATOM     23  C   UNL     1       1.653  17.109  17.723  0.00  0.00    +0.000 A 
ENDBRANCH   4  18
BRANCH   6  24
ATOM     24  C   UNL     1      -1.585  11.486  18.416  0.00  0.00    +0.000 A 
ATOM     25  C   UNL     1      -2.796  11.999  18.887  0.00  0.00    +0.000 A 
ATOM     26  C   UNL     1      -3.993  11.472  18.396  0.00  0.00    +0.000 A 
ATOM     27  C   UNL     1      -3.974  10.444  17.452  0.00  0.00    +0.000 A 
ATOM     28  C   UNL     1      -2.760   9.895  17.038  0.00  0.00    +0.000 A 
ATOM     29  C   UNL     1      -1.561  10.391  17.547  0.00  0.00    +0.000 A 
ENDBRANCH   6  24
TORSDOF 5
ENDMDL
MODEL 2
REMARK VINA RESULT:      -7.6      0.528      1.173
REMARK  Name = 
REMARK  5 active torsions:
REMARK  status: ('A' for Active; 'I' for Inactive)
REMARK    1  A    between atoms: C_2  and  O_3
REMARK    2  A    between atoms: C_2  and  C_4
REMARK    3  A    between atoms: C_7  and  C_8
REMARK    4  A    between atoms: N_11  and  C_12
REMARK    5  A    between atoms: N_19  and  C_20
REMARK                            x       y       z     vdW  Elec       q    Type
REMARK                         _______ _______ _______ _____ _____    ______ ____
ROOT
ATOM      1  C   UNL     1       0.616  11.642  19.473  0.00  0.00    +0.000 A 
ATOM      2  S   UNL     1       1.695  12.859  20.053  0.00  0.00    +0.000 S 
ATOM      3  C   UNL     1       0.756  14.085  19.298  0.00  0.00    +0.000 A 
ATOM      4  N   UNL     1       1.153  15.375  19.382  0.00  0.00    +0.000 N 
ATOM      5  N   UNL     1      -0.316  13.614  18.696  0.00  0.00    +0.000 NA
ATOM      6  N   UNL     1      -0.411  12.244  18.875  0.00  0.00    +0.000 N 
ATOM      7  H   UNL     1       1.918  15.612  20.008  0.00  0.00    +0.000 HD
ENDROOT
BRANCH   1  11
ATOM      8  C   UNL     1       1.766   7.537  20.017  0.00  0.00    +0.000 A 
ATOM      9  C   UNL     1       2.013   8.182  18.802  0.00  0.00    +0.000 A 
ATOM     10  C   UNL     1       1.613   9.510  18.614  0.00  0.00    +0.000 A 
ATOM     11  C   UNL     1       0.938  10.213  19.626  0.00  0.00    +0.000 A 
ATOM     12  C   UNL     1       0.610   9.513  20.802  0.00  0.00    +0.000 A 
ATOM     13  C   UNL     1       1.075   8.214  21.025  0.00  0.00    +0.000 A 
BRANCH   8  15
ATOM     14  O   UNL     1       1.644   5.272  20.690  0.00  0.00    +0.000 OA
ATOM     15  C   UNL     1       2.311   6.174  20.216  0.00  0.00    +0.000 C 
BRANCH  15  16
ATOM     16  O   UNL     1       3.593   6.031  19.829  0.00  0.00    +0.000 OA
ATOM     17  H   UNL     1       3.869   6.531  19.039  0.00  0.00    +0.000 HD
ENDBRANCH  15  16
ENDBRANCH   8  15
ENDBRANCH   1  11
BRANCH   4  18
ATOM     18  C   UNL     1       0.851  16.417  18.479  0.00  0.00    +0.000 A 
ATOM     19  C   UNL     1      -0.435  16.952  18.330  0.00  0.00    +0.000 A 
ATOM     20  C   UNL     1      -0.683  18.012  17.458  0.00  0.00    +0.000 A 
ATOM     21  C   UNL     1       0.366  18.565  16.724  0.00  0.00    +0.000 A 
ATOM     22  C   UNL     1       1.654  18.057  16.866  0.00  0.00    +0.000 A 
ATOM     23  C   UNL     1       1.895  16.994  17.741  0.00  0.00    +0.000 A 
ENDBRANCH   4  18
BRANCH   6  24
ATOM     24  C   UNL     1      -1.616  11.577  18.342  0.00  0.00    +0.000 A 
ATOM     25  C   UNL     1      -1.438  10.532  17.432  0.00  0.00    +0.000 A 
ATOM     26  C   UNL     1      -2.549   9.781  17.036  0.00  0.00    +0.000 A 
ATOM     27  C   UNL     1      -3.816  10.079  17.541  0.00  0.00    +0.000 A 
ATOM     28  C   UNL     1      -3.991  11.166  18.397  0.00  0.00    +0.000 A 
ATOM     29  C   UNL     1      -2.895  11.942  18.772  0.00  0.00    +0.000 A 
ENDBRANCH   6  24
TORSDOF 5
ENDMDL
MODEL 3
REMARK VINA RESULT:      -7.5      4.959      8.256
REMARK  Name = 
REMARK  5 active torsions:
REMARK  status: ('A' for Active; 'I' for Inactive)
REMARK    1  A    between atoms: C_2  and  O_3
REMARK    2  A    between atoms: C_2  and  C_4
REMARK    3  A    between atoms: C_7  and  C_8
REMARK    4  A    between atoms: N_11  and  C_12
REMARK    5  A    between atoms: N_19  and  C_20
REMARK                            x       y       z     vdW  Elec       q    Type
REMARK                         _______ _______ _______ _____ _____    ______ ____
ROOT
ATOM      1  C   UNL     1       0.032  10.404  21.416  0.00  0.00    +0.000 A 
ATOM      2  S   UNL     1       1.288   9.464  22.137  0.00  0.00    +0.000 S 
ATOM      3  C   UNL     1       1.309   8.408  20.781  0.00  0.00    +0.000 A 
ATOM      4  N   UNL     1       2.152   7.351  20.773  0.00  0.00    +0.000 N 
ATOM      5  N   UNL     1       0.464   8.768  19.837  0.00  0.00    +0.000 NA
ATOM      6  N   UNL     1      -0.188   9.938  20.188  0.00  0.00    +0.000 N 
ATOM      7  H   UNL     1       2.857   7.282  21.501  0.00  0.00    +0.000 HD
ENDROOT
BRANCH   1  11
ATOM      8  C   UNL     1      -2.091  13.540  23.448  0.00  0.00    +0.000 A 
ATOM      9  C   UNL     1      -0.954  13.836  22.691  0.00  0.00    +0.000 A 
ATOM     10  C   UNL     1      -0.245  12.812  22.052  0.00  0.00    +0.000 A 
ATOM     11  C   UNL     1      -0.644  11.470  22.176  0.00  0.00    +0.000 A 
ATOM     12  C   UNL     1      -1.729  11.185  23.025  0.00  0.00    +0.000 A 
ATOM     13  C   UNL     1      -2.486  12.210  23.601  0.00  0.00    +0.000 A 
BRANCH   8  15
ATOM     14  O   UNL     1      -2.848  15.780  23.521  0.00  0.00    +0.000 OA
ATOM     15  C   UNL     1      -2.878  14.664  24.007  0.00  0.00    +0.000 C 
BRANCH  15  16
ATOM     16  O   UNL     1      -3.615  14.339  25.086  0.00  0.00    +0.000 OA
ATOM     17  H   UNL     1      -3.407  14.807  25.915  0.00  0.00    +0.000 HD
ENDBRANCH  15  16
ENDBRANCH   8  15
ENDBRANCH   1  11
BRANCH   4  18
ATOM     18  C   UNL     1       1.996   6.146  20.055  0.00  0.00    +0.000 A 
ATOM     19  C   UNL     1       1.348   5.020  20.579  0.00  0.00    +0.000 A 
ATOM     20  C   UNL     1       1.177   3.863  19.820  0.00  0.00    +0.000 A 
ATOM     21  C   UNL     1       1.646   3.819  18.508  0.00  0.00    +0.000 A 
ATOM     22  C   UNL     1       2.283   4.930  17.963  0.00  0.00    +0.000 A 
ATOM     23  C   UNL     1       2.451   6.087  18.729  0.00  0.00    +0.000 A 
ENDBRANCH   4  18
BRANCH   6  24
ATOM     24  C   UNL     1      -1.099  10.528  19.186  0.00  0.00    +0.000 A 
ATOM     25  C   UNL     1      -1.083   9.998  17.894  0.00  0.00    +0.000 A 
ATOM     26  C   UNL     1      -2.043  10.428  16.973  0.00  0.00    +0.000 A 
ATOM     27  C   UNL     1      -2.998  11.377  17.344  0.00  0.00    +0.000 A 
ATOM     28  C   UNL     1      -2.963  11.947  18.616  0.00  0.00    +0.000 A 
ATOM     29  C   UNL     1      -1.989  11.550  19.531  0.00  0.00    +0.000 A 
ENDBRANCH   6  24
TORSDOF 5
ENDMDL
MODEL 4
REMARK VINA RESULT:      -7.4      0.655      1.496
REMARK  Name = 
REMARK  5 active torsions:
REMARK  status: ('A' for Active; 'I' for Inactive)
REMARK    1  A    between atoms: C_2  and  O_3
REMARK    2  A    between atoms: C_2  and  C_4
REMARK    3  A    between atoms: C_7  and  C_8
REMARK    4  A    between atoms: N_11  and  C_12
REMARK    5  A    between atoms: N_19  and  C_20
REMARK                            x       y       z     vdW  Elec       q    Type
REMARK                         _______ _______ _______ _____ _____    ______ ____
ROOT
ATOM      1  C   UNL     1       0.608  11.730  19.343  0.00  0.00    +0.000 A 
ATOM      2  S   UNL     1       1.474  13.043  20.054  0.00  0.00    +0.000 S 
ATOM      3  C   UNL     1       0.278  14.154  19.518  0.00  0.00    +0.000 A 
ATOM      4  N   UNL     1       0.431  15.473  19.773  0.00  0.00    +0.000 N 
ATOM      5  N   UNL     1      -0.722  13.570  18.892  0.00  0.00    +0.000 NA
ATOM      6  N   UNL     1      -0.549  12.196  18.874  0.00  0.00    +0.000 N 
ATOM      7  H   UNL     1       1.176  15.767  20.400  0.00  0.00    +0.000 HD
ENDROOT
BRANCH   1  11
ATOM      8  C   UNL     1       2.126   7.719  19.062  0.00  0.00    +0.000 A 
ATOM      9  C   UNL     1       1.580   8.182  20.262  0.00  0.00    +0.000 A 
ATOM     10  C   UNL     1       1.111   9.497  20.363  0.00  0.00    +0.000 A 
ATOM     11  C   UNL     1       1.200  10.383  19.276  0.00  0.00    +0.000 A 
ATOM     12  C   UNL     1       1.845   9.927  18.111  0.00  0.00    +0.000 A 
ATOM     13  C   UNL     1       2.244   8.594  17.979  0.00  0.00    +0.000 A 
BRANCH   8  15
ATOM     14  O   UNL     1       2.258   5.624  17.971  0.00  0.00    +0.000 OA
ATOM     15  C   UNL     1       2.499   6.289  18.962  0.00  0.00    +0.000 C 
BRANCH  15  16
ATOM     16  O   UNL     1       3.117   5.803  20.056  0.00  0.00    +0.000 OA
ATOM     17  H   UNL     1       4.051   6.054  20.177  0.00  0.00    +0.000 HD
ENDBRANCH  15  16
ENDBRANCH   8  15
ENDBRANCH   1  11
BRANCH   4  18
ATOM     18  C   UNL     1      -0.116  16.550  19.042  0.00  0.00    +0.000 A 
ATOM     19  C   UNL     1       0.514  17.117  17.927  0.00  0.00    +0.000 A 
ATOM     20  C   UNL     1      -0.082  18.152  17.207  0.00  0.00    +0.000 A 
ATOM     21  C   UNL     1      -1.335  18.630  17.588  0.00  0.00    +0.000 A 
ATOM     22  C   UNL     1      -1.984  18.073  18.686  0.00  0.00    +0.000 A 
ATOM     23  C   UNL     1      -1.381  17.036  19.404  0.00  0.00    +0.000 A 
ENDBRANCH   4  18
BRANCH   6  24
ATOM     24  C   UNL     1      -1.639  11.386  18.293  0.00  0.00    +0.000 A 
ATOM     25  C   UNL     1      -2.950  11.683  18.673  0.00  0.00    +0.000 A 
ATOM     26  C   UNL     1      -4.007  11.042  18.021  0.00  0.00    +0.000 A 
ATOM     27  C   UNL     1      -3.750  10.116  17.009  0.00  0.00    +0.000 A 
ATOM     28  C   UNL     1      -2.437   9.779  16.682  0.00  0.00    +0.000 A 
ATOM     29  C   UNL     1      -1.375  10.388  17.350  0.00  0.00    +0.000 A 
ENDBRANCH   6  24
TORSDOF 5
ENDMDL
MODEL 5
REMARK VINA RESULT:      -7.4      0.786      1.306
REMARK  Name = 
REMARK  5 active torsions:
REMARK  status: ('A' for Active; 'I' for Inactive)
REMARK    1  A    between atoms: C_2  and  O_3
REMARK    2  A    between atoms: C_2  and  C_4
REMARK    3  A    between atoms: C_7  and  C_8
REMARK    4  A    between atoms: N_11  and  C_12
REMARK    5  A    between atoms: N_19  and  C_20
REMARK                            x       y       z     vdW  Elec       q    Type
REMARK                         _______ _______ _______ _____ _____    ______ ____
ROOT
ATOM      1  C   UNL     1       0.729  11.491  19.136  0.00  0.00    +0.000 A 
ATOM      2  S   UNL     1       1.697  12.704  19.893  0.00  0.00    +0.000 S 
ATOM      3  C   UNL     1       0.683  13.941  19.262  0.00  0.00    +0.000 A 
ATOM      4  N   UNL     1       0.978  15.236  19.515  0.00  0.00    +0.000 N 
ATOM      5  N   UNL     1      -0.335  13.469  18.574  0.00  0.00    +0.000 NA
ATOM      6  N   UNL     1      -0.328  12.084  18.582  0.00  0.00    +0.000 N 
ATOM      7  H   UNL     1       1.708  15.450  20.189  0.00  0.00    +0.000 HD
ENDROOT
BRANCH   1  11
ATOM      8  C   UNL     1       2.193   7.451  19.180  0.00  0.00    +0.000 A 
ATOM      9  C   UNL     1       2.246   8.206  18.005  0.00  0.00    +0.000 A 
ATOM     10  C   UNL     1       1.742   9.512  17.981  0.00  0.00    +0.000 A 
ATOM     11  C   UNL     1       1.157  10.082  19.124  0.00  0.00    +0.000 A 
ATOM     12  C   UNL     1       1.023   9.270  20.266  0.00  0.00    +0.000 A 
ATOM     13  C   UNL     1       1.593   7.994  20.318  0.00  0.00    +0.000 A 
BRANCH   8  15
ATOM     14  O   UNL     1       4.052   5.990  19.272  0.00  0.00    +0.000 OA
ATOM     15  C   UNL     1       2.844   6.120  19.192  0.00  0.00    +0.000 C 
BRANCH  15  16
ATOM     16  O   UNL     1       1.985   5.086  19.106  0.00  0.00    +0.000 OA
ATOM     17  H   UNL     1       1.765   4.631  19.940  0.00  0.00    +0.000 HD
ENDBRANCH  15  16
ENDBRANCH   8  15
ENDBRANCH   1  11
BRANCH   4  18
ATOM     18  C   UNL     1       0.616  16.357  18.736  0.00  0.00    +0.000 A 
ATOM     19  C   UNL     1       1.511  17.020  17.886  0.00  0.00    +0.000 A 
ATOM     20  C   UNL     1       1.102  18.097  17.102  0.00  0.00    +0.000 A 
ATOM     21  C   UNL     1      -0.225  18.523  17.146  0.00  0.00    +0.000 A 
ATOM     22  C   UNL     1      -1.134  17.871  17.975  0.00  0.00    +0.000 A 
ATOM     23  C   UNL     1      -0.717  16.792  18.760  0.00  0.00    +0.000 A 
ENDBRANCH   4  18
BRANCH   6  24
ATOM     24  C   UNL     1      -1.466  11.401  17.934  0.00  0.00    +0.000 A 
ATOM     25  C   UNL     1      -1.829  11.810  16.648  0.00  0.00    +0.000 A 
ATOM     26  C   UNL     1      -2.794  11.077  15.951  0.00  0.00    +0.000 A 
ATOM     27  C   UNL     1      -3.386   9.958  16.538  0.00  0.00    +0.000 A 
ATOM     28  C   UNL     1      -3.063   9.597  17.846  0.00  0.00    +0.000 A 
ATOM     29  C   UNL     1      -2.127  10.342  18.562  0.00  0.00    +0.000 A 
ENDBRANCH   6  24
TORSDOF 5
ENDMDL
MODEL 6
REMARK VINA RESULT:      -7.4      4.937      8.345
REMARK  Name = 
REMARK  5 active torsions:
REMARK  status: ('A' for Active; 'I' for Inactive)
REMARK    1  A    between atoms: C_2  and  O_3
REMARK    2  A    between atoms: C_2  and  C_4
REMARK    3  A    between atoms: C_7  and  C_8
REMARK    4  A    between atoms: N_11  and  C_12
REMARK    5  A    between atoms: N_19  and  C_20
REMARK                            x       y       z     vdW  Elec       q    Type
REMARK                         _______ _______ _______ _____ _____    ______ ____
ROOT
ATOM      1  C   UNL     1       0.101  10.362  21.369  0.00  0.00    +0.000 A 
ATOM      2  S   UNL     1       1.352   9.410  22.082  0.00  0.00    +0.000 S 
ATOM      3  C   UNL     1       1.350   8.350  20.729  0.00  0.00    +0.000 A 
ATOM      4  N   UNL     1       2.180   7.283  20.717  0.00  0.00    +0.000 N 
ATOM      5  N   UNL     1       0.503   8.717  19.790  0.00  0.00    +0.000 NA
ATOM      6  N   UNL     1      -0.133   9.896  20.143  0.00  0.00    +0.000 N 
ATOM      7  H   UNL     1       2.890   7.207  21.441  0.00  0.00    +0.000 HD
ENDROOT
BRANCH   1  11
ATOM      8  C   UNL     1      -1.970  13.527  23.409  0.00  0.00    +0.000 A 
ATOM      9  C   UNL     1      -0.842  13.810  22.634  0.00  0.00    +0.000 A 
ATOM     10  C   UNL     1      -0.150  12.777  21.992  0.00  0.00    +0.000 A 
ATOM     11  C   UNL     1      -0.556  11.438  22.131  0.00  0.00    +0.000 A 
ATOM     12  C   UNL     1      -1.632  11.167  22.996  0.00  0.00    +0.000 A 
ATOM     13  C   UNL     1      -2.373  12.200  23.576  0.00  0.00    +0.000 A 
BRANCH   8  15
ATOM     14  O   UNL     1      -3.174  14.649  25.109  0.00  0.00    +0.000 OA
ATOM     15  C   UNL     1      -2.741  14.661  23.971  0.00  0.00    +0.000 C 
BRANCH  15  16
ATOM     16  O   UNL     1      -2.916  15.687  23.116  0.00  0.00    +0.000 OA
ATOM     17  H   UNL     1      -2.112  16.058  22.710  0.00  0.00    +0.000 HD
ENDBRANCH  15  16
ENDBRANCH   8  15
ENDBRANCH   1  11
BRANCH   4  18
ATOM     18  C   UNL     1       2.005   6.078  20.003  0.00  0.00    +0.000 A 
ATOM     19  C   UNL     1       2.448   5.895  18.687  0.00  0.00    +0.000 A 
ATOM     20  C   UNL     1       2.293   4.674  18.033  0.00  0.00    +0.000 A 
ATOM     21  C   UNL     1       1.698   3.602  18.697  0.00  0.00    +0.000 A 
ATOM     22  C   UNL     1       1.260   3.758  20.009  0.00  0.00    +0.000 A 
ATOM     23  C   UNL     1       1.418   4.985  20.659  0.00  0.00    +0.000 A 
ENDBRANCH   4  18
BRANCH   6  24
ATOM     24  C   UNL     1      -1.045  10.494  19.147  0.00  0.00    +0.000 A 
ATOM     25  C   UNL     1      -1.032   9.973  17.850  0.00  0.00    +0.000 A 
ATOM     26  C   UNL     1      -1.993  10.410  16.935  0.00  0.00    +0.000 A 
ATOM     27  C   UNL     1      -2.946  11.358  17.313  0.00  0.00    +0.000 A 
ATOM     28  C   UNL     1      -2.908  11.919  18.589  0.00  0.00    +0.000 A 
ATOM     29  C   UNL     1      -1.933  11.514  19.500  0.00  0.00    +0.000 A 
ENDBRANCH   6  24
TORSDOF 5
ENDMDL
MODEL 7
REMARK VINA RESULT:      -7.3      4.638      8.309
REMARK  Name = 
REMARK  5 active torsions:
REMARK  status: ('A' for Active; 'I' for Inactive)
REMARK    1  A    between atoms: C_2  and  O_3
REMARK    2  A    between atoms: C_2  and  C_4
REMARK    3  A    between atoms: C_7  and  C_8
REMARK    4  A    between atoms: N_11  and  C_12
REMARK    5  A    between atoms: N_19  and  C_20
REMARK                            x       y       z     vdW  Elec       q    Type
REMARK                         _______ _______ _______ _____ _____    ______ ____
ROOT
ATOM      1  C   UNL     1       0.323  10.273  21.169  0.00  0.00    +0.000 A 
ATOM      2  S   UNL     1       1.442   9.251  21.997  0.00  0.00    +0.000 S 
ATOM      3  C   UNL     1       1.449   8.150  20.676  0.00  0.00    +0.000 A 
ATOM      4  N   UNL     1       2.191   7.023  20.754  0.00  0.00    +0.000 N 
ATOM      5  N   UNL     1       0.700   8.550  19.670  0.00  0.00    +0.000 NA
ATOM      6  N   UNL     1       0.137   9.786  19.943  0.00  0.00    +0.000 N 
ATOM      7  H   UNL     1       2.841   6.916  21.528  0.00  0.00    +0.000 HD
ENDROOT
BRANCH   1  11
ATOM      8  C   UNL     1      -1.324  13.599  23.336  0.00  0.00    +0.000 A 
ATOM      9  C   UNL     1      -1.854  12.317  23.506  0.00  0.00    +0.000 A 
ATOM     10  C   UNL     1      -1.338  11.238  22.779  0.00  0.00    +0.000 A 
ATOM     11  C   UNL     1      -0.298  11.422  21.852  0.00  0.00    +0.000 A 
ATOM     12  C   UNL     1       0.152  12.736  21.624  0.00  0.00    +0.000 A 
ATOM     13  C   UNL     1      -0.306  13.803  22.402  0.00  0.00    +0.000 A 
BRANCH   8  15
ATOM     14  O   UNL     1      -2.927  15.173  24.077  0.00  0.00    +0.000 OA
ATOM     15  C   UNL     1      -1.819  14.688  24.211  0.00  0.00    +0.000 C 
BRANCH  15  16
ATOM     16  O   UNL     1      -0.938  15.083  25.151  0.00  0.00    +0.000 OA
ATOM     17  H   UNL     1      -0.331  14.402  25.494  0.00  0.00    +0.000 HD
ENDBRANCH  15  16
ENDBRANCH   8  15
ENDBRANCH   1  11
BRANCH   4  18
ATOM     18  C   UNL     1       1.970   5.811  20.063  0.00  0.00    +0.000 A 
ATOM     19  C   UNL     1       1.261   4.735  20.612  0.00  0.00    +0.000 A 
ATOM     20  C   UNL     1       1.028   3.572  19.880  0.00  0.00    +0.000 A 
ATOM     21  C   UNL     1       1.495   3.472  18.570  0.00  0.00    +0.000 A 
ATOM     22  C   UNL     1       2.192   4.534  18.001  0.00  0.00    +0.000 A 
ATOM     23  C   UNL     1       2.423   5.697  18.740  0.00  0.00    +0.000 A 
ENDBRANCH   4  18
BRANCH   6  24
ATOM     24  C   UNL     1      -0.653  10.419  18.869  0.00  0.00    +0.000 A 
ATOM     25  C   UNL     1      -1.676   9.671  18.280  0.00  0.00    +0.000 A 
ATOM     26  C   UNL     1      -2.539  10.296  17.376  0.00  0.00    +0.000 A 
ATOM     27  C   UNL     1      -2.375  11.647  17.066  0.00  0.00    +0.000 A 
ATOM     28  C   UNL     1      -1.311  12.367  17.609  0.00  0.00    +0.000 A 
ATOM     29  C   UNL     1      -0.424  11.743  18.486  0.00  0.00    +0.000 A 
ENDBRANCH   6  24
TORSDOF 5
ENDMDL
MODEL 8
REMARK VINA RESULT:      -7.2      4.633      8.466
REMARK  Name = 
REMARK  5 active torsions:
REMARK  status: ('A' for Active; 'I' for Inactive)
REMARK    1  A    between atoms: C_2  and  O_3
REMARK    2  A    between atoms: C_2  and  C_4
REMARK    3  A    between atoms: C_7  and  C_8
REMARK    4  A    between atoms: N_11  and  C_12
REMARK    5  A    between atoms: N_19  and  C_20
REMARK                            x       y       z     vdW  Elec       q    Type
REMARK                         _______ _______ _______ _____ _____    ______ ____
ROOT
ATOM      1  C   UNL     1      -0.181  10.977  22.142  0.00  0.00    +0.000 A 
ATOM      2  S   UNL     1       0.109   9.449  22.893  0.00  0.00    +0.000 S 
ATOM      3  C   UNL     1       1.006   8.920  21.525  0.00  0.00    +0.000 A 
ATOM      4  N   UNL     1       1.517   7.669  21.507  0.00  0.00    +0.000 N 
ATOM      5  N   UNL     1       1.118   9.845  20.595  0.00  0.00    +0.000 NA
ATOM      6  N   UNL     1       0.505  11.019  21.001  0.00  0.00    +0.000 N 
ATOM      7  H   UNL     1       1.484   7.114  22.358  0.00  0.00    +0.000 HD
ENDROOT
BRANCH   1  11
ATOM      8  C   UNL     1      -2.987  13.845  23.679  0.00  0.00    +0.000 A 
ATOM      9  C   UNL     1      -1.710  14.252  23.285  0.00  0.00    +0.000 A 
ATOM     10  C   UNL     1      -0.785  13.315  22.811  0.00  0.00    +0.000 A 
ATOM     11  C   UNL     1      -1.109  11.949  22.744  0.00  0.00    +0.000 A 
ATOM     12  C   UNL     1      -2.364  11.549  23.241  0.00  0.00    +0.000 A 
ATOM     13  C   UNL     1      -3.318  12.489  23.642  0.00  0.00    +0.000 A 
BRANCH   8  15
ATOM     14  O   UNL     1      -4.808  15.302  23.280  0.00  0.00    +0.000 OA
ATOM     15  C   UNL     1      -3.972  14.885  24.061  0.00  0.00    +0.000 C 
BRANCH  15  16
ATOM     16  O   UNL     1      -3.854  15.316  25.331  0.00  0.00    +0.000 OA
ATOM     17  H   UNL     1      -4.259  16.178  25.539  0.00  0.00    +0.000 HD
ENDBRANCH  15  16
ENDBRANCH   8  15
ENDBRANCH   1  11
BRANCH   4  18
ATOM     18  C   UNL     1       1.825   6.893  20.368  0.00  0.00    +0.000 A 
ATOM     19  C   UNL     1       2.393   7.431  19.206  0.00  0.00    +0.000 A 
ATOM     20  C   UNL     1       2.723   6.622  18.119  0.00  0.00    +0.000 A 
ATOM     21  C   UNL     1       2.498   5.248  18.185  0.00  0.00    +0.000 A 
ATOM     22  C   UNL     1       1.945   4.690  19.334  0.00  0.00    +0.000 A 
ATOM     23  C   UNL     1       1.616   5.507  20.420  0.00  0.00    +0.000 A 
ENDBRANCH   4  18
BRANCH   6  24
ATOM     24  C   UNL     1       0.629  12.188  20.107  0.00  0.00    +0.000 A 
ATOM     25  C   UNL     1      -0.385  12.407  19.170  0.00  0.00    +0.000 A 
ATOM     26  C   UNL     1      -0.374  13.588  18.424  0.00  0.00    +0.000 A 
ATOM     27  C   UNL     1       0.640  14.529  18.610  0.00  0.00    +0.000 A 
ATOM     28  C   UNL     1       1.682  14.270  19.500  0.00  0.00    +0.000 A 
ATOM     29  C   UNL     1       1.699  13.080  20.225  0.00  0.00    +0.000 A 
ENDBRANCH   6  24
TORSDOF 5
ENDMDL
MODEL 9
REMARK VINA RESULT:      -7.1      0.774      1.698
REMARK  Name = 
REMARK  5 active torsions:
REMARK  status: ('A' for Active; 'I' for Inactive)
REMARK    1  A    between atoms: C_2  and  O_3
REMARK    2  A    between atoms: C_2  and  C_4
REMARK    3  A    between atoms: C_7  and  C_8
REMARK    4  A    between atoms: N_11  and  C_12
REMARK    5  A    between atoms: N_19  and  C_20
REMARK                            x       y       z     vdW  Elec       q    Type
REMARK                         _______ _______ _______ _____ _____    ______ ____
ROOT
ATOM      1  C   UNL     1       0.763  11.675  19.199  0.00  0.00    +0.000 A 
ATOM      2  S   UNL     1       1.645  12.950  19.959  0.00  0.00    +0.000 S 
ATOM      3  C   UNL     1       0.560  14.118  19.315  0.00  0.00    +0.000 A 
ATOM      4  N   UNL     1       0.768  15.430  19.564  0.00  0.00    +0.000 N 
ATOM      5  N   UNL     1      -0.420  13.579  18.620  0.00  0.00    +0.000 NA
ATOM      6  N   UNL     1      -0.325  12.197  18.634  0.00  0.00    +0.000 N 
ATOM      7  H   UNL     1       1.477  15.693  20.243  0.00  0.00    +0.000 HD
ENDROOT
BRANCH   1  11
ATOM      8  C   UNL     1       2.055   7.578  19.122  0.00  0.00    +0.000 A 
ATOM      9  C   UNL     1       1.587   8.145  20.310  0.00  0.00    +0.000 A 
ATOM     10  C   UNL     1       1.193   9.488  20.344  0.00  0.00    +0.000 A 
ATOM     11  C   UNL     1       1.280  10.296  19.197  0.00  0.00    +0.000 A 
ATOM     12  C   UNL     1       1.849   9.732  18.040  0.00  0.00    +0.000 A 
ATOM     13  C   UNL     1       2.171   8.373  17.980  0.00  0.00    +0.000 A 
BRANCH   8  15
ATOM     14  O   UNL     1       2.377   5.456  20.119  0.00  0.00    +0.000 OA
ATOM     15  C   UNL     1       2.348   6.125  19.102  0.00  0.00    +0.000 C 
BRANCH  15  16
ATOM     16  O   UNL     1       2.576   5.626  17.873  0.00  0.00    +0.000 OA
ATOM     17  H   UNL     1       1.940   5.872  17.176  0.00  0.00    +0.000 HD
ENDBRANCH  15  16
ENDBRANCH   8  15
ENDBRANCH   1  11
BRANCH   4  18
ATOM     18  C   UNL     1       0.342  16.522  18.777  0.00  0.00    +0.000 A 
ATOM     19  C   UNL     1       1.161  17.149  17.829  0.00  0.00    +0.000 A 
ATOM     20  C   UNL     1       0.687  18.198  17.042  0.00  0.00    +0.000 A 
ATOM     21  C   UNL     1      -0.631  18.631  17.185  0.00  0.00    +0.000 A 
ATOM     22  C   UNL     1      -1.466  18.014  18.113  0.00  0.00    +0.000 A 
ATOM     23  C   UNL     1      -0.984  16.964  18.899  0.00  0.00    +0.000 A 
ENDBRANCH   4  18
BRANCH   6  24
ATOM     24  C   UNL     1      -1.411  11.440  17.980  0.00  0.00    +0.000 A 
ATOM     25  C   UNL     1      -1.801  11.830  16.697  0.00  0.00    +0.000 A 
ATOM     26  C   UNL     1      -2.711  11.035  15.994  0.00  0.00    +0.000 A 
ATOM     27  C   UNL     1      -3.225   9.874  16.573  0.00  0.00    +0.000 A 
ATOM     28  C   UNL     1      -2.879   9.530  17.880  0.00  0.00    +0.000 A 
ATOM     29  C   UNL     1      -1.998  10.334  18.602  0.00  0.00    +0.000 A 
ENDBRANCH   6  24
TORSDOF 5
ENDMDL
