MODEL 1
REMARK VINA RESULT:      -7.7      0.000      0.000
REMARK  Name = 
REMARK  5 active torsions:
REMARK  status: ('A' for Active; 'I' for Inactive)
REMARK    1  A    between atoms: C_1  and  O_2
REMARK    2  A    between atoms: O_2  and  C_3
REMARK    3  A    between atoms: C_6  and  C_7
REMARK    4  A    between atoms: C_9  and  C_10
REMARK    5  A    between atoms: C_19  and  C_21
REMARK                            x       y       z     vdW  Elec       q    Type
REMARK                         _______ _______ _______ _____ _____    ______ ____
ROOT
ATOM      1  C   UNL     1      -1.433  12.720  22.529  0.00  0.00    +0.000 C 
ATOM      2  C   UNL     1      -0.956  11.296  22.285  0.00  0.00    +0.000 C 
ATOM      3  C   UNL     1      -0.238  11.469  20.975  0.00  0.00    +0.000 C 
ATOM      4  N   UNL     1      -0.292  12.662  20.457  0.00  0.00    +0.000 NA
ATOM      5  N   UNL     1      -1.029  13.440  21.313  0.00  0.00    +0.000 N 
ATOM      6  C   UNL     1      -1.138  14.829  21.216  0.00  0.00    +0.000 C 
ATOM      7  O   UNL     1      -1.722  15.447  22.117  0.00  0.00    +0.000 OA
ENDROOT
BRANCH   6   8
ATOM      8  C   UNL     1      -0.573  15.577  20.097  0.00  0.00    +0.000 A 
ATOM      9  C   UNL     1      -1.274  16.417  19.241  0.00  0.00    +0.000 A 
ATOM     10  C   UNL     1      -0.345  17.028  18.375  0.00  0.00    +0.000 A 
ATOM     11  C   UNL     1      -0.427  17.990  17.354  0.00  0.00    +0.000 A 
ATOM     12  C   UNL     1       0.743  18.371  16.691  0.00  0.00    +0.000 A 
ATOM     13  C   UNL     1       1.971  17.799  17.029  0.00  0.00    +0.000 A 
ATOM     14  C   UNL     1       2.074  16.841  18.051  0.00  0.00    +0.000 A 
ATOM     15  C   UNL     1       0.891  16.487  18.707  0.00  0.00    +0.000 A 
ATOM     16  O   UNL     1       0.758  15.602  19.748  0.00  0.00    +0.000 OA
ENDBRANCH   6   8
BRANCH   3  17
ATOM     17  C   UNL     1       0.482  10.343  20.338  0.00  0.00    +0.000 A 
ATOM     18  C   UNL     1       0.841   9.198  21.060  0.00  0.00    +0.000 A 
ATOM     19  C   UNL     1       1.523   8.154  20.424  0.00  0.00    +0.000 A 
ATOM     20  C   UNL     1       1.846   8.257  19.071  0.00  0.00    +0.000 A 
ATOM     21 CL   UNL     1       2.687   6.974  18.294  0.00  0.00    +0.000 Cl
ATOM     22  C   UNL     1       1.492   9.392  18.346  0.00  0.00    +0.000 A 
ATOM     23  C   UNL     1       0.810  10.436  18.979  0.00  0.00    +0.000 A 
ENDBRANCH   3  17
BRANCH   1  27
ATOM     24  C   UNL     1      -5.649  12.728  23.569  0.00  0.00    +0.000 A 
ATOM     25  C   UNL     1      -4.670  12.652  24.557  0.00  0.00    +0.000 A 
ATOM     26  C   UNL     1      -3.314  12.664  24.214  0.00  0.00    +0.000 A 
ATOM     27  C   UNL     1      -2.913  12.737  22.869  0.00  0.00    +0.000 A 
ATOM     28  C   UNL     1      -3.908  12.773  21.882  0.00  0.00    +0.000 A 
ATOM     29  C   UNL     1      -5.265  12.777  22.229  0.00  0.00    +0.000 A 
BRANCH  24  31
ATOM     30  C   UNL     1      -7.916  12.290  23.071  0.00  0.00    +0.000 C 
ATOM     31  O   UNL     1      -6.942  12.709  24.020  0.00  0.00    +0.000 OA
ENDBRANCH  24  31
ENDBRANCH   1  27
TORSDOF 4
ENDMDL
MODEL 2
REMARK VINA RESULT:      -7.7      3.385      6.844
REMARK  Name = 
REMARK  5 active torsions:
REMARK  status: ('A' for Active; 'I' for Inactive)
REMARK    1  A    between atoms: C_1  and  O_2
REMARK    2  A    between atoms: O_2  and  C_3
REMARK    3  A    between atoms: C_6  and  C_7
REMARK    4  A    between atoms: C_9  and  C_10
REMARK    5  A    between atoms: C_19  and  C_21
REMARK                            x       y       z     vdW  Elec       q    Type
REMARK                         _______ _______ _______ _____ _____    ______ ____
ROOT
ATOM      1  C   UNL     1      -0.410  12.682  19.627  0.00  0.00    +0.000 C 
ATOM      2  C   UNL     1       0.458  13.931  19.664  0.00  0.00    +0.000 C 
ATOM      3  C   UNL     1       1.817  13.327  19.441  0.00  0.00    +0.000 C 
ATOM      4  N   UNL     1       1.848  12.029  19.358  0.00  0.00    +0.000 NA
ATOM      5  N   UNL     1       0.559  11.584  19.507  0.00  0.00    +0.000 N 
ATOM      6  C   UNL     1       0.150  10.270  19.271  0.00  0.00    +0.000 C 
ATOM      7  O   UNL     1      -1.059  10.005  19.310  0.00  0.00    +0.000 OA
ENDROOT
BRANCH   6   8
ATOM      8  C   UNL     1       1.098   9.202  18.965  0.00  0.00    +0.000 A 
ATOM      9  C   UNL     1       1.887   9.115  17.825  0.00  0.00    +0.000 A 
ATOM     10  C   UNL     1       2.738   8.000  17.972  0.00  0.00    +0.000 A 
ATOM     11  C   UNL     1       3.772   7.437  17.204  0.00  0.00    +0.000 A 
ATOM     12  C   UNL     1       4.419   6.293  17.681  0.00  0.00    +0.000 A 
ATOM     13  C   UNL     1       4.038   5.714  18.894  0.00  0.00    +0.000 A 
ATOM     14  C   UNL     1       3.012   6.267  19.677  0.00  0.00    +0.000 A 
ATOM     15  C   UNL     1       2.390   7.418  19.184  0.00  0.00    +0.000 A 
ATOM     16  O   UNL     1       1.392   8.140  19.789  0.00  0.00    +0.000 OA
ENDBRANCH   6   8
BRANCH   3  17
ATOM     17  C   UNL     1       3.025  14.176  19.321  0.00  0.00    +0.000 A 
ATOM     18  C   UNL     1       3.792  14.523  20.439  0.00  0.00    +0.000 A 
ATOM     19  C   UNL     1       4.927  15.328  20.287  0.00  0.00    +0.000 A 
ATOM     20  C   UNL     1       5.291  15.785  19.020  0.00  0.00    +0.000 A 
ATOM     21 CL   UNL     1       6.684  16.777  18.837  0.00  0.00    +0.000 Cl
ATOM     22  C   UNL     1       4.533  15.442  17.903  0.00  0.00    +0.000 A 
ATOM     23  C   UNL     1       3.400  14.637  18.052  0.00  0.00    +0.000 A 
ENDBRANCH   3  17
BRANCH   1  27
ATOM     24  C   UNL     1      -3.014  12.508  23.098  0.00  0.00    +0.000 A 
ATOM     25  C   UNL     1      -1.659  12.203  23.206  0.00  0.00    +0.000 A 
ATOM     26  C   UNL     1      -0.824  12.276  22.086  0.00  0.00    +0.000 A 
ATOM     27  C   UNL     1      -1.338  12.640  20.829  0.00  0.00    +0.000 A 
ATOM     28  C   UNL     1      -2.711  12.906  20.725  0.00  0.00    +0.000 A 
ATOM     29  C   UNL     1      -3.541  12.848  21.852  0.00  0.00    +0.000 A 
BRANCH  24  31
ATOM     30  C   UNL     1      -5.105  12.775  24.164  0.00  0.00    +0.000 C 
ATOM     31  O   UNL     1      -3.734  12.404  24.258  0.00  0.00    +0.000 OA
ENDBRANCH  24  31
ENDBRANCH   1  27
TORSDOF 4
ENDMDL
MODEL 3
REMARK VINA RESULT:      -7.6      3.398      6.945
REMARK  Name = 
REMARK  5 active torsions:
REMARK  status: ('A' for Active; 'I' for Inactive)
REMARK    1  A    between atoms: C_1  and  O_2
REMARK    2  A    between atoms: O_2  and  C_3
REMARK    3  A    between atoms: C_6  and  C_7
REMARK    4  A    between atoms: C_9  and  C_10
REMARK    5  A    between atoms: C_19  and  C_21
REMARK                            x       y       z     vdW  Elec       q    Type
REMARK                         _______ _______ _______ _____ _____    ______ ____
ROOT
ATOM      1  C   UNL     1      -0.479  12.504  19.593  0.00  0.00    +0.000 C 
ATOM      2  C   UNL     1       0.346  13.782  19.635  0.00  0.00    +0.000 C 
ATOM      3  C   UNL     1       1.724  13.225  19.407  0.00  0.00    +0.000 C 
ATOM      4  N   UNL     1       1.799  11.929  19.319  0.00  0.00    +0.000 NA
ATOM      5  N   UNL     1       0.526  11.440  19.468  0.00  0.00    +0.000 N 
ATOM      6  C   UNL     1       0.160  10.114  19.226  0.00  0.00    +0.000 C 
ATOM      7  O   UNL     1      -1.039   9.809  19.265  0.00  0.00    +0.000 OA
ENDROOT
BRANCH   6   8
ATOM      8  C   UNL     1       1.144   9.080  18.914  0.00  0.00    +0.000 A 
ATOM      9  C   UNL     1       1.958   9.043  17.790  0.00  0.00    +0.000 A 
ATOM     10  C   UNL     1       2.836   7.948  17.927  0.00  0.00    +0.000 A 
ATOM     11  C   UNL     1       3.901   7.432  17.169  0.00  0.00    +0.000 A 
ATOM     12  C   UNL     1       4.569   6.294  17.632  0.00  0.00    +0.000 A 
ATOM     13  C   UNL     1       4.178   5.674  18.821  0.00  0.00    +0.000 A 
ATOM     14  C   UNL     1       3.121   6.180  19.595  0.00  0.00    +0.000 A 
ATOM     15  C   UNL     1       2.479   7.326  19.117  0.00  0.00    +0.000 A 
ATOM     16  O   UNL     1       1.449   8.005  19.718  0.00  0.00    +0.000 OA
ENDBRANCH   6   8
BRANCH   3  17
ATOM     17  C   UNL     1       2.903  14.114  19.290  0.00  0.00    +0.000 A 
ATOM     18  C   UNL     1       3.322  14.619  18.053  0.00  0.00    +0.000 A 
ATOM     19  C   UNL     1       4.442  15.454  17.980  0.00  0.00    +0.000 A 
ATOM     20  C   UNL     1       5.142  15.781  19.142  0.00  0.00    +0.000 A 
ATOM     21 CL   UNL     1       6.520  16.806  19.049  0.00  0.00    +0.000 Cl
ATOM     22  C   UNL     1       4.730  15.284  20.376  0.00  0.00    +0.000 A 
ATOM     23  C   UNL     1       3.611  14.450  20.451  0.00  0.00    +0.000 A 
ENDBRANCH   3  17
BRANCH   1  27
ATOM     24  C   UNL     1      -3.173  12.337  22.996  0.00  0.00    +0.000 A 
ATOM     25  C   UNL     1      -3.636  12.714  21.737  0.00  0.00    +0.000 A 
ATOM     26  C   UNL     1      -2.764  12.751  20.643  0.00  0.00    +0.000 A 
ATOM     27  C   UNL     1      -1.404  12.426  20.796  0.00  0.00    +0.000 A 
ATOM     28  C   UNL     1      -0.943  12.088  22.076  0.00  0.00    +0.000 A 
ATOM     29  C   UNL     1      -1.822  12.036  23.165  0.00  0.00    +0.000 A 
BRANCH  24  31
ATOM     30  C   UNL     1      -5.310  13.051  23.704  0.00  0.00    +0.000 C 
ATOM     31  O   UNL     1      -4.113  12.335  23.991  0.00  0.00    +0.000 OA
ENDBRANCH  24  31
ENDBRANCH   1  27
TORSDOF 4
ENDMDL
MODEL 4
REMARK VINA RESULT:      -7.6      4.099      7.947
REMARK  Name = 
REMARK  5 active torsions:
REMARK  status: ('A' for Active; 'I' for Inactive)
REMARK    1  A    between atoms: C_1  and  O_2
REMARK    2  A    between atoms: O_2  and  C_3
REMARK    3  A    between atoms: C_6  and  C_7
REMARK    4  A    between atoms: C_9  and  C_10
REMARK    5  A    between atoms: C_19  and  C_21
REMARK                            x       y       z     vdW  Elec       q    Type
REMARK                         _______ _______ _______ _____ _____    ______ ____
ROOT
ATOM      1  C   UNL     1      -0.837  11.656  20.736  0.00  0.00    +0.000 C 
ATOM      2  C   UNL     1      -1.797  11.983  19.602  0.00  0.00    +0.000 C 
ATOM      3  C   UNL     1      -1.532  10.828  18.677  0.00  0.00    +0.000 C 
ATOM      4  N   UNL     1      -0.598  10.005  19.058  0.00  0.00    +0.000 NA
ATOM      5  N   UNL     1      -0.115  10.470  20.255  0.00  0.00    +0.000 N 
ATOM      6  C   UNL     1       0.748   9.753  21.086  0.00  0.00    +0.000 C 
ATOM      7  O   UNL     1       1.020  10.212  22.204  0.00  0.00    +0.000 OA
ENDROOT
BRANCH   6   8
ATOM      8  C   UNL     1       1.328   8.473  20.687  0.00  0.00    +0.000 A 
ATOM      9  C   UNL     1       1.166   7.263  21.349  0.00  0.00    +0.000 A 
ATOM     10  C   UNL     1       1.791   6.261  20.580  0.00  0.00    +0.000 A 
ATOM     11  C   UNL     1       1.919   4.865  20.688  0.00  0.00    +0.000 A 
ATOM     12  C   UNL     1       2.630   4.175  19.701  0.00  0.00    +0.000 A 
ATOM     13  C   UNL     1       3.210   4.861  18.632  0.00  0.00    +0.000 A 
ATOM     14  C   UNL     1       3.086   6.254  18.504  0.00  0.00    +0.000 A 
ATOM     15  C   UNL     1       2.360   6.918  19.496  0.00  0.00    +0.000 A 
ATOM     16  O   UNL     1       2.087   8.262  19.558  0.00  0.00    +0.000 OA
ENDBRANCH   6   8
BRANCH   3  17
ATOM     17  C   UNL     1      -2.300  10.654  17.423  0.00  0.00    +0.000 A 
ATOM     18  C   UNL     1      -3.466  11.387  17.168  0.00  0.00    +0.000 A 
ATOM     19  C   UNL     1      -4.166  11.195  15.972  0.00  0.00    +0.000 A 
ATOM     20  C   UNL     1      -3.703  10.270  15.035  0.00  0.00    +0.000 A 
ATOM     21 CL   UNL     1      -4.568  10.034  13.568  0.00  0.00    +0.000 Cl
ATOM     22  C   UNL     1      -2.544   9.538  15.282  0.00  0.00    +0.000 A 
ATOM     23  C   UNL     1      -1.842   9.729  16.475  0.00  0.00    +0.000 A 
ENDBRANCH   3  17
BRANCH   1  27
ATOM     24  C   UNL     1       1.509  15.160  21.776  0.00  0.00    +0.000 A 
ATOM     25  C   UNL     1       0.343  14.848  22.473  0.00  0.00    +0.000 A 
ATOM     26  C   UNL     1      -0.399  13.710  22.141  0.00  0.00    +0.000 A 
ATOM     27  C   UNL     1       0.006  12.869  21.089  0.00  0.00    +0.000 A 
ATOM     28  C   UNL     1       1.159  13.215  20.370  0.00  0.00    +0.000 A 
ATOM     29  C   UNL     1       1.908  14.347  20.716  0.00  0.00    +0.000 A 
BRANCH  24  31
ATOM     30  C   UNL     1       3.219  16.732  21.352  0.00  0.00    +0.000 C 
ATOM     31  O   UNL     1       2.152  16.295  22.187  0.00  0.00    +0.000 OA
ENDBRANCH  24  31
ENDBRANCH   1  27
TORSDOF 4
ENDMDL
MODEL 5
REMARK VINA RESULT:      -7.6      3.277      6.918
REMARK  Name = 
REMARK  5 active torsions:
REMARK  status: ('A' for Active; 'I' for Inactive)
REMARK    1  A    between atoms: C_1  and  O_2
REMARK    2  A    between atoms: O_2  and  C_3
REMARK    3  A    between atoms: C_6  and  C_7
REMARK    4  A    between atoms: C_9  and  C_10
REMARK    5  A    between atoms: C_19  and  C_21
REMARK                            x       y       z     vdW  Elec       q    Type
REMARK                         _______ _______ _______ _____ _____    ______ ____
ROOT
ATOM      1  C   UNL     1      -0.650  12.689  19.322  0.00  0.00    +0.000 C 
ATOM      2  C   UNL     1       0.143  13.987  19.364  0.00  0.00    +0.000 C 
ATOM      3  C   UNL     1       1.547  13.451  19.305  0.00  0.00    +0.000 C 
ATOM      4  N   UNL     1       1.654  12.155  19.304  0.00  0.00    +0.000 NA
ATOM      5  N   UNL     1       0.382  11.644  19.360  0.00  0.00    +0.000 N 
ATOM      6  C   UNL     1       0.066  10.297  19.166  0.00  0.00    +0.000 C 
ATOM      7  O   UNL     1      -1.126   9.966  19.108  0.00  0.00    +0.000 OA
ENDROOT
BRANCH   6   8
ATOM      8  C   UNL     1       1.094   9.271  19.014  0.00  0.00    +0.000 A 
ATOM      9  C   UNL     1       1.363   8.248  19.914  0.00  0.00    +0.000 A 
ATOM     10  C   UNL     1       2.346   7.415  19.342  0.00  0.00    +0.000 A 
ATOM     11  C   UNL     1       2.976   6.219  19.727  0.00  0.00    +0.000 A 
ATOM     12  C   UNL     1       3.932   5.657  18.876  0.00  0.00    +0.000 A 
ATOM     13  C   UNL     1       4.262   6.277  17.668  0.00  0.00    +0.000 A 
ATOM     14  C   UNL     1       3.638   7.468  17.265  0.00  0.00    +0.000 A 
ATOM     15  C   UNL     1       2.676   8.002  18.127  0.00  0.00    +0.000 A 
ATOM     16  O   UNL     1       1.924   9.132  17.925  0.00  0.00    +0.000 OA
ENDBRANCH   6   8
BRANCH   3  17
ATOM     17  C   UNL     1       2.715  14.360  19.247  0.00  0.00    +0.000 A 
ATOM     18  C   UNL     1       3.588  14.504  20.333  0.00  0.00    +0.000 A 
ATOM     19  C   UNL     1       4.680  15.374  20.242  0.00  0.00    +0.000 A 
ATOM     20  C   UNL     1       4.897  16.097  19.069  0.00  0.00    +0.000 A 
ATOM     21 CL   UNL     1       6.239  17.168  18.962  0.00  0.00    +0.000 Cl
ATOM     22  C   UNL     1       4.034  15.958  17.985  0.00  0.00    +0.000 A 
ATOM     23  C   UNL     1       2.942  15.089  18.073  0.00  0.00    +0.000 A 
ENDBRANCH   3  17
BRANCH   1  27
ATOM     24  C   UNL     1      -3.665  12.647  22.449  0.00  0.00    +0.000 A 
ATOM     25  C   UNL     1      -4.029  12.737  21.107  0.00  0.00    +0.000 A 
ATOM     26  C   UNL     1      -3.052  12.735  20.106  0.00  0.00    +0.000 A 
ATOM     27  C   UNL     1      -1.687  12.660  20.433  0.00  0.00    +0.000 A 
ATOM     28  C   UNL     1      -1.332  12.611  21.788  0.00  0.00    +0.000 A 
ATOM     29  C   UNL     1      -2.313  12.596  22.788  0.00  0.00    +0.000 A 
BRANCH  24  31
ATOM     30  C   UNL     1      -4.351  12.395  24.695  0.00  0.00    +0.000 C 
ATOM     31  O   UNL     1      -4.703  12.656  23.340  0.00  0.00    +0.000 OA
ENDBRANCH  24  31
ENDBRANCH   1  27
TORSDOF 4
ENDMDL
MODEL 6
REMARK VINA RESULT:      -7.5      3.285      6.916
REMARK  Name = 
REMARK  5 active torsions:
REMARK  status: ('A' for Active; 'I' for Inactive)
REMARK    1  A    between atoms: C_1  and  O_2
REMARK    2  A    between atoms: O_2  and  C_3
REMARK    3  A    between atoms: C_6  and  C_7
REMARK    4  A    between atoms: C_9  and  C_10
REMARK    5  A    between atoms: C_19  and  C_21
REMARK                            x       y       z     vdW  Elec       q    Type
REMARK                         _______ _______ _______ _____ _____    ______ ____
ROOT
ATOM      1  C   UNL     1      -0.572  12.658  19.530  0.00  0.00    +0.000 C 
ATOM      2  C   UNL     1       0.224  13.954  19.496  0.00  0.00    +0.000 C 
ATOM      3  C   UNL     1       1.618  13.415  19.332  0.00  0.00    +0.000 C 
ATOM      4  N   UNL     1       1.723  12.118  19.335  0.00  0.00    +0.000 NA
ATOM      5  N   UNL     1       0.459  11.611  19.495  0.00  0.00    +0.000 N 
ATOM      6  C   UNL     1       0.126  10.263  19.340  0.00  0.00    +0.000 C 
ATOM      7  O   UNL     1      -1.067   9.934  19.380  0.00  0.00    +0.000 OA
ENDROOT
BRANCH   6   8
ATOM      8  C   UNL     1       1.137   9.233  19.118  0.00  0.00    +0.000 A 
ATOM      9  C   UNL     1       1.434   8.184  19.978  0.00  0.00    +0.000 A 
ATOM     10  C   UNL     1       2.385   7.359  19.342  0.00  0.00    +0.000 A 
ATOM     11  C   UNL     1       3.020   6.148  19.668  0.00  0.00    +0.000 A 
ATOM     12  C   UNL     1       3.933   5.601  18.762  0.00  0.00    +0.000 A 
ATOM     13  C   UNL     1       4.218   6.251  17.559  0.00  0.00    +0.000 A 
ATOM     14  C   UNL     1       3.588   7.458  17.214  0.00  0.00    +0.000 A 
ATOM     15  C   UNL     1       2.669   7.976  18.130  0.00  0.00    +0.000 A 
ATOM     16  O   UNL     1       1.919   9.117  17.991  0.00  0.00    +0.000 OA
ENDBRANCH   6   8
BRANCH   3  17
ATOM     17  C   UNL     1       2.780  14.320  19.173  0.00  0.00    +0.000 A 
ATOM     18  C   UNL     1       3.080  14.921  17.944  0.00  0.00    +0.000 A 
ATOM     19  C   UNL     1       4.187  15.769  17.832  0.00  0.00    +0.000 A 
ATOM     20  C   UNL     1       4.992  16.013  18.944  0.00  0.00    +0.000 A 
ATOM     21 CL   UNL     1       6.354  17.053  18.802  0.00  0.00    +0.000 Cl
ATOM     22  C   UNL     1       4.700  15.419  20.170  0.00  0.00    +0.000 A 
ATOM     23  C   UNL     1       3.593  14.572  20.285  0.00  0.00    +0.000 A 
ENDBRANCH   3  17
BRANCH   1  27
ATOM     24  C   UNL     1      -3.221  12.563  22.970  0.00  0.00    +0.000 A 
ATOM     25  C   UNL     1      -1.852  12.349  23.117  0.00  0.00    +0.000 A 
ATOM     26  C   UNL     1      -1.004  12.396  22.005  0.00  0.00    +0.000 A 
ATOM     27  C   UNL     1      -1.517  12.642  20.719  0.00  0.00    +0.000 A 
ATOM     28  C   UNL     1      -2.901  12.816  20.579  0.00  0.00    +0.000 A 
ATOM     29  C   UNL     1      -3.745  12.785  21.696  0.00  0.00    +0.000 A 
BRANCH  24  31
ATOM     30  C   UNL     1      -5.315  12.896  24.012  0.00  0.00    +0.000 C 
ATOM     31  O   UNL     1      -3.953  12.495  24.124  0.00  0.00    +0.000 OA
ENDBRANCH  24  31
ENDBRANCH   1  27
TORSDOF 4
ENDMDL
MODEL 7
REMARK VINA RESULT:      -7.5      3.917      7.932
REMARK  Name = 
REMARK  5 active torsions:
REMARK  status: ('A' for Active; 'I' for Inactive)
REMARK    1  A    between atoms: C_1  and  O_2
REMARK    2  A    between atoms: O_2  and  C_3
REMARK    3  A    between atoms: C_6  and  C_7
REMARK    4  A    between atoms: C_9  and  C_10
REMARK    5  A    between atoms: C_19  and  C_21
REMARK                            x       y       z     vdW  Elec       q    Type
REMARK                         _______ _______ _______ _____ _____    ______ ____
ROOT
ATOM      1  C   UNL     1      -0.967  11.703  20.601  0.00  0.00    +0.000 C 
ATOM      2  C   UNL     1      -1.907  11.988  19.439  0.00  0.00    +0.000 C 
ATOM      3  C   UNL     1      -1.593  10.824  18.541  0.00  0.00    +0.000 C 
ATOM      4  N   UNL     1      -0.650  10.031  18.957  0.00  0.00    +0.000 NA
ATOM      5  N   UNL     1      -0.206  10.527  20.157  0.00  0.00    +0.000 N 
ATOM      6  C   UNL     1       0.654   9.844  21.020  0.00  0.00    +0.000 C 
ATOM      7  O   UNL     1       0.888  10.328  22.136  0.00  0.00    +0.000 OA
ENDROOT
BRANCH   6   8
ATOM      8  C   UNL     1       1.273   8.572  20.656  0.00  0.00    +0.000 A 
ATOM      9  C   UNL     1       1.131   7.372  21.341  0.00  0.00    +0.000 A 
ATOM     10  C   UNL     1       1.795   6.371  20.602  0.00  0.00    +0.000 A 
ATOM     11  C   UNL     1       1.957   4.982  20.741  0.00  0.00    +0.000 A 
ATOM     12  C   UNL     1       2.701   4.291  19.780  0.00  0.00    +0.000 A 
ATOM     13  C   UNL     1       3.281   4.970  18.705  0.00  0.00    +0.000 A 
ATOM     14  C   UNL     1       3.124   6.356  18.547  0.00  0.00    +0.000 A 
ATOM     15  C   UNL     1       2.364   7.021  19.514  0.00  0.00    +0.000 A 
ATOM     16  O   UNL     1       2.056   8.359  19.544  0.00  0.00    +0.000 OA
ENDBRANCH   6   8
BRANCH   3  17
ATOM     17  C   UNL     1      -2.327  10.611  17.272  0.00  0.00    +0.000 A 
ATOM     18  C   UNL     1      -1.892   9.683  16.318  0.00  0.00    +0.000 A 
ATOM     19  C   UNL     1      -2.610   9.511  15.130  0.00  0.00    +0.000 A 
ATOM     20  C   UNL     1      -3.760  10.266  14.896  0.00  0.00    +0.000 A 
ATOM     21 CL   UNL     1      -4.639  10.055  13.433  0.00  0.00    +0.000 Cl
ATOM     22  C   UNL     1      -4.200  11.191  15.841  0.00  0.00    +0.000 A 
ATOM     23  C   UNL     1      -3.484  11.363  17.029  0.00  0.00    +0.000 A 
ENDBRANCH   3  17
BRANCH   1  27
ATOM     24  C   UNL     1       1.402  15.212  21.565  0.00  0.00    +0.000 A 
ATOM     25  C   UNL     1       1.687  14.447  20.436  0.00  0.00    +0.000 A 
ATOM     26  C   UNL     1       0.909  13.327  20.125  0.00  0.00    +0.000 A 
ATOM     27  C   UNL     1      -0.161  12.941  20.952  0.00  0.00    +0.000 A 
ATOM     28  C   UNL     1      -0.411  13.696  22.107  0.00  0.00    +0.000 A 
ATOM     29  C   UNL     1       0.359  14.827  22.407  0.00  0.00    +0.000 A 
BRANCH  24  31
ATOM     30  C   UNL     1       2.471  17.098  20.628  0.00  0.00    +0.000 C 
ATOM     31  O   UNL     1       2.228  16.285  21.770  0.00  0.00    +0.000 OA
ENDBRANCH  24  31
ENDBRANCH   1  27
TORSDOF 4
ENDMDL
MODEL 8
REMARK VINA RESULT:      -7.4      3.471      6.843
REMARK  Name = 
REMARK  5 active torsions:
REMARK  status: ('A' for Active; 'I' for Inactive)
REMARK    1  A    between atoms: C_1  and  O_2
REMARK    2  A    between atoms: O_2  and  C_3
REMARK    3  A    between atoms: C_6  and  C_7
REMARK    4  A    between atoms: C_9  and  C_10
REMARK    5  A    between atoms: C_19  and  C_21
REMARK                            x       y       z     vdW  Elec       q    Type
REMARK                         _______ _______ _______ _____ _____    ______ ____
ROOT
ATOM      1  C   UNL     1      -0.436  12.818  19.544  0.00  0.00    +0.000 C 
ATOM      2  C   UNL     1       0.472  13.990  19.884  0.00  0.00    +0.000 C 
ATOM      3  C   UNL     1       1.809  13.301  19.909  0.00  0.00    +0.000 C 
ATOM      4  N   UNL     1       1.782  12.015  19.716  0.00  0.00    +0.000 NA
ATOM      5  N   UNL     1       0.469  11.660  19.538  0.00  0.00    +0.000 N 
ATOM      6  C   UNL     1       0.046  10.404  19.098  0.00  0.00    +0.000 C 
ATOM      7  O   UNL     1      -1.154  10.232  18.848  0.00  0.00    +0.000 OA
ENDROOT
BRANCH   6   8
ATOM      8  C   UNL     1       0.975   9.293  18.910  0.00  0.00    +0.000 A 
ATOM      9  C   UNL     1       1.802   9.100  17.811  0.00  0.00    +0.000 A 
ATOM     10  C   UNL     1       2.615   7.978  18.073  0.00  0.00    +0.000 A 
ATOM     11  C   UNL     1       3.661   7.333  17.390  0.00  0.00    +0.000 A 
ATOM     12  C   UNL     1       4.258   6.213  17.976  0.00  0.00    +0.000 A 
ATOM     13  C   UNL     1       3.817   5.736  19.213  0.00  0.00    +0.000 A 
ATOM     14  C   UNL     1       2.778   6.372  19.912  0.00  0.00    +0.000 A 
ATOM     15  C   UNL     1       2.207   7.498  19.311  0.00  0.00    +0.000 A 
ATOM     16  O   UNL     1       1.208   8.289  19.822  0.00  0.00    +0.000 OA
ENDBRANCH   6   8
BRANCH   3  17
ATOM     17  C   UNL     1       3.061  14.060  20.134  0.00  0.00    +0.000 A 
ATOM     18  C   UNL     1       3.783  14.617  19.072  0.00  0.00    +0.000 A 
ATOM     19  C   UNL     1       4.964  15.326  19.324  0.00  0.00    +0.000 A 
ATOM     20  C   UNL     1       5.420  15.474  20.633  0.00  0.00    +0.000 A 
ATOM     21 CL   UNL     1       6.873  16.343  20.939  0.00  0.00    +0.000 Cl
ATOM     22  C   UNL     1       4.706  14.923  21.695  0.00  0.00    +0.000 A 
ATOM     23  C   UNL     1       3.526  14.216  21.446  0.00  0.00    +0.000 A 
ENDBRANCH   3  17
BRANCH   1  27
ATOM     24  C   UNL     1      -3.751  12.595  22.342  0.00  0.00    +0.000 A 
ATOM     25  C   UNL     1      -2.437  12.436  22.777  0.00  0.00    +0.000 A 
ATOM     26  C   UNL     1      -1.375  12.524  21.872  0.00  0.00    +0.000 A 
ATOM     27  C   UNL     1      -1.611  12.756  20.505  0.00  0.00    +0.000 A 
ATOM     28  C   UNL     1      -2.940  12.874  20.074  0.00  0.00    +0.000 A 
ATOM     29  C   UNL     1      -4.001  12.802  20.986  0.00  0.00    +0.000 A 
BRANCH  24  31
ATOM     30  C   UNL     1      -4.224  12.471  24.653  0.00  0.00    +0.000 C 
ATOM     31  O   UNL     1      -4.708  12.489  23.314  0.00  0.00    +0.000 OA
ENDBRANCH  24  31
ENDBRANCH   1  27
TORSDOF 4
ENDMDL
MODEL 9
REMARK VINA RESULT:      -7.4      4.060      8.067
REMARK  Name = 
REMARK  5 active torsions:
REMARK  status: ('A' for Active; 'I' for Inactive)
REMARK    1  A    between atoms: C_1  and  O_2
REMARK    2  A    between atoms: O_2  and  C_3
REMARK    3  A    between atoms: C_6  and  C_7
REMARK    4  A    between atoms: C_9  and  C_10
REMARK    5  A    between atoms: C_19  and  C_21
REMARK                            x       y       z     vdW  Elec       q    Type
REMARK                         _______ _______ _______ _____ _____    ______ ____
ROOT
ATOM      1  C   UNL     1      -0.740  11.557  20.683  0.00  0.00    +0.000 C 
ATOM      2  C   UNL     1      -1.710  11.919  19.568  0.00  0.00    +0.000 C 
ATOM      3  C   UNL     1      -1.494  10.763  18.631  0.00  0.00    +0.000 C 
ATOM      4  N   UNL     1      -0.577   9.913  18.990  0.00  0.00    +0.000 NA
ATOM      5  N   UNL     1      -0.059  10.355  20.181  0.00  0.00    +0.000 N 
ATOM      6  C   UNL     1       0.798   9.608  20.992  0.00  0.00    +0.000 C 
ATOM      7  O   UNL     1       1.102  10.052  22.108  0.00  0.00    +0.000 OA
ENDROOT
BRANCH   6   8
ATOM      8  C   UNL     1       1.335   8.316  20.574  0.00  0.00    +0.000 A 
ATOM      9  C   UNL     1       2.135   8.087  19.462  0.00  0.00    +0.000 A 
ATOM     10  C   UNL     1       2.527   6.733  19.482  0.00  0.00    +0.000 A 
ATOM     11  C   UNL     1       3.359   5.932  18.681  0.00  0.00    +0.000 A 
ATOM     12  C   UNL     1       3.523   4.585  19.017  0.00  0.00    +0.000 A 
ATOM     13  C   UNL     1       2.865   4.042  20.123  0.00  0.00    +0.000 A 
ATOM     14  C   UNL     1       2.036   4.829  20.938  0.00  0.00    +0.000 A 
ATOM     15  C   UNL     1       1.899   6.175  20.588  0.00  0.00    +0.000 A 
ATOM     16  O   UNL     1       1.170   7.130  21.252  0.00  0.00    +0.000 OA
ENDBRANCH   6   8
BRANCH   3  17
ATOM     17  C   UNL     1      -2.288  10.620  17.389  0.00  0.00    +0.000 A 
ATOM     18  C   UNL     1      -3.456  11.361  17.175  0.00  0.00    +0.000 A 
ATOM     19  C   UNL     1      -4.182  11.198  15.990  0.00  0.00    +0.000 A 
ATOM     20  C   UNL     1      -3.742  10.293  15.024  0.00  0.00    +0.000 A 
ATOM     21 CL   UNL     1      -4.638  10.092  13.570  0.00  0.00    +0.000 Cl
ATOM     22  C   UNL     1      -2.580   9.553  15.230  0.00  0.00    +0.000 A 
ATOM     23  C   UNL     1      -1.853   9.715  16.412  0.00  0.00    +0.000 A 
ENDBRANCH   3  17
BRANCH   1  27
ATOM     24  C   UNL     1       1.719  14.990  21.698  0.00  0.00    +0.000 A 
ATOM     25  C   UNL     1       0.507  14.763  22.347  0.00  0.00    +0.000 A 
ATOM     26  C   UNL     1      -0.272  13.647  22.024  0.00  0.00    +0.000 A 
ATOM     27  C   UNL     1       0.143  12.744  21.029  0.00  0.00    +0.000 A 
ATOM     28  C   UNL     1       1.344  13.006  20.356  0.00  0.00    +0.000 A 
ATOM     29  C   UNL     1       2.130  14.115  20.693  0.00  0.00    +0.000 A 
BRANCH  24  31
ATOM     30  C   UNL     1       2.701  17.042  21.062  0.00  0.00    +0.000 C 
ATOM     31  O   UNL     1       2.396  16.111  22.095  0.00  0.00    +0.000 OA
ENDBRANCH  24  31
ENDBRANCH   1  27
TORSDOF 4
ENDMDL
