MODEL 1
REMARK VINA RESULT:      -6.3      0.000      0.000
REMARK  Name = 
REMARK  5 active torsions:
REMARK  status: ('A' for Active; 'I' for Inactive)
REMARK    1  A    between atoms: C_1  and  C_2
REMARK    2  A    between atoms: C_2  and  N_3
REMARK    3  A    between atoms: N_3  and  C_4
REMARK    4  A    between atoms: C_9  and  O_10
REMARK    5  A    between atoms: C_11  and  O_12
REMARK                            x       y       z     vdW  Elec       q    Type
REMARK                         _______ _______ _______ _____ _____    ______ ____
ROOT
ATOM      1  C   UNL     1       5.704   5.729  16.963  0.00  0.00    +0.000 C 
ATOM      2  C   UNL     1       4.378   6.386  17.416  0.00  0.00    +0.000 C 
ATOM      3  C   UNL     1       3.487   5.214  17.620  0.00  0.00    +0.000 A 
ATOM      4  C   UNL     1       2.114   5.237  17.869  0.00  0.00    +0.000 A 
ATOM      5  C   UNL     1       1.452   4.025  18.118  0.00  0.00    +0.000 A 
ATOM      6  C   UNL     1       2.168   2.808  18.129  0.00  0.00    +0.000 A 
ATOM      7  C   UNL     1       3.562   2.810  17.899  0.00  0.00    +0.000 A 
ATOM      8  C   UNL     1       4.195   4.032  17.640  0.00  0.00    +0.000 A 
ATOM      9  C   UNL     1       5.656   4.275  17.482  0.00  0.00    +0.000 C 
ENDROOT
BRANCH   1  10
ATOM     10  N   UNL     1       5.868   5.776  15.489  0.00  0.00    +0.000 NA
ATOM     11  H   UNL     1       4.923   5.670  15.054  0.00  0.00    +0.000 HD
BRANCH  10  13
ATOM     12  C   UNL     1       6.051   3.967  13.844  0.00  0.00    +0.000 C 
ATOM     13  C   UNL     1       6.795   4.810  14.878  0.00  0.00    +0.000 C 
ENDBRANCH  10  13
ENDBRANCH   1  10
BRANCH   6  14
ATOM     14  O   UNL     1       1.529   1.647  18.385  0.00  0.00    +0.000 OA
ATOM     15  H   UNL     1       1.991   0.870  18.730  0.00  0.00    +0.000 HD
ENDBRANCH   6  14
BRANCH   7  16
ATOM     16  O   UNL     1       4.286   1.673  17.925  0.00  0.00    +0.000 OA
ATOM     17  H   UNL     1       3.881   0.797  17.855  0.00  0.00    +0.000 HD
ENDBRANCH   7  16
TORSDOF 4
ENDMDL
MODEL 2
REMARK VINA RESULT:      -6.3      2.427      3.089
REMARK  Name = 
REMARK  5 active torsions:
REMARK  status: ('A' for Active; 'I' for Inactive)
REMARK    1  A    between atoms: C_1  and  C_2
REMARK    2  A    between atoms: C_2  and  N_3
REMARK    3  A    between atoms: N_3  and  C_4
REMARK    4  A    between atoms: C_9  and  O_10
REMARK    5  A    between atoms: C_11  and  O_12
REMARK                            x       y       z     vdW  Elec       q    Type
REMARK                         _______ _______ _______ _____ _____    ______ ____
ROOT
ATOM      1  C   UNL     1       5.112   4.692  17.596  0.00  0.00    +0.000 C 
ATOM      2  C   UNL     1       4.215   3.636  16.907  0.00  0.00    +0.000 C 
ATOM      3  C   UNL     1       3.262   3.264  17.984  0.00  0.00    +0.000 A 
ATOM      4  C   UNL     1       2.334   2.223  17.961  0.00  0.00    +0.000 A 
ATOM      5  C   UNL     1       1.457   2.074  19.045  0.00  0.00    +0.000 A 
ATOM      6  C   UNL     1       1.505   2.974  20.133  0.00  0.00    +0.000 A 
ATOM      7  C   UNL     1       2.436   4.037  20.125  0.00  0.00    +0.000 A 
ATOM      8  C   UNL     1       3.309   4.154  19.036  0.00  0.00    +0.000 A 
ATOM      9  C   UNL     1       4.282   5.250  18.774  0.00  0.00    +0.000 C 
ENDROOT
BRANCH   1  10
ATOM     10  N   UNL     1       6.394   4.108  18.063  0.00  0.00    +0.000 NA
ATOM     11  H   UNL     1       6.310   3.919  19.088  0.00  0.00    +0.000 HD
BRANCH  10  13
ATOM     12  C   UNL     1       7.959   5.726  19.034  0.00  0.00    +0.000 C 
ATOM     13  C   UNL     1       7.623   4.877  17.809  0.00  0.00    +0.000 C 
ENDBRANCH  10  13
ENDBRANCH   1  10
BRANCH   6  14
ATOM     14  O   UNL     1       0.648   2.837  21.166  0.00  0.00    +0.000 OA
ATOM     15  H   UNL     1       0.345   3.594  21.688  0.00  0.00    +0.000 HD
ENDBRANCH   6  14
BRANCH   7  16
ATOM     16  O   UNL     1       2.498   4.933  21.131  0.00  0.00    +0.000 OA
ATOM     17  H   UNL     1       3.278   5.484  21.289  0.00  0.00    +0.000 HD
ENDBRANCH   7  16
TORSDOF 4
ENDMDL
MODEL 3
REMARK VINA RESULT:      -6.2      2.633      4.991
REMARK  Name = 
REMARK  5 active torsions:
REMARK  status: ('A' for Active; 'I' for Inactive)
REMARK    1  A    between atoms: C_1  and  C_2
REMARK    2  A    between atoms: C_2  and  N_3
REMARK    3  A    between atoms: N_3  and  C_4
REMARK    4  A    between atoms: C_9  and  O_10
REMARK    5  A    between atoms: C_11  and  O_12
REMARK                            x       y       z     vdW  Elec       q    Type
REMARK                         _______ _______ _______ _____ _____    ______ ____
ROOT
ATOM      1  C   UNL     1       2.143   3.966  18.127  0.00  0.00    +0.000 C 
ATOM      2  C   UNL     1       2.298   5.504  18.057  0.00  0.00    +0.000 C 
ATOM      3  C   UNL     1       3.682   5.668  17.543  0.00  0.00    +0.000 A 
ATOM      4  C   UNL     1       4.407   6.857  17.447  0.00  0.00    +0.000 A 
ATOM      5  C   UNL     1       5.678   6.828  16.855  0.00  0.00    +0.000 A 
ATOM      6  C   UNL     1       6.207   5.618  16.353  0.00  0.00    +0.000 A 
ATOM      7  C   UNL     1       5.446   4.431  16.437  0.00  0.00    +0.000 A 
ATOM      8  C   UNL     1       4.185   4.485  17.046  0.00  0.00    +0.000 A 
ATOM      9  C   UNL     1       3.182   3.388  17.140  0.00  0.00    +0.000 C 
ENDROOT
BRANCH   1  10
ATOM     10  N   UNL     1       2.353   3.451  19.502  0.00  0.00    +0.000 NA
ATOM     11  H   UNL     1       3.050   2.672  19.454  0.00  0.00    +0.000 HD
BRANCH  10  13
ATOM     12  C   UNL     1       1.562   2.648  21.680  0.00  0.00    +0.000 C 
ATOM     13  C   UNL     1       1.167   2.995  20.246  0.00  0.00    +0.000 C 
ENDBRANCH  10  13
ENDBRANCH   1  10
BRANCH   6  14
ATOM     14  O   UNL     1       7.423   5.599  15.770  0.00  0.00    +0.000 OA
ATOM     15  H   UNL     1       8.178   6.083  16.136  0.00  0.00    +0.000 HD
ENDBRANCH   6  14
BRANCH   7  16
ATOM     16  O   UNL     1       5.903   3.260  15.948  0.00  0.00    +0.000 OA
ATOM     17  H   UNL     1       6.579   2.736  16.402  0.00  0.00    +0.000 HD
ENDBRANCH   7  16
TORSDOF 4
ENDMDL
MODEL 4
REMARK VINA RESULT:      -6.1      2.731      4.903
REMARK  Name = 
REMARK  5 active torsions:
REMARK  status: ('A' for Active; 'I' for Inactive)
REMARK    1  A    between atoms: C_1  and  C_2
REMARK    2  A    between atoms: C_2  and  N_3
REMARK    3  A    between atoms: N_3  and  C_4
REMARK    4  A    between atoms: C_9  and  O_10
REMARK    5  A    between atoms: C_11  and  O_12
REMARK                            x       y       z     vdW  Elec       q    Type
REMARK                         _______ _______ _______ _____ _____    ______ ____
ROOT
ATOM      1  C   UNL     1       1.946   2.745  18.155  0.00  0.00    +0.000 C 
ATOM      2  C   UNL     1       1.496   4.226  18.131  0.00  0.00    +0.000 C 
ATOM      3  C   UNL     1       2.756   4.945  17.813  0.00  0.00    +0.000 A 
ATOM      4  C   UNL     1       2.964   6.324  17.835  0.00  0.00    +0.000 A 
ATOM      5  C   UNL     1       4.207   6.827  17.422  0.00  0.00    +0.000 A 
ATOM      6  C   UNL     1       5.222   5.952  16.979  0.00  0.00    +0.000 A 
ATOM      7  C   UNL     1       4.982   4.560  16.940  0.00  0.00    +0.000 A 
ATOM      8  C   UNL     1       3.737   4.083  17.371  0.00  0.00    +0.000 A 
ATOM      9  C   UNL     1       3.239   2.681  17.311  0.00  0.00    +0.000 C 
ENDROOT
BRANCH   1  10
ATOM     10  N   UNL     1       2.174   2.260  19.538  0.00  0.00    +0.000 NA
ATOM     11  H   UNL     1       2.091   1.217  19.534  0.00  0.00    +0.000 HD
BRANCH  10  13
ATOM     12  C   UNL     1       2.191   3.423  21.696  0.00  0.00    +0.000 C 
ATOM     13  C   UNL     1       1.319   2.811  20.602  0.00  0.00    +0.000 C 
ENDBRANCH  10  13
ENDBRANCH   1  10
BRANCH   6  14
ATOM     14  O   UNL     1       6.410   6.442  16.568  0.00  0.00    +0.000 OA
ATOM     15  H   UNL     1       6.628   7.383  16.630  0.00  0.00    +0.000 HD
ENDBRANCH   6  14
BRANCH   7  16
ATOM     16  O   UNL     1       5.916   3.691  16.501  0.00  0.00    +0.000 OA
ATOM     17  H   UNL     1       6.810   3.660  16.870  0.00  0.00    +0.000 HD
ENDBRANCH   7  16
TORSDOF 4
ENDMDL
MODEL 5
REMARK VINA RESULT:      -6.0      1.518      1.748
REMARK  Name = 
REMARK  5 active torsions:
REMARK  status: ('A' for Active; 'I' for Inactive)
REMARK    1  A    between atoms: C_1  and  C_2
REMARK    2  A    between atoms: C_2  and  N_3
REMARK    3  A    between atoms: N_3  and  C_4
REMARK    4  A    between atoms: C_9  and  O_10
REMARK    5  A    between atoms: C_11  and  O_12
REMARK                            x       y       z     vdW  Elec       q    Type
REMARK                         _______ _______ _______ _____ _____    ______ ____
ROOT
ATOM      1  C   UNL     1       7.174   6.182  17.036  0.00  0.00    +0.000 C 
ATOM      2  C   UNL     1       5.927   7.088  17.172  0.00  0.00    +0.000 C 
ATOM      3  C   UNL     1       4.914   6.165  17.747  0.00  0.00    +0.000 A 
ATOM      4  C   UNL     1       3.553   6.414  17.919  0.00  0.00    +0.000 A 
ATOM      5  C   UNL     1       2.763   5.447  18.559  0.00  0.00    +0.000 A 
ATOM      6  C   UNL     1       3.343   4.250  19.033  0.00  0.00    +0.000 A 
ATOM      7  C   UNL     1       4.730   4.029  18.873  0.00  0.00    +0.000 A 
ATOM      8  C   UNL     1       5.491   5.005  18.217  0.00  0.00    +0.000 A 
ATOM      9  C   UNL     1       6.970   5.025  18.040  0.00  0.00    +0.000 C 
ENDROOT
BRANCH   1  10
ATOM     10  N   UNL     1       7.342   5.678  15.651  0.00  0.00    +0.000 NA
ATOM     11  H   UNL     1       6.821   6.316  15.008  0.00  0.00    +0.000 HD
BRANCH  10  13
ATOM     12  C   UNL     1       5.752   4.268  14.428  0.00  0.00    +0.000 C 
ATOM     13  C   UNL     1       6.945   4.286  15.382  0.00  0.00    +0.000 C 
ENDBRANCH  10  13
ENDBRANCH   1  10
BRANCH   6  14
ATOM     14  O   UNL     1       2.583   3.330  19.663  0.00  0.00    +0.000 OA
ATOM     15  H   UNL     1       2.438   3.349  20.621  0.00  0.00    +0.000 HD
ENDBRANCH   6  14
BRANCH   7  16
ATOM     16  O   UNL     1       5.327   2.911  19.333  0.00  0.00    +0.000 OA
ATOM     17  H   UNL     1       4.966   2.394  20.068  0.00  0.00    +0.000 HD
ENDBRANCH   7  16
TORSDOF 4
ENDMDL
MODEL 6
REMARK VINA RESULT:      -6.0      1.184      1.184
REMARK  Name = 
REMARK  5 active torsions:
REMARK  status: ('A' for Active; 'I' for Inactive)
REMARK    1  A    between atoms: C_1  and  C_2
REMARK    2  A    between atoms: C_2  and  N_3
REMARK    3  A    between atoms: N_3  and  C_4
REMARK    4  A    between atoms: C_9  and  O_10
REMARK    5  A    between atoms: C_11  and  O_12
REMARK                            x       y       z     vdW  Elec       q    Type
REMARK                         _______ _______ _______ _____ _____    ______ ____
ROOT
ATOM      1  C   UNL     1       5.632   6.580  16.823  0.00  0.00    +0.000 C 
ATOM      2  C   UNL     1       4.171   7.003  17.112  0.00  0.00    +0.000 C 
ATOM      3  C   UNL     1       3.614   5.806  17.792  0.00  0.00    +0.000 A 
ATOM      4  C   UNL     1       2.279   5.574  18.123  0.00  0.00    +0.000 A 
ATOM      5  C   UNL     1       1.952   4.414  18.842  0.00  0.00    +0.000 A 
ATOM      6  C   UNL     1       2.961   3.507  19.235  0.00  0.00    +0.000 A 
ATOM      7  C   UNL     1       4.310   3.774  18.911  0.00  0.00    +0.000 A 
ATOM      8  C   UNL     1       4.607   4.932  18.181  0.00  0.00    +0.000 A 
ATOM      9  C   UNL     1       5.956   5.457  17.833  0.00  0.00    +0.000 C 
ENDROOT
BRANCH   1  10
ATOM     10  N   UNL     1       5.808   6.122  15.423  0.00  0.00    +0.000 NA
ATOM     11  H   UNL     1       4.863   5.900  15.033  0.00  0.00    +0.000 HD
BRANCH  10  13
ATOM     12  C   UNL     1       6.107   4.059  14.132  0.00  0.00    +0.000 C 
ATOM     13  C   UNL     1       6.709   4.982  15.190  0.00  0.00    +0.000 C 
ENDBRANCH  10  13
ENDBRANCH   1  10
BRANCH   6  14
ATOM     14  O   UNL     1       2.643   2.402  19.940  0.00  0.00    +0.000 OA
ATOM     15  H   UNL     1       3.055   2.199  20.793  0.00  0.00    +0.000 HD
ENDBRANCH   6  14
BRANCH   7  16
ATOM     16  O   UNL     1       5.306   2.947  19.289  0.00  0.00    +0.000 OA
ATOM     17  H   UNL     1       5.969   3.198  19.948  0.00  0.00    +0.000 HD
ENDBRANCH   7  16
TORSDOF 4
ENDMDL
MODEL 7
REMARK VINA RESULT:      -5.9      2.817      5.156
REMARK  Name = 
REMARK  5 active torsions:
REMARK  status: ('A' for Active; 'I' for Inactive)
REMARK    1  A    between atoms: C_1  and  C_2
REMARK    2  A    between atoms: C_2  and  N_3
REMARK    3  A    between atoms: N_3  and  C_4
REMARK    4  A    between atoms: C_9  and  O_10
REMARK    5  A    between atoms: C_11  and  O_12
REMARK                            x       y       z     vdW  Elec       q    Type
REMARK                         _______ _______ _______ _____ _____    ______ ____
ROOT
ATOM      1  C   UNL     1       2.529   6.356  18.688  0.00  0.00    +0.000 C 
ATOM      2  C   UNL     1       3.357   7.171  17.666  0.00  0.00    +0.000 C 
ATOM      3  C   UNL     1       4.678   6.492  17.702  0.00  0.00    +0.000 A 
ATOM      4  C   UNL     1       5.859   6.921  17.095  0.00  0.00    +0.000 A 
ATOM      5  C   UNL     1       6.995   6.102  17.170  0.00  0.00    +0.000 A 
ATOM      6  C   UNL     1       6.936   4.858  17.837  0.00  0.00    +0.000 A 
ATOM      7  C   UNL     1       5.724   4.430  18.422  0.00  0.00    +0.000 A 
ATOM      8  C   UNL     1       4.609   5.275  18.345  0.00  0.00    +0.000 A 
ATOM      9  C   UNL     1       3.220   4.978  18.792  0.00  0.00    +0.000 C 
ENDROOT
BRANCH   1  10
ATOM     10  N   UNL     1       2.460   7.030  20.007  0.00  0.00    +0.000 NA
ATOM     11  H   UNL     1       2.084   6.346  20.703  0.00  0.00    +0.000 HD
BRANCH  10  13
ATOM     12  C   UNL     1       1.092   8.423  21.491  0.00  0.00    +0.000 C 
ATOM     13  C   UNL     1       1.689   8.281  20.092  0.00  0.00    +0.000 C 
ENDBRANCH  10  13
ENDBRANCH   1  10
BRANCH   6  14
ATOM     14  O   UNL     1       8.027   4.066  17.892  0.00  0.00    +0.000 OA
ATOM     15  H   UNL     1       8.581   3.896  17.116  0.00  0.00    +0.000 HD
ENDBRANCH   6  14
BRANCH   7  16
ATOM     16  O   UNL     1       5.619   3.239  19.047  0.00  0.00    +0.000 OA
ATOM     17  H   UNL     1       5.500   2.409  18.564  0.00  0.00    +0.000 HD
ENDBRANCH   7  16
TORSDOF 4
ENDMDL
MODEL 8
REMARK VINA RESULT:      -5.9      3.160      5.292
REMARK  Name = 
REMARK  5 active torsions:
REMARK  status: ('A' for Active; 'I' for Inactive)
REMARK    1  A    between atoms: C_1  and  C_2
REMARK    2  A    between atoms: C_2  and  N_3
REMARK    3  A    between atoms: N_3  and  C_4
REMARK    4  A    between atoms: C_9  and  O_10
REMARK    5  A    between atoms: C_11  and  O_12
REMARK                            x       y       z     vdW  Elec       q    Type
REMARK                         _______ _______ _______ _____ _____    ______ ____
ROOT
ATOM      1  C   UNL     1       3.295   3.330  18.764  0.00  0.00    +0.000 C 
ATOM      2  C   UNL     1       3.368   3.917  17.334  0.00  0.00    +0.000 C 
ATOM      3  C   UNL     1       4.491   4.884  17.435  0.00  0.00    +0.000 A 
ATOM      4  C   UNL     1       4.882   5.820  16.477  0.00  0.00    +0.000 A 
ATOM      5  C   UNL     1       6.025   6.597  16.718  0.00  0.00    +0.000 A 
ATOM      6  C   UNL     1       6.772   6.423  17.904  0.00  0.00    +0.000 A 
ATOM      7  C   UNL     1       6.374   5.452  18.849  0.00  0.00    +0.000 A 
ATOM      8  C   UNL     1       5.221   4.699  18.590  0.00  0.00    +0.000 A 
ATOM      9  C   UNL     1       4.690   3.560  19.389  0.00  0.00    +0.000 C 
ENDROOT
BRANCH   1  10
ATOM     10  N   UNL     1       2.226   3.968  19.570  0.00  0.00    +0.000 NA
ATOM     11  H   UNL     1       2.680   4.530  20.326  0.00  0.00    +0.000 HD
BRANCH  10  13
ATOM     12  C   UNL     1       1.619   2.714  21.587  0.00  0.00    +0.000 C 
ATOM     13  C   UNL     1       1.206   3.089  20.164  0.00  0.00    +0.000 C 
ENDBRANCH  10  13
ENDBRANCH   1  10
BRANCH   6  14
ATOM     14  O   UNL     1       7.880   7.162  18.123  0.00  0.00    +0.000 OA
ATOM     15  H   UNL     1       8.469   6.997  18.874  0.00  0.00    +0.000 HD
ENDBRANCH   6  14
BRANCH   7  16
ATOM     16  O   UNL     1       7.073   5.236  19.982  0.00  0.00    +0.000 OA
ATOM     17  H   UNL     1       6.654   5.210  20.854  0.00  0.00    +0.000 HD
ENDBRANCH   7  16
TORSDOF 4
ENDMDL
MODEL 9
REMARK VINA RESULT:      -5.9      1.572      1.864
REMARK  Name = 
REMARK  5 active torsions:
REMARK  status: ('A' for Active; 'I' for Inactive)
REMARK    1  A    between atoms: C_1  and  C_2
REMARK    2  A    between atoms: C_2  and  N_3
REMARK    3  A    between atoms: N_3  and  C_4
REMARK    4  A    between atoms: C_9  and  O_10
REMARK    5  A    between atoms: C_11  and  O_12
REMARK                            x       y       z     vdW  Elec       q    Type
REMARK                         _______ _______ _______ _____ _____    ______ ____
ROOT
ATOM      1  C   UNL     1       5.187   6.140  18.089  0.00  0.00    +0.000 C 
ATOM      2  C   UNL     1       3.675   6.429  17.932  0.00  0.00    +0.000 C 
ATOM      3  C   UNL     1       3.067   5.082  18.083  0.00  0.00    +0.000 A 
ATOM      4  C   UNL     1       1.736   4.731  17.861  0.00  0.00    +0.000 A 
ATOM      5  C   UNL     1       1.327   3.418  18.137  0.00  0.00    +0.000 A 
ATOM      6  C   UNL     1       2.246   2.474  18.645  0.00  0.00    +0.000 A 
ATOM      7  C   UNL     1       3.585   2.857  18.887  0.00  0.00    +0.000 A 
ATOM      8  C   UNL     1       3.969   4.171  18.589  0.00  0.00    +0.000 A 
ATOM      9  C   UNL     1       5.286   4.809  18.867  0.00  0.00    +0.000 C 
ENDROOT
BRANCH   1  10
ATOM     10  N   UNL     1       5.872   6.056  16.776  0.00  0.00    +0.000 NA
ATOM     11  H   UNL     1       5.689   5.108  16.375  0.00  0.00    +0.000 HD
BRANCH  10  13
ATOM     12  C   UNL     1       7.642   7.504  17.663  0.00  0.00    +0.000 C 
ATOM     13  C   UNL     1       7.319   6.324  16.747  0.00  0.00    +0.000 C 
ENDBRANCH  10  13
ENDBRANCH   1  10
BRANCH   6  14
ATOM     14  O   UNL     1       1.844   1.217  18.924  0.00  0.00    +0.000 OA
ATOM     15  H   UNL     1       2.415   0.449  18.778  0.00  0.00    +0.000 HD
ENDBRANCH   6  14
BRANCH   7  16
ATOM     16  O   UNL     1       4.488   1.993  19.394  0.00  0.00    +0.000 OA
ATOM     17  H   UNL     1       4.504   1.056  19.151  0.00  0.00    +0.000 HD
ENDBRANCH   7  16
TORSDOF 4
ENDMDL
