MODEL 1
REMARK VINA RESULT:      -7.2      0.000      0.000
REMARK  Name = 
REMARK  10 active torsions:
REMARK  status: ('A' for Active; 'I' for Inactive)
REMARK    1  A    between atoms: C_1  and  O_2
REMARK    2  A    between atoms: O_2  and  C_3
REMARK    3  A    between atoms: C_6  and  C_7
REMARK    4  A    between atoms: C_7  and  C_8
REMARK    5  A    between atoms: C_8  and  N_9
REMARK    6  A    between atoms: C_10  and  C_12
REMARK    7  A    between atoms: C_21  and  O_22
REMARK    8  A    between atoms: O_22  and  C_23
REMARK    9  A    between atoms: C_24  and  O_25
REMARK   10  A    between atoms: O_25  and  C_26
REMARK                            x       y       z     vdW  Elec       q    Type
REMARK                         _______ _______ _______ _____ _____    ______ ____
ROOT
ATOM      1  C   UNL     1       6.681   6.591  16.702  0.00  0.00    +0.000 C 
ENDROOT
BRANCH   1   2
ATOM      2  N   UNL     1       7.177   7.876  17.132  0.00  0.00    +0.000 N 
ATOM      3  C   UNL     1       8.059   7.999  18.182  0.00  0.00    +0.000 C 
ATOM      4  O   UNL     1       8.405   7.063  18.891  0.00  0.00    +0.000 OA
ATOM      5  H   UNL     1       7.071   8.702  16.548  0.00  0.00    +0.000 HD
BRANCH   3   6
ATOM      6  C   UNL     1       8.560   9.366  18.383  0.00  0.00    +0.000 A 
ATOM      7  C   UNL     1       8.288  10.469  17.542  0.00  0.00    +0.000 A 
ATOM      8  C   UNL     1       8.978  11.517  18.093  0.00  0.00    +0.000 A 
ATOM      9  C   UNL     1       9.161  12.882  17.741  0.00  0.00    +0.000 A 
ATOM     10  C   UNL     1       9.948  13.662  18.505  0.00  0.00    +0.000 A 
ATOM     11  C   UNL     1      10.609  13.141  19.690  0.00  0.00    +0.000 A 
ATOM     12  C   UNL     1      10.425  11.853  20.024  0.00  0.00    +0.000 A 
ATOM     13  N   UNL     1       9.619  11.031  19.233  0.00  0.00    +0.000 N 
ATOM     14  N   UNL     1       9.352   9.707  19.420  0.00  0.00    +0.000 NA
ENDBRANCH   3   6
ENDBRANCH   1   2
BRANCH   1  15
ATOM     15  C   UNL     1       5.178   6.577  16.370  0.00  0.00    +0.000 C 
BRANCH  15  19
ATOM     16  C   UNL     1       2.926   3.416  18.328  0.00  0.00    +0.000 A 
ATOM     17  C   UNL     1       3.795   3.128  17.270  0.00  0.00    +0.000 A 
ATOM     18  C   UNL     1       4.513   4.136  16.641  0.00  0.00    +0.000 A 
ATOM     19  C   UNL     1       4.364   5.470  17.029  0.00  0.00    +0.000 A 
ATOM     20  C   UNL     1       3.431   5.784  18.051  0.00  0.00    +0.000 A 
ATOM     21  C   UNL     1       2.695   4.757  18.704  0.00  0.00    +0.000 A 
BRANCH  16  23
ATOM     22  C   UNL     1       0.892   2.244  18.668  0.00  0.00    +0.000 C 
ATOM     23  O   UNL     1       2.277   2.395  18.978  0.00  0.00    +0.000 OA
ENDBRANCH  16  23
BRANCH  20  24
ATOM     24  O   UNL     1       3.412   7.124  18.380  0.00  0.00    +0.000 OA
ATOM     25  C   UNL     1       2.305   7.916  17.974  0.00  0.00    +0.000 C 
ENDBRANCH  20  24
BRANCH  21  26
ATOM     26  O   UNL     1       1.827   5.174  19.677  0.00  0.00    +0.000 OA
ATOM     27  C   UNL     1       2.142   5.023  21.051  0.00  0.00    +0.000 C 
ENDBRANCH  21  26
ENDBRANCH  15  19
ENDBRANCH   1  15
TORSDOF 7
ENDMDL
MODEL 2
REMARK VINA RESULT:      -7.1      4.967      8.423
REMARK  Name = 
REMARK  10 active torsions:
REMARK  status: ('A' for Active; 'I' for Inactive)
REMARK    1  A    between atoms: C_1  and  O_2
REMARK    2  A    between atoms: O_2  and  C_3
REMARK    3  A    between atoms: C_6  and  C_7
REMARK    4  A    between atoms: C_7  and  C_8
REMARK    5  A    between atoms: C_8  and  N_9
REMARK    6  A    between atoms: C_10  and  C_12
REMARK    7  A    between atoms: C_21  and  O_22
REMARK    8  A    between atoms: O_22  and  C_23
REMARK    9  A    between atoms: C_24  and  O_25
REMARK   10  A    between atoms: O_25  and  C_26
REMARK                            x       y       z     vdW  Elec       q    Type
REMARK                         _______ _______ _______ _____ _____    ______ ____
ROOT
ATOM      1  C   UNL     1       1.091   7.698  21.223  0.00  0.00    +0.000 C 
ENDROOT
BRANCH   1   2
ATOM      2  N   UNL     1       2.169   7.156  20.432  0.00  0.00    +0.000 N 
ATOM      3  C   UNL     1       2.207   5.827  20.072  0.00  0.00    +0.000 C 
ATOM      4  O   UNL     1       1.406   4.992  20.473  0.00  0.00    +0.000 OA
ATOM      5  H   UNL     1       2.812   7.765  19.932  0.00  0.00    +0.000 HD
BRANCH   3   6
ATOM      6  C   UNL     1       3.301   5.489  19.152  0.00  0.00    +0.000 A 
ATOM      7  C   UNL     1       3.142   5.049  17.818  0.00  0.00    +0.000 A 
ATOM      8  C   UNL     1       4.414   4.827  17.361  0.00  0.00    +0.000 A 
ATOM      9  C   UNL     1       4.964   4.357  16.136  0.00  0.00    +0.000 A 
ATOM     10  C   UNL     1       6.297   4.225  16.017  0.00  0.00    +0.000 A 
ATOM     11  C   UNL     1       7.192   4.563  17.112  0.00  0.00    +0.000 A 
ATOM     12  C   UNL     1       6.669   5.017  18.263  0.00  0.00    +0.000 A 
ATOM     13  N   UNL     1       5.286   5.148  18.402  0.00  0.00    +0.000 N 
ATOM     14  N   UNL     1       4.601   5.568  19.504  0.00  0.00    +0.000 NA
ENDBRANCH   3   6
ENDBRANCH   1   2
BRANCH   1  15
ATOM     15  C   UNL     1       1.437   9.020  21.933  0.00  0.00    +0.000 C 
BRANCH  15  19
ATOM     16  C   UNL     1      -1.672  12.054  22.097  0.00  0.00    +0.000 A 
ATOM     17  C   UNL     1      -1.513  11.132  23.137  0.00  0.00    +0.000 A 
ATOM     18  C   UNL     1      -0.524  10.160  23.086  0.00  0.00    +0.000 A 
ATOM     19  C   UNL     1       0.324  10.058  21.979  0.00  0.00    +0.000 A 
ATOM     20  C   UNL     1       0.126  10.941  20.886  0.00  0.00    +0.000 A 
ATOM     21  C   UNL     1      -0.882  11.942  20.932  0.00  0.00    +0.000 A 
BRANCH  16  23
ATOM     22  C   UNL     1      -3.938  12.689  21.807  0.00  0.00    +0.000 C 
ATOM     23  O   UNL     1      -2.613  13.048  22.201  0.00  0.00    +0.000 OA
ENDBRANCH  16  23
BRANCH  20  24
ATOM     24  O   UNL     1       1.055  10.777  19.878  0.00  0.00    +0.000 OA
ATOM     25  C   UNL     1       0.632  10.240  18.634  0.00  0.00    +0.000 C 
ENDBRANCH  20  24
BRANCH  21  26
ATOM     26  O   UNL     1      -0.979  12.741  19.824  0.00  0.00    +0.000 OA
ATOM     27  C   UNL     1      -0.307  13.987  19.759  0.00  0.00    +0.000 C 
ENDBRANCH  21  26
ENDBRANCH  15  19
ENDBRANCH   1  15
TORSDOF 7
ENDMDL
MODEL 3
REMARK VINA RESULT:      -7.1      1.436      2.780
REMARK  Name = 
REMARK  10 active torsions:
REMARK  status: ('A' for Active; 'I' for Inactive)
REMARK    1  A    between atoms: C_1  and  O_2
REMARK    2  A    between atoms: O_2  and  C_3
REMARK    3  A    between atoms: C_6  and  C_7
REMARK    4  A    between atoms: C_7  and  C_8
REMARK    5  A    between atoms: C_8  and  N_9
REMARK    6  A    between atoms: C_10  and  C_12
REMARK    7  A    between atoms: C_21  and  O_22
REMARK    8  A    between atoms: O_22  and  C_23
REMARK    9  A    between atoms: C_24  and  O_25
REMARK   10  A    between atoms: O_25  and  C_26
REMARK                            x       y       z     vdW  Elec       q    Type
REMARK                         _______ _______ _______ _____ _____    ______ ____
ROOT
ATOM      1  C   UNL     1       6.616   6.181  16.544  0.00  0.00    +0.000 C 
ENDROOT
BRANCH   1   2
ATOM      2  N   UNL     1       7.054   7.493  16.955  0.00  0.00    +0.000 N 
ATOM      3  C   UNL     1       7.882   7.674  18.041  0.00  0.00    +0.000 C 
ATOM      4  O   UNL     1       8.221   6.770  18.794  0.00  0.00    +0.000 OA
ATOM      5  H   UNL     1       6.952   8.297  16.342  0.00  0.00    +0.000 HD
BRANCH   3   6
ATOM      6  C   UNL     1       8.334   9.060  18.222  0.00  0.00    +0.000 A 
ATOM      7  C   UNL     1       9.238   9.503  19.214  0.00  0.00    +0.000 A 
ATOM      8  C   UNL     1       9.341  10.856  19.026  0.00  0.00    +0.000 A 
ATOM      9  C   UNL     1      10.047  11.901  19.683  0.00  0.00    +0.000 A 
ATOM     10  C   UNL     1       9.907  13.167  19.251  0.00  0.00    +0.000 A 
ATOM     11  C   UNL     1       9.054  13.491  18.118  0.00  0.00    +0.000 A 
ATOM     12  C   UNL     1       8.398  12.499  17.494  0.00  0.00    +0.000 A 
ATOM     13  N   UNL     1       8.527  11.181  17.941  0.00  0.00    +0.000 N 
ATOM     14  N   UNL     1       7.915  10.073  17.436  0.00  0.00    +0.000 NA
ENDBRANCH   3   6
ENDBRANCH   1   2
BRANCH   1  15
ATOM     15  C   UNL     1       5.106   6.083  16.263  0.00  0.00    +0.000 C 
BRANCH  15  19
ATOM     16  C   UNL     1       2.426   6.742  19.622  0.00  0.00    +0.000 A 
ATOM     17  C   UNL     1       2.633   7.739  18.662  0.00  0.00    +0.000 A 
ATOM     18  C   UNL     1       3.491   7.533  17.591  0.00  0.00    +0.000 A 
ATOM     19  C   UNL     1       4.193   6.332  17.457  0.00  0.00    +0.000 A 
ATOM     20  C   UNL     1       4.048   5.341  18.462  0.00  0.00    +0.000 A 
ATOM     21  C   UNL     1       3.168   5.542  19.560  0.00  0.00    +0.000 A 
BRANCH  16  23
ATOM     22  C   UNL     1       1.273   8.308  20.980  0.00  0.00    +0.000 C 
ATOM     23  O   UNL     1       1.522   6.945  20.635  0.00  0.00    +0.000 OA
ENDBRANCH  16  23
BRANCH  20  24
ATOM     24  O   UNL     1       4.749   4.184  18.193  0.00  0.00    +0.000 OA
ATOM     25  C   UNL     1       4.093   3.124  17.513  0.00  0.00    +0.000 C 
ENDBRANCH  20  24
BRANCH  21  26
ATOM     26  O   UNL     1       3.102   4.518  20.467  0.00  0.00    +0.000 OA
ATOM     27  C   UNL     1       2.027   3.594  20.449  0.00  0.00    +0.000 C 
ENDBRANCH  21  26
ENDBRANCH  15  19
ENDBRANCH   1  15
TORSDOF 7
ENDMDL
MODEL 4
REMARK VINA RESULT:      -7.0      5.354      8.703
REMARK  Name = 
REMARK  10 active torsions:
REMARK  status: ('A' for Active; 'I' for Inactive)
REMARK    1  A    between atoms: C_1  and  O_2
REMARK    2  A    between atoms: O_2  and  C_3
REMARK    3  A    between atoms: C_6  and  C_7
REMARK    4  A    between atoms: C_7  and  C_8
REMARK    5  A    between atoms: C_8  and  N_9
REMARK    6  A    between atoms: C_10  and  C_12
REMARK    7  A    between atoms: C_21  and  O_22
REMARK    8  A    between atoms: O_22  and  C_23
REMARK    9  A    between atoms: C_24  and  O_25
REMARK   10  A    between atoms: O_25  and  C_26
REMARK                            x       y       z     vdW  Elec       q    Type
REMARK                         _______ _______ _______ _____ _____    ______ ____
ROOT
ATOM      1  C   UNL     1       1.907   9.183  17.952  0.00  0.00    +0.000 C 
ENDROOT
BRANCH   1   2
ATOM      2  N   UNL     1       0.523   9.590  17.945  0.00  0.00    +0.000 N 
ATOM      3  C   UNL     1       0.081  10.671  18.675  0.00  0.00    +0.000 C 
ATOM      4  O   UNL     1       0.786  11.297  19.456  0.00  0.00    +0.000 OA
ATOM      5  H   UNL     1      -0.125   9.240  17.243  0.00  0.00    +0.000 HD
BRANCH   3   6
ATOM      6  C   UNL     1      -1.327  11.019  18.435  0.00  0.00    +0.000 A 
ATOM      7  C   UNL     1      -2.017  10.839  17.214  0.00  0.00    +0.000 A 
ATOM      8  C   UNL     1      -3.277  11.325  17.441  0.00  0.00    +0.000 A 
ATOM      9  C   UNL     1      -4.445  11.472  16.643  0.00  0.00    +0.000 A 
ATOM     10  C   UNL     1      -5.546  12.030  17.180  0.00  0.00    +0.000 A 
ATOM     11  C   UNL     1      -5.571  12.478  18.563  0.00  0.00    +0.000 A 
ATOM     12  C   UNL     1      -4.468  12.327  19.315  0.00  0.00    +0.000 A 
ATOM     13  N   UNL     1      -3.316  11.759  18.766  0.00  0.00    +0.000 N 
ATOM     14  N   UNL     1      -2.117  11.559  19.384  0.00  0.00    +0.000 NA
ENDBRANCH   3   6
ENDBRANCH   1   2
BRANCH   1  15
ATOM     15  C   UNL     1       2.201   7.973  18.858  0.00  0.00    +0.000 C 
BRANCH  15  19
ATOM     16  C   UNL     1       5.135   5.136  17.361  0.00  0.00    +0.000 A 
ATOM     17  C   UNL     1       4.841   6.305  16.652  0.00  0.00    +0.000 A 
ATOM     18  C   UNL     1       3.902   7.211  17.125  0.00  0.00    +0.000 A 
ATOM     19  C   UNL     1       3.204   6.965  18.311  0.00  0.00    +0.000 A 
ATOM     20  C   UNL     1       3.440   5.748  19.001  0.00  0.00    +0.000 A 
ATOM     21  C   UNL     1       4.403   4.817  18.526  0.00  0.00    +0.000 A 
BRANCH  16  23
ATOM     22  C   UNL     1       6.016   3.905  15.536  0.00  0.00    +0.000 C 
ATOM     23  O   UNL     1       6.115   4.288  16.907  0.00  0.00    +0.000 OA
ENDBRANCH  16  23
BRANCH  20  24
ATOM     24  O   UNL     1       2.731   5.644  20.180  0.00  0.00    +0.000 OA
ATOM     25  C   UNL     1       1.607   4.776  20.233  0.00  0.00    +0.000 C 
ENDBRANCH  20  24
BRANCH  21  26
ATOM     26  O   UNL     1       4.552   3.679  19.274  0.00  0.00    +0.000 OA
ATOM     27  C   UNL     1       3.914   2.469  18.898  0.00  0.00    +0.000 C 
ENDBRANCH  21  26
ENDBRANCH  15  19
ENDBRANCH   1  15
TORSDOF 7
ENDMDL
MODEL 5
REMARK VINA RESULT:      -7.0      4.680      5.966
REMARK  Name = 
REMARK  10 active torsions:
REMARK  status: ('A' for Active; 'I' for Inactive)
REMARK    1  A    between atoms: C_1  and  O_2
REMARK    2  A    between atoms: O_2  and  C_3
REMARK    3  A    between atoms: C_6  and  C_7
REMARK    4  A    between atoms: C_7  and  C_8
REMARK    5  A    between atoms: C_8  and  N_9
REMARK    6  A    between atoms: C_10  and  C_12
REMARK    7  A    between atoms: C_21  and  O_22
REMARK    8  A    between atoms: O_22  and  C_23
REMARK    9  A    between atoms: C_24  and  O_25
REMARK   10  A    between atoms: O_25  and  C_26
REMARK                            x       y       z     vdW  Elec       q    Type
REMARK                         _______ _______ _______ _____ _____    ______ ____
ROOT
ATOM      1  C   UNL     1       1.446   8.771  17.727  0.00  0.00    +0.000 C 
ENDROOT
BRANCH   1   2
ATOM      2  N   UNL     1       1.565  10.209  17.691  0.00  0.00    +0.000 N 
ATOM      3  C   UNL     1       1.311  10.985  18.800  0.00  0.00    +0.000 C 
ATOM      4  O   UNL     1       0.870  10.542  19.853  0.00  0.00    +0.000 OA
ATOM      5  H   UNL     1       2.046  10.678  16.928  0.00  0.00    +0.000 HD
BRANCH   3   6
ATOM      6  C   UNL     1       1.621  12.410  18.615  0.00  0.00    +0.000 A 
ATOM      7  C   UNL     1       2.804  12.921  18.034  0.00  0.00    +0.000 A 
ATOM      8  C   UNL     1       2.673  14.283  18.097  0.00  0.00    +0.000 A 
ATOM      9  C   UNL     1       3.496  15.380  17.722  0.00  0.00    +0.000 A 
ATOM     10  C   UNL     1       3.070  16.636  17.952  0.00  0.00    +0.000 A 
ATOM     11  C   UNL     1       1.779  16.897  18.567  0.00  0.00    +0.000 A 
ATOM     12  C   UNL     1       1.000  15.857  18.909  0.00  0.00    +0.000 A 
ATOM     13  N   UNL     1       1.436  14.549  18.686  0.00  0.00    +0.000 N 
ATOM     14  N   UNL     1       0.781  13.394  18.995  0.00  0.00    +0.000 NA
ENDBRANCH   3   6
ENDBRANCH   1   2
BRANCH   1  15
ATOM     15  C   UNL     1       2.791   8.033  17.849  0.00  0.00    +0.000 C 
BRANCH  15  19
ATOM     16  C   UNL     1       2.704   4.460  20.325  0.00  0.00    +0.000 A 
ATOM     17  C   UNL     1       2.067   5.635  20.738  0.00  0.00    +0.000 A 
ATOM     18  C   UNL     1       2.096   6.778  19.951  0.00  0.00    +0.000 A 
ATOM     19  C   UNL     1       2.787   6.795  18.737  0.00  0.00    +0.000 A 
ATOM     20  C   UNL     1       3.499   5.632  18.341  0.00  0.00    +0.000 A 
ATOM     21  C   UNL     1       3.470   4.455  19.139  0.00  0.00    +0.000 A 
BRANCH  16  23
ATOM     22  C   UNL     1       1.303   2.742  21.168  0.00  0.00    +0.000 C 
ATOM     23  O   UNL     1       2.605   3.323  21.088  0.00  0.00    +0.000 OA
ENDBRANCH  16  23
BRANCH  20  24
ATOM     24  O   UNL     1       4.097   5.753  17.104  0.00  0.00    +0.000 OA
ATOM     25  C   UNL     1       5.500   5.959  17.035  0.00  0.00    +0.000 C 
ENDBRANCH  20  24
BRANCH  21  26
ATOM     26  O   UNL     1       4.188   3.392  18.658  0.00  0.00    +0.000 OA
ATOM     27  C   UNL     1       3.559   2.361  17.916  0.00  0.00    +0.000 C 
ENDBRANCH  21  26
ENDBRANCH  15  19
ENDBRANCH   1  15
TORSDOF 7
ENDMDL
MODEL 6
REMARK VINA RESULT:      -7.0      5.103      8.522
REMARK  Name = 
REMARK  10 active torsions:
REMARK  status: ('A' for Active; 'I' for Inactive)
REMARK    1  A    between atoms: C_1  and  O_2
REMARK    2  A    between atoms: O_2  and  C_3
REMARK    3  A    between atoms: C_6  and  C_7
REMARK    4  A    between atoms: C_7  and  C_8
REMARK    5  A    between atoms: C_8  and  N_9
REMARK    6  A    between atoms: C_10  and  C_12
REMARK    7  A    between atoms: C_21  and  O_22
REMARK    8  A    between atoms: O_22  and  C_23
REMARK    9  A    between atoms: C_24  and  O_25
REMARK   10  A    between atoms: O_25  and  C_26
REMARK                            x       y       z     vdW  Elec       q    Type
REMARK                         _______ _______ _______ _____ _____    ______ ____
ROOT
ATOM      1  C   UNL     1       0.978   7.729  21.355  0.00  0.00    +0.000 C 
ENDROOT
BRANCH   1   2
ATOM      2  N   UNL     1       1.925   7.318  20.347  0.00  0.00    +0.000 N 
ATOM      3  C   UNL     1       2.188   5.989  20.098  0.00  0.00    +0.000 C 
ATOM      4  O   UNL     1       1.733   5.070  20.767  0.00  0.00    +0.000 OA
ATOM      5  H   UNL     1       2.262   7.972  19.645  0.00  0.00    +0.000 HD
BRANCH   3   6
ATOM      6  C   UNL     1       3.071   5.762  18.945  0.00  0.00    +0.000 A 
ATOM      7  C   UNL     1       3.574   6.768  18.089  0.00  0.00    +0.000 A 
ATOM      8  C   UNL     1       4.315   6.101  17.151  0.00  0.00    +0.000 A 
ATOM      9  C   UNL     1       5.058   6.495  16.004  0.00  0.00    +0.000 A 
ATOM     10  C   UNL     1       5.669   5.558  15.256  0.00  0.00    +0.000 A 
ATOM     11  C   UNL     1       5.595   4.148  15.602  0.00  0.00    +0.000 A 
ATOM     12  C   UNL     1       4.902   3.781  16.692  0.00  0.00    +0.000 A 
ATOM     13  N   UNL     1       4.254   4.743  17.469  0.00  0.00    +0.000 N 
ATOM     14  N   UNL     1       3.497   4.534  18.583  0.00  0.00    +0.000 NA
ENDBRANCH   3   6
ENDBRANCH   1   2
BRANCH   1  15
ATOM     15  C   UNL     1       1.312   9.078  22.018  0.00  0.00    +0.000 C 
BRANCH  15  19
ATOM     16  C   UNL     1      -1.762  12.150  21.910  0.00  0.00    +0.000 A 
ATOM     17  C   UNL     1      -1.591  11.344  23.041  0.00  0.00    +0.000 A 
ATOM     18  C   UNL     1      -0.614  10.360  23.077  0.00  0.00    +0.000 A 
ATOM     19  C   UNL     1       0.210  10.129  21.972  0.00  0.00    +0.000 A 
ATOM     20  C   UNL     1      -0.001  10.889  20.793  0.00  0.00    +0.000 A 
ATOM     21  C   UNL     1      -0.997  11.902  20.749  0.00  0.00    +0.000 A 
BRANCH  16  23
ATOM     22  C   UNL     1      -4.046  12.759  21.719  0.00  0.00    +0.000 C 
ATOM     23  O   UNL     1      -2.691  13.161  21.923  0.00  0.00    +0.000 OA
ENDBRANCH  16  23
BRANCH  20  24
ATOM     24  O   UNL     1       0.905  10.605  19.791  0.00  0.00    +0.000 OA
ATOM     25  C   UNL     1       0.431  10.060  18.569  0.00  0.00    +0.000 C 
ENDBRANCH  20  24
BRANCH  21  26
ATOM     26  O   UNL     1      -1.110  12.576  19.562  0.00  0.00    +0.000 OA
ATOM     27  C   UNL     1      -0.443  13.811  19.357  0.00  0.00    +0.000 C 
ENDBRANCH  21  26
ENDBRANCH  15  19
ENDBRANCH   1  15
TORSDOF 7
ENDMDL
MODEL 7
REMARK VINA RESULT:      -7.0      5.230      8.641
REMARK  Name = 
REMARK  10 active torsions:
REMARK  status: ('A' for Active; 'I' for Inactive)
REMARK    1  A    between atoms: C_1  and  O_2
REMARK    2  A    between atoms: O_2  and  C_3
REMARK    3  A    between atoms: C_6  and  C_7
REMARK    4  A    between atoms: C_7  and  C_8
REMARK    5  A    between atoms: C_8  and  N_9
REMARK    6  A    between atoms: C_10  and  C_12
REMARK    7  A    between atoms: C_21  and  O_22
REMARK    8  A    between atoms: O_22  and  C_23
REMARK    9  A    between atoms: C_24  and  O_25
REMARK   10  A    between atoms: O_25  and  C_26
REMARK                            x       y       z     vdW  Elec       q    Type
REMARK                         _______ _______ _______ _____ _____    ______ ____
ROOT
ATOM      1  C   UNL     1       2.020   9.145  17.837  0.00  0.00    +0.000 C 
ENDROOT
BRANCH   1   2
ATOM      2  N   UNL     1       0.650   9.599  17.870  0.00  0.00    +0.000 N 
ATOM      3  C   UNL     1       0.235  10.588  18.733  0.00  0.00    +0.000 C 
ATOM      4  O   UNL     1       0.950  11.080  19.597  0.00  0.00    +0.000 OA
ATOM      5  H   UNL     1       0.002   9.368  17.122  0.00  0.00    +0.000 HD
BRANCH   3   6
ATOM      6  C   UNL     1      -1.156  11.015  18.527  0.00  0.00    +0.000 A 
ATOM      7  C   UNL     1      -1.970  11.647  19.495  0.00  0.00    +0.000 A 
ATOM      8  C   UNL     1      -3.180  11.830  18.879  0.00  0.00    +0.000 A 
ATOM      9  C   UNL     1      -4.430  12.372  19.285  0.00  0.00    +0.000 A 
ATOM     10  C   UNL     1      -5.460  12.380  18.418  0.00  0.00    +0.000 A 
ATOM     11  C   UNL     1      -5.319  11.854  17.070  0.00  0.00    +0.000 A 
ATOM     12  C   UNL     1      -4.133  11.353  16.689  0.00  0.00    +0.000 A 
ATOM     13  N   UNL     1      -3.060  11.329  17.583  0.00  0.00    +0.000 N 
ATOM     14  N   UNL     1      -1.808  10.837  17.360  0.00  0.00    +0.000 NA
ENDBRANCH   3   6
ENDBRANCH   1   2
BRANCH   1  15
ATOM     15  C   UNL     1       2.301   7.931  18.741  0.00  0.00    +0.000 C 
BRANCH  15  19
ATOM     16  C   UNL     1       5.223   5.080  17.247  0.00  0.00    +0.000 A 
ATOM     17  C   UNL     1       4.895   6.224  16.511  0.00  0.00    +0.000 A 
ATOM     18  C   UNL     1       3.960   7.134  16.983  0.00  0.00    +0.000 A 
ATOM     19  C   UNL     1       3.299   6.917  18.196  0.00  0.00    +0.000 A 
ATOM     20  C   UNL     1       3.570   5.725  18.917  0.00  0.00    +0.000 A 
ATOM     21  C   UNL     1       4.530   4.790  18.442  0.00  0.00    +0.000 A 
BRANCH  16  23
ATOM     22  C   UNL     1       6.093   3.842  15.421  0.00  0.00    +0.000 C 
ATOM     23  O   UNL     1       6.200   4.229  16.790  0.00  0.00    +0.000 OA
ENDBRANCH  16  23
BRANCH  20  24
ATOM     24  O   UNL     1       2.897   5.650  20.119  0.00  0.00    +0.000 OA
ATOM     25  C   UNL     1       1.701   4.889  20.192  0.00  0.00    +0.000 C 
ENDBRANCH  20  24
BRANCH  21  26
ATOM     26  O   UNL     1       4.714   3.678  19.220  0.00  0.00    +0.000 OA
ATOM     27  C   UNL     1       4.032   2.467  18.937  0.00  0.00    +0.000 C 
ENDBRANCH  21  26
ENDBRANCH  15  19
ENDBRANCH   1  15
TORSDOF 7
ENDMDL
MODEL 8
REMARK VINA RESULT:      -7.0      5.248      8.531
REMARK  Name = 
REMARK  10 active torsions:
REMARK  status: ('A' for Active; 'I' for Inactive)
REMARK    1  A    between atoms: C_1  and  O_2
REMARK    2  A    between atoms: O_2  and  C_3
REMARK    3  A    between atoms: C_6  and  C_7
REMARK    4  A    between atoms: C_7  and  C_8
REMARK    5  A    between atoms: C_8  and  N_9
REMARK    6  A    between atoms: C_10  and  C_12
REMARK    7  A    between atoms: C_21  and  O_22
REMARK    8  A    between atoms: O_22  and  C_23
REMARK    9  A    between atoms: C_24  and  O_25
REMARK   10  A    between atoms: O_25  and  C_26
REMARK                            x       y       z     vdW  Elec       q    Type
REMARK                         _______ _______ _______ _____ _____    ______ ____
ROOT
ATOM      1  C   UNL     1       1.284   8.076  20.989  0.00  0.00    +0.000 C 
ENDROOT
BRANCH   1   2
ATOM      2  N   UNL     1       2.343   7.448  20.236  0.00  0.00    +0.000 N 
ATOM      3  C   UNL     1       2.324   6.103  19.941  0.00  0.00    +0.000 C 
ATOM      4  O   UNL     1       1.484   5.325  20.374  0.00  0.00    +0.000 OA
ATOM      5  H   UNL     1       3.016   8.003  19.713  0.00  0.00    +0.000 HD
BRANCH   3   6
ATOM      6  C   UNL     1       3.409   5.672  19.048  0.00  0.00    +0.000 A 
ATOM      7  C   UNL     1       3.239   5.164  17.740  0.00  0.00    +0.000 A 
ATOM      8  C   UNL     1       4.504   4.869  17.305  0.00  0.00    +0.000 A 
ATOM      9  C   UNL     1       5.041   4.310  16.112  0.00  0.00    +0.000 A 
ATOM     10  C   UNL     1       6.369   4.121  16.010  0.00  0.00    +0.000 A 
ATOM     11  C   UNL     1       7.271   4.486  17.090  0.00  0.00    +0.000 A 
ATOM     12  C   UNL     1       6.760   5.023  18.210  0.00  0.00    +0.000 A 
ATOM     13  N   UNL     1       5.382   5.214  18.332  0.00  0.00    +0.000 N 
ATOM     14  N   UNL     1       4.709   5.721  19.404  0.00  0.00    +0.000 NA
ENDBRANCH   3   6
ENDBRANCH   1   2
BRANCH   1  15
ATOM     15  C   UNL     1       0.566   9.210  20.236  0.00  0.00    +0.000 C 
BRANCH  15  19
ATOM     16  C   UNL     1      -1.793  11.918  22.687  0.00  0.00    +0.000 A 
ATOM     17  C   UNL     1      -1.166  10.801  23.250  0.00  0.00    +0.000 A 
ATOM     18  C   UNL     1      -0.416   9.933  22.470  0.00  0.00    +0.000 A 
ATOM     19  C   UNL     1      -0.289  10.136  21.093  0.00  0.00    +0.000 A 
ATOM     20  C   UNL     1      -0.980  11.223  20.497  0.00  0.00    +0.000 A 
ATOM     21  C   UNL     1      -1.747  12.119  21.290  0.00  0.00    +0.000 A 
BRANCH  16  23
ATOM     22  C   UNL     1      -3.718  12.328  24.009  0.00  0.00    +0.000 C 
ATOM     23  O   UNL     1      -2.474  12.798  23.490  0.00  0.00    +0.000 OA
ENDBRANCH  16  23
BRANCH  20  24
ATOM     24  O   UNL     1      -0.736  11.348  19.145  0.00  0.00    +0.000 OA
ATOM     25  C   UNL     1      -1.684  10.829  18.224  0.00  0.00    +0.000 C 
ENDBRANCH  20  24
BRANCH  21  26
ATOM     26  O   UNL     1      -2.366  13.135  20.611  0.00  0.00    +0.000 OA
ATOM     27  C   UNL     1      -3.753  13.081  20.321  0.00  0.00    +0.000 C 
ENDBRANCH  21  26
ENDBRANCH  15  19
ENDBRANCH   1  15
TORSDOF 7
ENDMDL
MODEL 9
REMARK VINA RESULT:      -7.0      5.113      8.036
REMARK  Name = 
REMARK  10 active torsions:
REMARK  status: ('A' for Active; 'I' for Inactive)
REMARK    1  A    between atoms: C_1  and  O_2
REMARK    2  A    between atoms: O_2  and  C_3
REMARK    3  A    between atoms: C_6  and  C_7
REMARK    4  A    between atoms: C_7  and  C_8
REMARK    5  A    between atoms: C_8  and  N_9
REMARK    6  A    between atoms: C_10  and  C_12
REMARK    7  A    between atoms: C_21  and  O_22
REMARK    8  A    between atoms: O_22  and  C_23
REMARK    9  A    between atoms: C_24  and  O_25
REMARK   10  A    between atoms: O_25  and  C_26
REMARK                            x       y       z     vdW  Elec       q    Type
REMARK                         _______ _______ _______ _____ _____    ______ ____
ROOT
ATOM      1  C   UNL     1       1.274   7.322  21.064  0.00  0.00    +0.000 C 
ENDROOT
BRANCH   1   2
ATOM      2  N   UNL     1       2.388   6.809  20.304  0.00  0.00    +0.000 N 
ATOM      3  C   UNL     1       2.452   5.490  19.911  0.00  0.00    +0.000 C 
ATOM      4  O   UNL     1       1.643   4.639  20.256  0.00  0.00    +0.000 OA
ATOM      5  H   UNL     1       3.046   7.436  19.847  0.00  0.00    +0.000 HD
BRANCH   3   6
ATOM      6  C   UNL     1       3.587   5.185  19.028  0.00  0.00    +0.000 A 
ATOM      7  C   UNL     1       4.951   5.298  19.380  0.00  0.00    +0.000 A 
ATOM      8  C   UNL     1       5.642   4.944  18.252  0.00  0.00    +0.000 A 
ATOM      9  C   UNL     1       7.021   4.868  17.912  0.00  0.00    +0.000 A 
ATOM     10  C   UNL     1       7.376   4.499  16.668  0.00  0.00    +0.000 A 
ATOM     11  C   UNL     1       6.379   4.165  15.663  0.00  0.00    +0.000 A 
ATOM     12  C   UNL     1       5.078   4.228  15.993  0.00  0.00    +0.000 A 
ATOM     13  N   UNL     1       4.697   4.621  17.278  0.00  0.00    +0.000 N 
ATOM     14  N   UNL     1       3.429   4.757  17.759  0.00  0.00    +0.000 NA
ENDBRANCH   3   6
ENDBRANCH   1   2
BRANCH   1  15
ATOM     15  C   UNL     1       1.365   8.828  21.371  0.00  0.00    +0.000 C 
BRANCH  15  19
ATOM     16  C   UNL     1      -1.037  11.379  18.797  0.00  0.00    +0.000 A 
ATOM     17  C   UNL     1      -0.316  10.301  18.270  0.00  0.00    +0.000 A 
ATOM     18  C   UNL     1       0.454   9.488  19.089  0.00  0.00    +0.000 A 
ATOM     19  C   UNL     1       0.554   9.740  20.460  0.00  0.00    +0.000 A 
ATOM     20  C   UNL     1      -0.113  10.872  20.995  0.00  0.00    +0.000 A 
ATOM     21  C   UNL     1      -0.908  11.709  20.164  0.00  0.00    +0.000 A 
BRANCH  16  23
ATOM     22  C   UNL     1      -2.664  11.390  17.072  0.00  0.00    +0.000 C 
ATOM     23  O   UNL     1      -1.844  12.129  17.978  0.00  0.00    +0.000 OA
ENDBRANCH  16  23
BRANCH  20  24
ATOM     24  O   UNL     1       0.018  10.986  22.364  0.00  0.00    +0.000 OA
ATOM     25  C   UNL     1      -0.953  10.374  23.201  0.00  0.00    +0.000 C 
ENDBRANCH  20  24
BRANCH  21  26
ATOM     26  O   UNL     1      -1.510  12.769  20.788  0.00  0.00    +0.000 OA
ATOM     27  C   UNL     1      -2.868  12.707  21.189  0.00  0.00    +0.000 C 
ENDBRANCH  21  26
ENDBRANCH  15  19
ENDBRANCH   1  15
TORSDOF 7
ENDMDL
