MODEL 1
REMARK VINA RESULT:      -9.3      0.000      0.000
REMARK  Name = 
REMARK  7 active torsions:
REMARK  status: ('A' for Active; 'I' for Inactive)
REMARK    1  A    between atoms: C_1  and  O_2
REMARK    2  A    between atoms: O_2  and  C_3
REMARK    3  A    between atoms: C_5  and  C_6
REMARK    4  A    between atoms: C_6  and  C_7
REMARK    5  A    between atoms: N_9  and  C_10
REMARK    6  A    between atoms: C_13  and  N_14
REMARK    7  A    between atoms: C_31  and  C_32
REMARK                            x       y       z     vdW  Elec       q    Type
REMARK                         _______ _______ _______ _____ _____    ______ ____
ROOT
ATOM      1  C   UNL     1       1.083   9.168  19.002  0.00  0.00    +0.000 A 
ATOM      2  C   UNL     1       1.403   8.474  20.173  0.00  0.00    +0.000 A 
ATOM      3  C   UNL     1       2.238   7.339  20.136  0.00  0.00    +0.000 A 
ATOM      4  C   UNL     1       2.803   6.915  18.925  0.00  0.00    +0.000 A 
ATOM      5  C   UNL     1       2.413   7.564  17.749  0.00  0.00    +0.000 A 
ATOM      6  C   UNL     1       1.555   8.674  17.786  0.00  0.00    +0.000 A 
ENDROOT
BRANCH   4   7
ATOM      7  N   UNL     1       3.766   5.857  18.890  0.00  0.00    +0.000 N 
ATOM      8  C   UNL     1       4.972   5.887  18.222  0.00  0.00    +0.000 A 
ATOM      9  C   UNL     1       5.667   4.732  18.449  0.00  0.00    +0.000 A 
ATOM     10  C   UNL     1       4.886   3.898  19.237  0.00  0.00    +0.000 A 
ATOM     11  N   UNL     1       5.183   2.663  19.681  0.00  0.00    +0.000 NA
ATOM     12  C   UNL     1       4.202   2.114  20.392  0.00  0.00    +0.000 A 
ATOM     13  N   UNL     1       3.008   2.648  20.679  0.00  0.00    +0.000 NA
ATOM     14  C   UNL     1       2.716   3.885  20.231  0.00  0.00    +0.000 A 
ATOM     15  N   UNL     1       1.427   4.309  20.512  0.00  0.00    +0.000 N 
ATOM     16  C   UNL     1       3.690   4.583  19.508  0.00  0.00    +0.000 A 
ATOM     17  C   UNL     1       7.011   4.741  17.845  0.00  0.00    +0.000 C 
ATOM     18  C   UNL     1       7.197   6.262  17.543  0.00  0.00    +0.000 C 
ATOM     19  C   UNL     1       5.758   6.893  17.465  0.00  0.00    +0.000 C 
ATOM     20  H   UNL     1       0.891   3.517  20.853  0.00  0.00    +0.000 HD
ATOM     21  H   UNL     1       0.990   4.820  19.754  0.00  0.00    +0.000 HD
ENDBRANCH   4   7
BRANCH   1  24
ATOM     22  C   UNL     1       0.797  11.621  18.837  0.00  0.00    +0.000 C 
ATOM     23  O   UNL     1       1.982  11.883  18.643  0.00  0.00    +0.000 OA
ATOM     24  N   UNL     1       0.287  10.337  18.985  0.00  0.00    +0.000 N 
ATOM     25  H   UNL     1      -0.689  10.223  18.740  0.00  0.00    +0.000 HD
BRANCH  22  26
ATOM     26  C   UNL     1      -0.257  12.727  18.891  0.00  0.00    +0.000 C 
BRANCH  26  29
ATOM     27  C   UNL     1      -3.503  11.394  17.313  0.00  0.00    +0.000 A 
ATOM     28  C   UNL     1      -2.157  11.767  17.482  0.00  0.00    +0.000 A 
ATOM     29  C   UNL     1      -1.700  12.305  18.692  0.00  0.00    +0.000 A 
ATOM     30  C   UNL     1      -2.641  12.542  19.704  0.00  0.00    +0.000 A 
ATOM     31  C   UNL     1      -3.989  12.212  19.530  0.00  0.00    +0.000 A 
ATOM     32  C   UNL     1      -4.431  11.628  18.336  0.00  0.00    +0.000 A 
ATOM     33  C   UNL     1      -5.881  11.262  18.167  0.00  0.00    +0.000 C 
BRANCH  27  35
ATOM     34  C   UNL     1      -3.009  10.554  15.165  0.00  0.00    +0.000 C 
ATOM     35  O   UNL     1      -3.989  10.842  16.157  0.00  0.00    +0.000 OA
ENDBRANCH  27  35
ENDBRANCH  26  29
ENDBRANCH  22  26
ENDBRANCH   1  24
TORSDOF 5
ENDMDL
MODEL 2
REMARK VINA RESULT:      -9.3      2.634      4.197
REMARK  Name = 
REMARK  7 active torsions:
REMARK  status: ('A' for Active; 'I' for Inactive)
REMARK    1  A    between atoms: C_1  and  O_2
REMARK    2  A    between atoms: O_2  and  C_3
REMARK    3  A    between atoms: C_5  and  C_6
REMARK    4  A    between atoms: C_6  and  C_7
REMARK    5  A    between atoms: N_9  and  C_10
REMARK    6  A    between atoms: C_13  and  N_14
REMARK    7  A    between atoms: C_31  and  C_32
REMARK                            x       y       z     vdW  Elec       q    Type
REMARK                         _______ _______ _______ _____ _____    ______ ____
ROOT
ATOM      1  C   UNL     1       1.404   9.450  19.202  0.00  0.00    +0.000 A 
ATOM      2  C   UNL     1       1.835   9.215  17.893  0.00  0.00    +0.000 A 
ATOM      3  C   UNL     1       2.446   7.995  17.540  0.00  0.00    +0.000 A 
ATOM      4  C   UNL     1       2.587   6.974  18.491  0.00  0.00    +0.000 A 
ATOM      5  C   UNL     1       2.229   7.247  19.814  0.00  0.00    +0.000 A 
ATOM      6  C   UNL     1       1.651   8.476  20.168  0.00  0.00    +0.000 A 
ENDROOT
BRANCH   4   7
ATOM      7  N   UNL     1       3.070   5.680  18.117  0.00  0.00    +0.000 N 
ATOM      8  C   UNL     1       2.481   4.475  18.440  0.00  0.00    +0.000 A 
ATOM      9  C   UNL     1       3.174   3.443  17.873  0.00  0.00    +0.000 A 
ATOM     10  C   UNL     1       4.274   3.966  17.206  0.00  0.00    +0.000 A 
ATOM     11  N   UNL     1       5.223   3.298  16.526  0.00  0.00    +0.000 NA
ATOM     12  C   UNL     1       6.165   4.093  16.027  0.00  0.00    +0.000 A 
ATOM     13  N   UNL     1       6.252   5.425  16.145  0.00  0.00    +0.000 NA
ATOM     14  C   UNL     1       5.298   6.088  16.828  0.00  0.00    +0.000 A 
ATOM     15  N   UNL     1       5.527   7.449  16.962  0.00  0.00    +0.000 N 
ATOM     16  C   UNL     1       4.228   5.361  17.363  0.00  0.00    +0.000 A 
ATOM     17  C   UNL     1       2.538   2.132  18.097  0.00  0.00    +0.000 C 
ATOM     18  C   UNL     1       1.110   2.563  18.556  0.00  0.00    +0.000 C 
ATOM     19  C   UNL     1       1.227   4.034  19.101  0.00  0.00    +0.000 C 
ATOM     20  H   UNL     1       6.476   7.649  16.663  0.00  0.00    +0.000 HD
ATOM     21  H   UNL     1       5.284   7.816  17.874  0.00  0.00    +0.000 HD
ENDBRANCH   4   7
BRANCH   1  24
ATOM     22  C   UNL     1      -0.600  10.893  19.373  0.00  0.00    +0.000 C 
ATOM     23  O   UNL     1      -1.383  10.100  18.855  0.00  0.00    +0.000 OA
ATOM     24  N   UNL     1       0.746  10.637  19.602  0.00  0.00    +0.000 N 
ATOM     25  H   UNL     1       1.169  11.163  20.358  0.00  0.00    +0.000 HD
BRANCH  22  26
ATOM     26  C   UNL     1      -1.073  12.262  19.862  0.00  0.00    +0.000 C 
BRANCH  26  29
ATOM     27  C   UNL     1      -4.092  12.778  22.191  0.00  0.00    +0.000 A 
ATOM     28  C   UNL     1      -3.282  12.759  21.040  0.00  0.00    +0.000 A 
ATOM     29  C   UNL     1      -1.967  12.277  21.086  0.00  0.00    +0.000 A 
ATOM     30  C   UNL     1      -1.451  11.892  22.331  0.00  0.00    +0.000 A 
ATOM     31  C   UNL     1      -2.236  11.945  23.488  0.00  0.00    +0.000 A 
ATOM     32  C   UNL     1      -3.566  12.382  23.427  0.00  0.00    +0.000 A 
ATOM     33  C   UNL     1      -4.405  12.418  24.675  0.00  0.00    +0.000 C 
BRANCH  27  35
ATOM     34  C   UNL     1      -6.281  12.462  21.373  0.00  0.00    +0.000 C 
ATOM     35  O   UNL     1      -5.389  13.217  22.188  0.00  0.00    +0.000 OA
ENDBRANCH  27  35
ENDBRANCH  26  29
ENDBRANCH  22  26
ENDBRANCH   1  24
TORSDOF 5
ENDMDL
MODEL 3
REMARK VINA RESULT:      -9.3      2.685      9.748
REMARK  Name = 
REMARK  7 active torsions:
REMARK  status: ('A' for Active; 'I' for Inactive)
REMARK    1  A    between atoms: C_1  and  O_2
REMARK    2  A    between atoms: O_2  and  C_3
REMARK    3  A    between atoms: C_5  and  C_6
REMARK    4  A    between atoms: C_6  and  C_7
REMARK    5  A    between atoms: N_9  and  C_10
REMARK    6  A    between atoms: C_13  and  N_14
REMARK    7  A    between atoms: C_31  and  C_32
REMARK                            x       y       z     vdW  Elec       q    Type
REMARK                         _______ _______ _______ _____ _____    ______ ____
ROOT
ATOM      1  C   UNL     1       2.292   7.715  19.086  0.00  0.00    +0.000 A 
ATOM      2  C   UNL     1       1.670   8.051  20.293  0.00  0.00    +0.000 A 
ATOM      3  C   UNL     1       0.749   9.117  20.361  0.00  0.00    +0.000 A 
ATOM      4  C   UNL     1       0.405   9.829  19.204  0.00  0.00    +0.000 A 
ATOM      5  C   UNL     1       1.092   9.542  18.020  0.00  0.00    +0.000 A 
ATOM      6  C   UNL     1       2.032   8.502  17.964  0.00  0.00    +0.000 A 
ENDROOT
BRANCH   4   7
ATOM      7  N   UNL     1      -0.632  10.815  19.225  0.00  0.00    +0.000 N 
ATOM      8  C   UNL     1      -1.828  10.741  18.544  0.00  0.00    +0.000 A 
ATOM      9  C   UNL     1      -2.606  11.826  18.836  0.00  0.00    +0.000 A 
ATOM     10  C   UNL     1      -1.893  12.662  19.683  0.00  0.00    +0.000 A 
ATOM     11  N   UNL     1      -2.282  13.842  20.201  0.00  0.00    +0.000 NA
ATOM     12  C   UNL     1      -1.349  14.414  20.956  0.00  0.00    +0.000 A 
ATOM     13  N   UNL     1      -0.121  13.950  21.222  0.00  0.00    +0.000 NA
ATOM     14  C   UNL     1       0.263  12.768  20.700  0.00  0.00    +0.000 A 
ATOM     15  N   UNL     1       1.578  12.421  20.967  0.00  0.00    +0.000 N 
ATOM     16  C   UNL     1      -0.652  12.049  19.923  0.00  0.00    +0.000 A 
ATOM     17  C   UNL     1      -3.943  11.758  18.217  0.00  0.00    +0.000 C 
ATOM     18  C   UNL     1      -4.015  10.250  17.818  0.00  0.00    +0.000 C 
ATOM     19  C   UNL     1      -2.534   9.731  17.716  0.00  0.00    +0.000 C 
ATOM     20  H   UNL     1       2.052  13.227  21.364  0.00  0.00    +0.000 HD
ATOM     21  H   UNL     1       2.055  11.993  20.184  0.00  0.00    +0.000 HD
ENDBRANCH   4   7
BRANCH   1  24
ATOM     22  C   UNL     1       2.860   5.312  19.238  0.00  0.00    +0.000 C 
ATOM     23  O   UNL     1       1.744   4.930  19.583  0.00  0.00    +0.000 OA
ATOM     24  N   UNL     1       3.189   6.630  18.950  0.00  0.00    +0.000 N 
ATOM     25  H   UNL     1       3.971   6.759  18.318  0.00  0.00    +0.000 HD
BRANCH  22  26
ATOM     26  C   UNL     1       4.009   4.322  19.051  0.00  0.00    +0.000 C 
BRANCH  26  29
ATOM     27  C   UNL     1       6.643   5.663  16.588  0.00  0.00    +0.000 A 
ATOM     28  C   UNL     1       5.858   5.500  17.744  0.00  0.00    +0.000 A 
ATOM     29  C   UNL     1       4.876   4.505  17.820  0.00  0.00    +0.000 A 
ATOM     30  C   UNL     1       4.636   3.728  16.678  0.00  0.00    +0.000 A 
ATOM     31  C   UNL     1       5.384   3.910  15.509  0.00  0.00    +0.000 A 
ATOM     32  C   UNL     1       6.399   4.874  15.456  0.00  0.00    +0.000 A 
ATOM     33  C   UNL     1       7.207   5.049  14.199  0.00  0.00    +0.000 C 
BRANCH  27  35
ATOM     34  C   UNL     1       7.657   7.579  17.517  0.00  0.00    +0.000 C 
ATOM     35  O   UNL     1       7.631   6.606  16.478  0.00  0.00    +0.000 OA
ENDBRANCH  27  35
ENDBRANCH  26  29
ENDBRANCH  22  26
ENDBRANCH   1  24
TORSDOF 5
ENDMDL
MODEL 4
REMARK VINA RESULT:      -9.2      2.371      3.006
REMARK  Name = 
REMARK  7 active torsions:
REMARK  status: ('A' for Active; 'I' for Inactive)
REMARK    1  A    between atoms: C_1  and  O_2
REMARK    2  A    between atoms: O_2  and  C_3
REMARK    3  A    between atoms: C_5  and  C_6
REMARK    4  A    between atoms: C_6  and  C_7
REMARK    5  A    between atoms: N_9  and  C_10
REMARK    6  A    between atoms: C_13  and  N_14
REMARK    7  A    between atoms: C_31  and  C_32
REMARK                            x       y       z     vdW  Elec       q    Type
REMARK                         _______ _______ _______ _____ _____    ______ ____
ROOT
ATOM      1  C   UNL     1       1.378   9.102  19.406  0.00  0.00    +0.000 A 
ATOM      2  C   UNL     1       1.712   8.082  20.302  0.00  0.00    +0.000 A 
ATOM      3  C   UNL     1       2.288   6.878  19.846  0.00  0.00    +0.000 A 
ATOM      4  C   UNL     1       2.581   6.705  18.485  0.00  0.00    +0.000 A 
ATOM      5  C   UNL     1       2.168   7.695  17.588  0.00  0.00    +0.000 A 
ATOM      6  C   UNL     1       1.566   8.877  18.042  0.00  0.00    +0.000 A 
ENDROOT
BRANCH   4   7
ATOM      7  N   UNL     1       3.296   5.554  18.026  0.00  0.00    +0.000 N 
ATOM      8  C   UNL     1       4.379   5.566  17.172  0.00  0.00    +0.000 A 
ATOM      9  C   UNL     1       4.851   4.297  16.989  0.00  0.00    +0.000 A 
ATOM     10  C   UNL     1       4.034   3.419  17.690  0.00  0.00    +0.000 A 
ATOM     11  N   UNL     1       4.134   2.080  17.769  0.00  0.00    +0.000 NA
ATOM     12  C   UNL     1       3.172   1.527  18.500  0.00  0.00    +0.000 A 
ATOM     13  N   UNL     1       2.161   2.150  19.121  0.00  0.00    +0.000 NA
ATOM     14  C   UNL     1       2.066   3.492  19.038  0.00  0.00    +0.000 A 
ATOM     15  N   UNL     1       0.940   4.027  19.644  0.00  0.00    +0.000 N 
ATOM     16  C   UNL     1       3.050   4.191  18.330  0.00  0.00    +0.000 A 
ATOM     17  C   UNL     1       6.072   4.250  16.166  0.00  0.00    +0.000 C 
ATOM     18  C   UNL     1       6.517   5.746  16.200  0.00  0.00    +0.000 C 
ATOM     19  C   UNL     1       5.239   6.598  16.540  0.00  0.00    +0.000 C 
ATOM     20  H   UNL     1       0.309   3.269  19.883  0.00  0.00    +0.000 HD
ATOM     21  H   UNL     1       0.515   4.783  19.121  0.00  0.00    +0.000 HD
ENDBRANCH   4   7
BRANCH   1  24
ATOM     22  C   UNL     1      -0.449  10.768  19.511  0.00  0.00    +0.000 C 
ATOM     23  O   UNL     1      -1.285  10.090  18.917  0.00  0.00    +0.000 OA
ATOM     24  N   UNL     1       0.840  10.346  19.811  0.00  0.00    +0.000 N 
ATOM     25  H   UNL     1       1.273  10.794  20.610  0.00  0.00    +0.000 HD
BRANCH  22  26
ATOM     26  C   UNL     1      -0.789  12.167  20.023  0.00  0.00    +0.000 C 
BRANCH  26  29
ATOM     27  C   UNL     1      -3.981  12.742  22.093  0.00  0.00    +0.000 A 
ATOM     28  C   UNL     1      -3.094  12.657  21.004  0.00  0.00    +0.000 A 
ATOM     29  C   UNL     1      -1.764  12.252  21.180  0.00  0.00    +0.000 A 
ATOM     30  C   UNL     1      -1.317  12.016  22.488  0.00  0.00    +0.000 A 
ATOM     31  C   UNL     1      -2.181  12.138  23.582  0.00  0.00    +0.000 A 
ATOM     32  C   UNL     1      -3.522  12.495  23.393  0.00  0.00    +0.000 A 
ATOM     33  C   UNL     1      -4.446  12.606  24.576  0.00  0.00    +0.000 C 
BRANCH  27  35
ATOM     34  C   UNL     1      -6.012  12.437  20.934  0.00  0.00    +0.000 C 
ATOM     35  O   UNL     1      -5.294  13.109  21.964  0.00  0.00    +0.000 OA
ENDBRANCH  27  35
ENDBRANCH  26  29
ENDBRANCH  22  26
ENDBRANCH   1  24
TORSDOF 5
ENDMDL
MODEL 5
REMARK VINA RESULT:      -9.2      1.919      2.793
REMARK  Name = 
REMARK  7 active torsions:
REMARK  status: ('A' for Active; 'I' for Inactive)
REMARK    1  A    between atoms: C_1  and  O_2
REMARK    2  A    between atoms: O_2  and  C_3
REMARK    3  A    between atoms: C_5  and  C_6
REMARK    4  A    between atoms: C_6  and  C_7
REMARK    5  A    between atoms: N_9  and  C_10
REMARK    6  A    between atoms: C_13  and  N_14
REMARK    7  A    between atoms: C_31  and  C_32
REMARK                            x       y       z     vdW  Elec       q    Type
REMARK                         _______ _______ _______ _____ _____    ______ ____
ROOT
ATOM      1  C   UNL     1       0.864   9.339  18.971  0.00  0.00    +0.000 A 
ATOM      2  C   UNL     1       1.519   9.009  17.780  0.00  0.00    +0.000 A 
ATOM      3  C   UNL     1       2.485   7.983  17.746  0.00  0.00    +0.000 A 
ATOM      4  C   UNL     1       2.771   7.242  18.902  0.00  0.00    +0.000 A 
ATOM      5  C   UNL     1       2.173   7.632  20.104  0.00  0.00    +0.000 A 
ATOM      6  C   UNL     1       1.236   8.676  20.140  0.00  0.00    +0.000 A 
ENDROOT
BRANCH   4   7
ATOM      7  N   UNL     1       3.638   6.104  18.853  0.00  0.00    +0.000 N 
ATOM      8  C   UNL     1       4.821   6.022  18.149  0.00  0.00    +0.000 A 
ATOM      9  C   UNL     1       5.421   4.815  18.372  0.00  0.00    +0.000 A 
ATOM     10  C   UNL     1       4.596   4.060  19.194  0.00  0.00    +0.000 A 
ATOM     11  N   UNL     1       4.799   2.809  19.646  0.00  0.00    +0.000 NA
ATOM     12  C   UNL     1       3.797   2.354  20.393  0.00  0.00    +0.000 A 
ATOM     13  N   UNL     1       2.662   2.992  20.708  0.00  0.00    +0.000 NA
ATOM     14  C   UNL     1       2.464   4.245  20.252  0.00  0.00    +0.000 A 
ATOM     15  N   UNL     1       1.225   4.782  20.564  0.00  0.00    +0.000 N 
ATOM     16  C   UNL     1       3.471   4.848  19.490  0.00  0.00    +0.000 A 
ATOM     17  C   UNL     1       6.742   4.702  17.728  0.00  0.00    +0.000 C 
ATOM     18  C   UNL     1       7.048   6.197  17.400  0.00  0.00    +0.000 C 
ATOM     19  C   UNL     1       5.666   6.949  17.356  0.00  0.00    +0.000 C 
ATOM     20  H   UNL     1       0.635   4.042  20.932  0.00  0.00    +0.000 HD
ATOM     21  H   UNL     1       0.811   5.319  19.813  0.00  0.00    +0.000 HD
ENDBRANCH   4   7
BRANCH   1  24
ATOM     22  C   UNL     1       0.105  11.669  19.318  0.00  0.00    +0.000 C 
ATOM     23  O   UNL     1       1.225  12.159  19.446  0.00  0.00    +0.000 OA
ATOM     24  N   UNL     1      -0.144  10.328  19.055  0.00  0.00    +0.000 N 
ATOM     25  H   UNL     1      -1.021  10.129  18.588  0.00  0.00    +0.000 HD
BRANCH  22  26
ATOM     26  C   UNL     1      -1.149  12.538  19.400  0.00  0.00    +0.000 C 
BRANCH  26  29
ATOM     27  C   UNL     1      -4.031  12.695  21.945  0.00  0.00    +0.000 A 
ATOM     28  C   UNL     1      -3.315  12.748  20.735  0.00  0.00    +0.000 A 
ATOM     29  C   UNL     1      -1.943  12.472  20.691  0.00  0.00    +0.000 A 
ATOM     30  C   UNL     1      -1.283  12.224  21.903  0.00  0.00    +0.000 A 
ATOM     31  C   UNL     1      -1.979  12.209  23.116  0.00  0.00    +0.000 A 
ATOM     32  C   UNL     1      -3.361  12.437  23.147  0.00  0.00    +0.000 A 
ATOM     33  C   UNL     1      -4.101  12.401  24.456  0.00  0.00    +0.000 C 
BRANCH  27  35
ATOM     34  C   UNL     1      -6.162  12.358  20.990  0.00  0.00    +0.000 C 
ATOM     35  O   UNL     1      -5.378  12.932  22.031  0.00  0.00    +0.000 OA
ENDBRANCH  27  35
ENDBRANCH  26  29
ENDBRANCH  22  26
ENDBRANCH   1  24
TORSDOF 5
ENDMDL
MODEL 6
REMARK VINA RESULT:      -9.1      1.815      2.592
REMARK  Name = 
REMARK  7 active torsions:
REMARK  status: ('A' for Active; 'I' for Inactive)
REMARK    1  A    between atoms: C_1  and  O_2
REMARK    2  A    between atoms: O_2  and  C_3
REMARK    3  A    between atoms: C_5  and  C_6
REMARK    4  A    between atoms: C_6  and  C_7
REMARK    5  A    between atoms: N_9  and  C_10
REMARK    6  A    between atoms: C_13  and  N_14
REMARK    7  A    between atoms: C_31  and  C_32
REMARK                            x       y       z     vdW  Elec       q    Type
REMARK                         _______ _______ _______ _____ _____    ______ ____
ROOT
ATOM      1  C   UNL     1       1.004   9.455  19.089  0.00  0.00    +0.000 A 
ATOM      2  C   UNL     1       1.261   8.685  20.228  0.00  0.00    +0.000 A 
ATOM      3  C   UNL     1       2.056   7.523  20.152  0.00  0.00    +0.000 A 
ATOM      4  C   UNL     1       2.644   7.147  18.937  0.00  0.00    +0.000 A 
ATOM      5  C   UNL     1       2.316   7.874  17.789  0.00  0.00    +0.000 A 
ATOM      6  C   UNL     1       1.497   9.011  17.862  0.00  0.00    +0.000 A 
ENDROOT
BRANCH   4   7
ATOM      7  N   UNL     1       3.570   6.057  18.871  0.00  0.00    +0.000 N 
ATOM      8  C   UNL     1       4.749   6.042  18.156  0.00  0.00    +0.000 A 
ATOM      9  C   UNL     1       5.413   4.867  18.364  0.00  0.00    +0.000 A 
ATOM     10  C   UNL     1       4.637   4.063  19.188  0.00  0.00    +0.000 A 
ATOM     11  N   UNL     1       4.910   2.822  19.629  0.00  0.00    +0.000 NA
ATOM     12  C   UNL     1       3.941   2.310  20.382  0.00  0.00    +0.000 A 
ATOM     13  N   UNL     1       2.777   2.885  20.712  0.00  0.00    +0.000 NA
ATOM     14  C   UNL     1       2.509   4.129  20.267  0.00  0.00    +0.000 A 
ATOM     15  N   UNL     1       1.246   4.598  20.595  0.00  0.00    +0.000 N 
ATOM     16  C   UNL     1       3.476   4.790  19.501  0.00  0.00    +0.000 A 
ATOM     17  C   UNL     1       6.732   4.828  17.707  0.00  0.00    +0.000 C 
ATOM     18  C   UNL     1       6.956   6.339  17.387  0.00  0.00    +0.000 C 
ATOM     19  C   UNL     1       5.536   7.018  17.362  0.00  0.00    +0.000 C 
ATOM     20  H   UNL     1       0.699   3.826  20.963  0.00  0.00    +0.000 HD
ATOM     21  H   UNL     1       0.798   5.118  19.852  0.00  0.00    +0.000 HD
ENDBRANCH   4   7
BRANCH   1  24
ATOM     22  C   UNL     1      -1.053  10.758  18.650  0.00  0.00    +0.000 C 
ATOM     23  O   UNL     1      -1.721   9.817  18.224  0.00  0.00    +0.000 OA
ATOM     24  N   UNL     1       0.251  10.652  19.114  0.00  0.00    +0.000 N 
ATOM     25  H   UNL     1       0.538  11.359  19.781  0.00  0.00    +0.000 HD
BRANCH  22  26
ATOM     26  C   UNL     1      -1.644  12.164  18.744  0.00  0.00    +0.000 C 
BRANCH  26  29
ATOM     27  C   UNL     1      -4.242  12.703  21.531  0.00  0.00    +0.000 A 
ATOM     28  C   UNL     1      -3.012  12.590  20.857  0.00  0.00    +0.000 A 
ATOM     29  C   UNL     1      -2.959  12.304  19.487  0.00  0.00    +0.000 A 
ATOM     30  C   UNL     1      -4.166  12.048  18.821  0.00  0.00    +0.000 A 
ATOM     31  C   UNL     1      -5.391  12.118  19.491  0.00  0.00    +0.000 A 
ATOM     32  C   UNL     1      -5.441  12.453  20.851  0.00  0.00    +0.000 A 
ATOM     33  C   UNL     1      -6.766  12.541  21.557  0.00  0.00    +0.000 C 
BRANCH  27  35
ATOM     34  C   UNL     1      -3.281  12.515  23.676  0.00  0.00    +0.000 C 
ATOM     35  O   UNL     1      -4.343  13.005  22.863  0.00  0.00    +0.000 OA
ENDBRANCH  27  35
ENDBRANCH  26  29
ENDBRANCH  22  26
ENDBRANCH   1  24
TORSDOF 5
ENDMDL
MODEL 7
REMARK VINA RESULT:      -9.1      2.611      4.072
REMARK  Name = 
REMARK  7 active torsions:
REMARK  status: ('A' for Active; 'I' for Inactive)
REMARK    1  A    between atoms: C_1  and  O_2
REMARK    2  A    between atoms: O_2  and  C_3
REMARK    3  A    between atoms: C_5  and  C_6
REMARK    4  A    between atoms: C_6  and  C_7
REMARK    5  A    between atoms: N_9  and  C_10
REMARK    6  A    between atoms: C_13  and  N_14
REMARK    7  A    between atoms: C_31  and  C_32
REMARK                            x       y       z     vdW  Elec       q    Type
REMARK                         _______ _______ _______ _____ _____    ______ ____
ROOT
ATOM      1  C   UNL     1       1.429   9.113  19.316  0.00  0.00    +0.000 A 
ATOM      2  C   UNL     1       1.700   8.075  20.213  0.00  0.00    +0.000 A 
ATOM      3  C   UNL     1       2.306   6.880  19.775  0.00  0.00    +0.000 A 
ATOM      4  C   UNL     1       2.691   6.732  18.435  0.00  0.00    +0.000 A 
ATOM      5  C   UNL     1       2.342   7.739  17.530  0.00  0.00    +0.000 A 
ATOM      6  C   UNL     1       1.710   8.914  17.964  0.00  0.00    +0.000 A 
ENDROOT
BRANCH   4   7
ATOM      7  N   UNL     1       3.436   5.589  18.004  0.00  0.00    +0.000 N 
ATOM      8  C   UNL     1       3.059   4.272  18.166  0.00  0.00    +0.000 A 
ATOM      9  C   UNL     1       3.977   3.443  17.586  0.00  0.00    +0.000 A 
ATOM     10  C   UNL     1       5.009   4.218  17.076  0.00  0.00    +0.000 A 
ATOM     11  N   UNL     1       6.118   3.802  16.438  0.00  0.00    +0.000 NA
ATOM     12  C   UNL     1       6.932   4.798  16.102  0.00  0.00    +0.000 A 
ATOM     13  N   UNL     1       6.758   6.106  16.338  0.00  0.00    +0.000 NA
ATOM     14  C   UNL     1       5.645   6.516  16.978  0.00  0.00    +0.000 A 
ATOM     15  N   UNL     1       5.604   7.875  17.246  0.00  0.00    +0.000 N 
ATOM     16  C   UNL     1       4.691   5.560  17.343  0.00  0.00    +0.000 A 
ATOM     17  C   UNL     1       3.581   2.023  17.636  0.00  0.00    +0.000 C 
ATOM     18  C   UNL     1       2.065   2.144  17.988  0.00  0.00    +0.000 C 
ATOM     19  C   UNL     1       1.861   3.550  18.662  0.00  0.00    +0.000 C 
ATOM     20  H   UNL     1       6.519   8.271  17.059  0.00  0.00    +0.000 HD
ATOM     21  H   UNL     1       5.224   8.100  18.157  0.00  0.00    +0.000 HD
ENDBRANCH   4   7
BRANCH   1  24
ATOM     22  C   UNL     1      -0.447  10.723  19.440  0.00  0.00    +0.000 C 
ATOM     23  O   UNL     1      -1.280  10.003  18.893  0.00  0.00    +0.000 OA
ATOM     24  N   UNL     1       0.864  10.350  19.706  0.00  0.00    +0.000 N 
ATOM     25  H   UNL     1       1.309  10.833  20.479  0.00  0.00    +0.000 HD
BRANCH  22  26
ATOM     26  C   UNL     1      -0.814  12.124  19.926  0.00  0.00    +0.000 C 
BRANCH  26  29
ATOM     27  C   UNL     1      -3.912  12.792  22.110  0.00  0.00    +0.000 A 
ATOM     28  C   UNL     1      -3.059  12.708  20.994  0.00  0.00    +0.000 A 
ATOM     29  C   UNL     1      -1.755  12.210  21.113  0.00  0.00    +0.000 A 
ATOM     30  C   UNL     1      -1.292  11.876  22.394  0.00  0.00    +0.000 A 
ATOM     31  C   UNL     1      -2.120  11.995  23.516  0.00  0.00    +0.000 A 
ATOM     32  C   UNL     1      -3.439  12.447  23.383  0.00  0.00    +0.000 A 
ATOM     33  C   UNL     1      -4.325  12.554  24.594  0.00  0.00    +0.000 C 
BRANCH  27  35
ATOM     34  C   UNL     1      -6.065  12.489  21.197  0.00  0.00    +0.000 C 
ATOM     35  O   UNL     1      -5.201  13.249  22.036  0.00  0.00    +0.000 OA
ENDBRANCH  27  35
ENDBRANCH  26  29
ENDBRANCH  22  26
ENDBRANCH   1  24
TORSDOF 5
ENDMDL
MODEL 8
REMARK VINA RESULT:      -9.1      1.348      1.891
REMARK  Name = 
REMARK  7 active torsions:
REMARK  status: ('A' for Active; 'I' for Inactive)
REMARK    1  A    between atoms: C_1  and  O_2
REMARK    2  A    between atoms: O_2  and  C_3
REMARK    3  A    between atoms: C_5  and  C_6
REMARK    4  A    between atoms: C_6  and  C_7
REMARK    5  A    between atoms: N_9  and  C_10
REMARK    6  A    between atoms: C_13  and  N_14
REMARK    7  A    between atoms: C_31  and  C_32
REMARK                            x       y       z     vdW  Elec       q    Type
REMARK                         _______ _______ _______ _____ _____    ______ ____
ROOT
ATOM      1  C   UNL     1       1.051   9.411  19.037  0.00  0.00    +0.000 A 
ATOM      2  C   UNL     1       1.291   8.637  20.177  0.00  0.00    +0.000 A 
ATOM      3  C   UNL     1       2.098   7.483  20.112  0.00  0.00    +0.000 A 
ATOM      4  C   UNL     1       2.716   7.119  18.907  0.00  0.00    +0.000 A 
ATOM      5  C   UNL     1       2.405   7.850  17.756  0.00  0.00    +0.000 A 
ATOM      6  C   UNL     1       1.574   8.979  17.819  0.00  0.00    +0.000 A 
ENDROOT
BRANCH   4   7
ATOM      7  N   UNL     1       3.652   6.039  18.855  0.00  0.00    +0.000 N 
ATOM      8  C   UNL     1       4.846   6.039  18.166  0.00  0.00    +0.000 A 
ATOM      9  C   UNL     1       5.517   4.868  18.381  0.00  0.00    +0.000 A 
ATOM     10  C   UNL     1       4.730   4.052  19.183  0.00  0.00    +0.000 A 
ATOM     11  N   UNL     1       5.005   2.811  19.622  0.00  0.00    +0.000 NA
ATOM     12  C   UNL     1       4.025   2.285  20.350  0.00  0.00    +0.000 A 
ATOM     13  N   UNL     1       2.849   2.848  20.659  0.00  0.00    +0.000 NA
ATOM     14  C   UNL     1       2.579   4.092  20.216  0.00  0.00    +0.000 A 
ATOM     15  N   UNL     1       1.305   4.547  20.519  0.00  0.00    +0.000 N 
ATOM     16  C   UNL     1       3.556   4.766  19.475  0.00  0.00    +0.000 A 
ATOM     17  C   UNL     1       6.850   4.845  17.753  0.00  0.00    +0.000 C 
ATOM     18  C   UNL     1       7.067   6.360  17.447  0.00  0.00    +0.000 C 
ATOM     19  C   UNL     1       5.642   7.026  17.395  0.00  0.00    +0.000 C 
ATOM     20  H   UNL     1       0.757   3.768  20.870  0.00  0.00    +0.000 HD
ATOM     21  H   UNL     1       0.868   5.067  19.769  0.00  0.00    +0.000 HD
ENDBRANCH   4   7
BRANCH   1  24
ATOM     22  C   UNL     1      -0.973  10.721  18.480  0.00  0.00    +0.000 C 
ATOM     23  O   UNL     1      -1.591   9.799  17.953  0.00  0.00    +0.000 OA
ATOM     24  N   UNL     1       0.287  10.601  19.053  0.00  0.00    +0.000 N 
ATOM     25  H   UNL     1       0.506  11.277  19.775  0.00  0.00    +0.000 HD
BRANCH  22  26
ATOM     26  C   UNL     1      -1.584  12.118  18.589  0.00  0.00    +0.000 C 
BRANCH  26  29
ATOM     27  C   UNL     1      -5.302  12.137  19.580  0.00  0.00    +0.000 A 
ATOM     28  C   UNL     1      -4.123  12.003  18.823  0.00  0.00    +0.000 A 
ATOM     29  C   UNL     1      -2.865  12.242  19.391  0.00  0.00    +0.000 A 
ATOM     30  C   UNL     1      -2.817  12.702  20.715  0.00  0.00    +0.000 A 
ATOM     31  C   UNL     1      -3.986  12.876  21.463  0.00  0.00    +0.000 A 
ATOM     32  C   UNL     1      -5.239  12.588  20.905  0.00  0.00    +0.000 A 
ATOM     33  C   UNL     1      -6.488  12.764  21.725  0.00  0.00    +0.000 C 
BRANCH  27  35
ATOM     34  C   UNL     1      -6.841  10.519  18.821  0.00  0.00    +0.000 C 
ATOM     35  O   UNL     1      -6.550  11.890  19.074  0.00  0.00    +0.000 OA
ENDBRANCH  27  35
ENDBRANCH  26  29
ENDBRANCH  22  26
ENDBRANCH   1  24
TORSDOF 5
ENDMDL
MODEL 9
REMARK VINA RESULT:      -9.1      2.389      3.162
REMARK  Name = 
REMARK  7 active torsions:
REMARK  status: ('A' for Active; 'I' for Inactive)
REMARK    1  A    between atoms: C_1  and  O_2
REMARK    2  A    between atoms: O_2  and  C_3
REMARK    3  A    between atoms: C_5  and  C_6
REMARK    4  A    between atoms: C_6  and  C_7
REMARK    5  A    between atoms: N_9  and  C_10
REMARK    6  A    between atoms: C_13  and  N_14
REMARK    7  A    between atoms: C_31  and  C_32
REMARK                            x       y       z     vdW  Elec       q    Type
REMARK                         _______ _______ _______ _____ _____    ______ ____
ROOT
ATOM      1  C   UNL     1       1.346   9.539  19.189  0.00  0.00    +0.000 A 
ATOM      2  C   UNL     1       1.781   9.299  17.881  0.00  0.00    +0.000 A 
ATOM      3  C   UNL     1       2.423   8.091  17.542  0.00  0.00    +0.000 A 
ATOM      4  C   UNL     1       2.593   7.085  18.504  0.00  0.00    +0.000 A 
ATOM      5  C   UNL     1       2.231   7.365  19.825  0.00  0.00    +0.000 A 
ATOM      6  C   UNL     1       1.622   8.582  20.166  0.00  0.00    +0.000 A 
ENDROOT
BRANCH   4   7
ATOM      7  N   UNL     1       3.109   5.800  18.145  0.00  0.00    +0.000 N 
ATOM      8  C   UNL     1       4.069   5.556  17.186  0.00  0.00    +0.000 A 
ATOM      9  C   UNL     1       4.366   4.223  17.143  0.00  0.00    +0.000 A 
ATOM     10  C   UNL     1       3.550   3.561  18.051  0.00  0.00    +0.000 A 
ATOM     11  N   UNL     1       3.505   2.243  18.315  0.00  0.00    +0.000 NA
ATOM     12  C   UNL     1       2.585   1.923  19.220  0.00  0.00    +0.000 A 
ATOM     13  N   UNL     1       1.739   2.750  19.848  0.00  0.00    +0.000 NA
ATOM     14  C   UNL     1       1.788   4.070  19.578  0.00  0.00    +0.000 A 
ATOM     15  N   UNL     1       0.816   4.824  20.216  0.00  0.00    +0.000 N 
ATOM     16  C   UNL     1       2.749   4.533  18.672  0.00  0.00    +0.000 A 
ATOM     17  C   UNL     1       5.461   3.907  16.208  0.00  0.00    +0.000 C 
ATOM     18  C   UNL     1       6.075   5.323  15.972  0.00  0.00    +0.000 C 
ATOM     19  C   UNL     1       4.955   6.372  16.319  0.00  0.00    +0.000 C 
ATOM     20  H   UNL     1       0.137   4.194  20.632  0.00  0.00    +0.000 HD
ATOM     21  H   UNL     1       0.418   5.552  19.637  0.00  0.00    +0.000 HD
ENDBRANCH   4   7
BRANCH   1  24
ATOM     22  C   UNL     1      -0.653  10.997  19.218  0.00  0.00    +0.000 C 
ATOM     23  O   UNL     1      -1.382  10.240  18.580  0.00  0.00    +0.000 OA
ATOM     24  N   UNL     1       0.658  10.712  19.576  0.00  0.00    +0.000 N 
ATOM     25  H   UNL     1       1.003  11.194  20.398  0.00  0.00    +0.000 HD
BRANCH  22  26
ATOM     26  C   UNL     1      -1.165  12.345  19.723  0.00  0.00    +0.000 C 
BRANCH  26  29
ATOM     27  C   UNL     1      -4.115  12.761  22.158  0.00  0.00    +0.000 A 
ATOM     28  C   UNL     1      -3.344  12.775  20.981  0.00  0.00    +0.000 A 
ATOM     29  C   UNL     1      -2.017  12.326  20.977  0.00  0.00    +0.000 A 
ATOM     30  C   UNL     1      -1.449  11.941  22.199  0.00  0.00    +0.000 A 
ATOM     31  C   UNL     1      -2.195  11.962  23.383  0.00  0.00    +0.000 A 
ATOM     32  C   UNL     1      -3.537  12.366  23.372  0.00  0.00    +0.000 A 
ATOM     33  C   UNL     1      -4.334  12.369  24.648  0.00  0.00    +0.000 C 
BRANCH  27  35
ATOM     34  C   UNL     1      -6.273  12.580  21.225  0.00  0.00    +0.000 C 
ATOM     35  O   UNL     1      -5.422  13.168  22.204  0.00  0.00    +0.000 OA
ENDBRANCH  27  35
ENDBRANCH  26  29
ENDBRANCH  22  26
ENDBRANCH   1  24
TORSDOF 5
ENDMDL
