MODEL 1
REMARK VINA RESULT:      -7.2      0.000      0.000
REMARK  Name = 
REMARK  2 active torsions:
REMARK  status: ('A' for Active; 'I' for Inactive)
REMARK    1  A    between atoms: C_4  and  O_5
REMARK    2  A    between atoms: C_11  and  N_12
REMARK                            x       y       z     vdW  Elec       q    Type
REMARK                         _______ _______ _______ _____ _____    ______ ____
ROOT
ATOM      1  N   UNL     1       4.110   0.775  18.598  0.00  0.00    +0.000 N 
ATOM      2  C   UNL     1       3.704   2.090  18.604  0.00  0.00    +0.000 A 
ATOM      3  N   UNL     1       3.988   2.823  17.537  0.00  0.00    +0.000 NA
ATOM      4  C   UNL     1       3.613   4.108  17.607  0.00  0.00    +0.000 A 
ATOM      5  C   UNL     1       2.951   4.740  18.671  0.00  0.00    +0.000 A 
ATOM      6  C   UNL     1       2.685   3.830  19.696  0.00  0.00    +0.000 A 
ATOM      7  C   UNL     1       2.022   4.278  20.821  0.00  0.00    +0.000 A 
ATOM      8  C   UNL     1       1.628   5.609  20.970  0.00  0.00    +0.000 A 
ATOM      9  C   UNL     1       1.893   6.576  19.978  0.00  0.00    +0.000 A 
ATOM     10  C   UNL     1       1.534   7.959  20.091  0.00  0.00    +0.000 A 
ATOM     11  C   UNL     1       1.813   8.899  19.095  0.00  0.00    +0.000 A 
ATOM     12 BR   UNL     1       1.414  10.752  19.215  0.00  0.00    +0.000 Br
ATOM     13  C   UNL     1       2.448   8.465  17.944  0.00  0.00    +0.000 A 
ATOM     14  C   UNL     1       2.804   7.120  17.808  0.00  0.00    +0.000 A 
ATOM     15  C   UNL     1       2.556   6.139  18.801  0.00  0.00    +0.000 A 
ATOM     16  N   UNL     1       3.039   2.537  19.667  0.00  0.00    +0.000 NA
ATOM     17  H   UNL     1       4.241   0.432  17.659  0.00  0.00    +0.000 HD
ATOM     18  H   UNL     1       3.553   0.218  19.231  0.00  0.00    +0.000 HD
ENDROOT
BRANCH  10  19
ATOM     19  N   UNL     1       0.857   8.419  21.288  0.00  0.00    +0.000 N 
ATOM     20  O   UNL     1      -0.380   8.366  21.291  0.00  0.00    +0.000 OA
ATOM     21  O   UNL     1       1.564   8.856  22.207  0.00  0.00    +0.000 OA
ENDBRANCH  10  19
BRANCH   4  22
ATOM     22  O   UNL     1       3.968   4.768  16.475  0.00  0.00    +0.000 OA
ATOM     23  H   UNL     1       3.434   5.578  16.575  0.00  0.00    +0.000 HD
ENDBRANCH   4  22
TORSDOF 2
ENDMDL
MODEL 2
REMARK VINA RESULT:      -7.1      2.894      5.895
REMARK  Name = 
REMARK  2 active torsions:
REMARK  status: ('A' for Active; 'I' for Inactive)
REMARK    1  A    between atoms: C_4  and  O_5
REMARK    2  A    between atoms: C_11  and  N_12
REMARK                            x       y       z     vdW  Elec       q    Type
REMARK                         _______ _______ _______ _____ _____    ______ ____
ROOT
ATOM      1  N   UNL     1      -0.532  10.410  20.985  0.00  0.00    +0.000 N 
ATOM      2  C   UNL     1       0.387   9.631  20.319  0.00  0.00    +0.000 A 
ATOM      3  N   UNL     1       0.922  10.127  19.212  0.00  0.00    +0.000 NA
ATOM      4  C   UNL     1       1.777   9.315  18.575  0.00  0.00    +0.000 A 
ATOM      5  C   UNL     1       2.165   8.023  18.961  0.00  0.00    +0.000 A 
ATOM      6  C   UNL     1       1.552   7.663  20.163  0.00  0.00    +0.000 A 
ATOM      7  C   UNL     1       1.833   6.423  20.702  0.00  0.00    +0.000 A 
ATOM      8  C   UNL     1       2.693   5.519  20.075  0.00  0.00    +0.000 A 
ATOM      9  C   UNL     1       3.319   5.820  18.848  0.00  0.00    +0.000 A 
ATOM     10  C   UNL     1       4.189   4.919  18.150  0.00  0.00    +0.000 A 
ATOM     11  C   UNL     1       4.794   5.240  16.932  0.00  0.00    +0.000 A 
ATOM     12 BR   UNL     1       5.906   4.067  15.935  0.00  0.00    +0.000 Br
ATOM     13  C   UNL     1       4.551   6.490  16.389  0.00  0.00    +0.000 A 
ATOM     14  C   UNL     1       3.711   7.388  17.053  0.00  0.00    +0.000 A 
ATOM     15  C   UNL     1       3.064   7.096  18.281  0.00  0.00    +0.000 A 
ATOM     16  N   UNL     1       0.694   8.444  20.835  0.00  0.00    +0.000 NA
ATOM     17  H   UNL     1      -0.417  11.388  20.766  0.00  0.00    +0.000 HD
ATOM     18  H   UNL     1      -0.596  10.148  21.958  0.00  0.00    +0.000 HD
ENDROOT
BRANCH  10  19
ATOM     19  N   UNL     1       4.458   3.612  18.718  0.00  0.00    +0.000 N 
ATOM     20  O   UNL     1       5.450   3.510  19.453  0.00  0.00    +0.000 OA
ATOM     21  O   UNL     1       3.693   2.690  18.405  0.00  0.00    +0.000 OA
ENDBRANCH  10  19
BRANCH   4  22
ATOM     22  O   UNL     1       2.248   9.911  17.450  0.00  0.00    +0.000 OA
ATOM     23  H   UNL     1       2.787   9.185  17.084  0.00  0.00    +0.000 HD
ENDBRANCH   4  22
TORSDOF 2
ENDMDL
MODEL 3
REMARK VINA RESULT:      -7.1      2.393      3.596
REMARK  Name = 
REMARK  2 active torsions:
REMARK  status: ('A' for Active; 'I' for Inactive)
REMARK    1  A    between atoms: C_4  and  O_5
REMARK    2  A    between atoms: C_11  and  N_12
REMARK                            x       y       z     vdW  Elec       q    Type
REMARK                         _______ _______ _______ _____ _____    ______ ____
ROOT
ATOM      1  N   UNL     1       4.596   3.494  17.674  0.00  0.00    +0.000 N 
ATOM      2  C   UNL     1       3.938   4.536  18.287  0.00  0.00    +0.000 A 
ATOM      3  N   UNL     1       3.521   4.349  19.530  0.00  0.00    +0.000 NA
ATOM      4  C   UNL     1       2.847   5.374  20.070  0.00  0.00    +0.000 A 
ATOM      5  C   UNL     1       2.555   6.607  19.466  0.00  0.00    +0.000 A 
ATOM      6  C   UNL     1       3.097   6.666  18.180  0.00  0.00    +0.000 A 
ATOM      7  C   UNL     1       2.919   7.819  17.441  0.00  0.00    +0.000 A 
ATOM      8  C   UNL     1       2.203   8.913  17.933  0.00  0.00    +0.000 A 
ATOM      9  C   UNL     1       1.614   8.898  19.214  0.00  0.00    +0.000 A 
ATOM     10  C   UNL     1       0.849   9.983  19.756  0.00  0.00    +0.000 A 
ATOM     11  C   UNL     1       0.271   9.941  21.028  0.00  0.00    +0.000 A 
ATOM     12 BR   UNL     1      -0.800  11.321  21.773  0.00  0.00    +0.000 Br
ATOM     13  C   UNL     1       0.464   8.808  21.799  0.00  0.00    +0.000 A 
ATOM     14  C   UNL     1       1.210   7.739  21.294  0.00  0.00    +0.000 A 
ATOM     15  C   UNL     1       1.799   7.734  20.004  0.00  0.00    +0.000 A 
ATOM     16  N   UNL     1       3.779   5.667  17.603  0.00  0.00    +0.000 NA
ATOM     17  H   UNL     1       5.002   2.864  18.348  0.00  0.00    +0.000 HD
ATOM     18  H   UNL     1       5.186   3.826  16.923  0.00  0.00    +0.000 HD
ENDROOT
BRANCH  10  19
ATOM     19  N   UNL     1       0.653  11.178  18.959  0.00  0.00    +0.000 N 
ATOM     20  O   UNL     1       1.526  12.054  19.033  0.00  0.00    +0.000 OA
ATOM     21  O   UNL     1      -0.385  11.247  18.287  0.00  0.00    +0.000 OA
ENDBRANCH  10  19
BRANCH   4  22
ATOM     22  O   UNL     1       2.451   5.070  21.332  0.00  0.00    +0.000 OA
ATOM     23  H   UNL     1       1.505   5.300  21.275  0.00  0.00    +0.000 HD
ENDBRANCH   4  22
TORSDOF 2
ENDMDL
MODEL 4
REMARK VINA RESULT:      -7.1      2.828      3.754
REMARK  Name = 
REMARK  2 active torsions:
REMARK  status: ('A' for Active; 'I' for Inactive)
REMARK    1  A    between atoms: C_4  and  O_5
REMARK    2  A    between atoms: C_11  and  N_12
REMARK                            x       y       z     vdW  Elec       q    Type
REMARK                         _______ _______ _______ _____ _____    ______ ____
ROOT
ATOM      1  N   UNL     1       7.043   3.630  13.747  0.00  0.00    +0.000 N 
ATOM      2  C   UNL     1       6.198   4.214  14.664  0.00  0.00    +0.000 A 
ATOM      3  N   UNL     1       6.008   5.522  14.574  0.00  0.00    +0.000 NA
ATOM      4  C   UNL     1       5.214   6.053  15.515  0.00  0.00    +0.000 A 
ATOM      5  C   UNL     1       4.566   5.373  16.558  0.00  0.00    +0.000 A 
ATOM      6  C   UNL     1       4.829   4.003  16.491  0.00  0.00    +0.000 A 
ATOM      7  C   UNL     1       4.258   3.174  17.436  0.00  0.00    +0.000 A 
ATOM      8  C   UNL     1       3.444   3.665  18.459  0.00  0.00    +0.000 A 
ATOM      9  C   UNL     1       3.165   5.042  18.588  0.00  0.00    +0.000 A 
ATOM     10  C   UNL     1       2.358   5.601  19.633  0.00  0.00    +0.000 A 
ATOM     11  C   UNL     1       2.100   6.970  19.742  0.00  0.00    +0.000 A 
ATOM     12 BR   UNL     1       1.089   7.772  21.136  0.00  0.00    +0.000 Br
ATOM     13  C   UNL     1       2.638   7.815  18.787  0.00  0.00    +0.000 A 
ATOM     14  C   UNL     1       3.424   7.294  17.756  0.00  0.00    +0.000 A 
ATOM     15  C   UNL     1       3.723   5.915  17.619  0.00  0.00    +0.000 A 
ATOM     16  N   UNL     1       5.614   3.430  15.567  0.00  0.00    +0.000 NA
ATOM     17  H   UNL     1       7.122   4.186  12.910  0.00  0.00    +0.000 HD
ATOM     18  H   UNL     1       6.844   2.645  13.643  0.00  0.00    +0.000 HD
ENDROOT
BRANCH  10  19
ATOM     19  N   UNL     1       1.781   4.719  20.630  0.00  0.00    +0.000 N 
ATOM     20  O   UNL     1       2.473   4.465  21.625  0.00  0.00    +0.000 OA
ATOM     21  O   UNL     1       0.653   4.264  20.399  0.00  0.00    +0.000 OA
ENDBRANCH  10  19
BRANCH   4  22
ATOM     22  O   UNL     1       5.104   7.394  15.341  0.00  0.00    +0.000 OA
ATOM     23  H   UNL     1       5.721   7.707  16.028  0.00  0.00    +0.000 HD
ENDBRANCH   4  22
TORSDOF 2
ENDMDL
MODEL 5
REMARK VINA RESULT:      -6.9      2.729      6.424
REMARK  Name = 
REMARK  2 active torsions:
REMARK  status: ('A' for Active; 'I' for Inactive)
REMARK    1  A    between atoms: C_4  and  O_5
REMARK    2  A    between atoms: C_11  and  N_12
REMARK                            x       y       z     vdW  Elec       q    Type
REMARK                         _______ _______ _______ _____ _____    ______ ____
ROOT
ATOM      1  N   UNL     1       1.154  11.957  18.180  0.00  0.00    +0.000 N 
ATOM      2  C   UNL     1       1.386  10.645  18.527  0.00  0.00    +0.000 A 
ATOM      3  N   UNL     1       0.747  10.171  19.587  0.00  0.00    +0.000 NA
ATOM      4  C   UNL     1       1.038   8.904  19.913  0.00  0.00    +0.000 A 
ATOM      5  C   UNL     1       1.924   8.041  19.250  0.00  0.00    +0.000 A 
ATOM      6  C   UNL     1       2.481   8.670  18.134  0.00  0.00    +0.000 A 
ATOM      7  C   UNL     1       3.370   7.960  17.351  0.00  0.00    +0.000 A 
ATOM      8  C   UNL     1       3.737   6.646  17.650  0.00  0.00    +0.000 A 
ATOM      9  C   UNL     1       3.224   5.971  18.778  0.00  0.00    +0.000 A 
ATOM     10  C   UNL     1       3.587   4.634  19.144  0.00  0.00    +0.000 A 
ATOM     11  C   UNL     1       3.068   3.989  20.270  0.00  0.00    +0.000 A 
ATOM     12 BR   UNL     1       3.556   2.243  20.836  0.00  0.00    +0.000 Br
ATOM     13  C   UNL     1       2.152   4.671  21.052  0.00  0.00    +0.000 A 
ATOM     14  C   UNL     1       1.778   5.974  20.712  0.00  0.00    +0.000 A 
ATOM     15  C   UNL     1       2.293   6.671  19.590  0.00  0.00    +0.000 A 
ATOM     16  N   UNL     1       2.217   9.933  17.770  0.00  0.00    +0.000 NA
ATOM     17  H   UNL     1       0.270  12.284  18.536  0.00  0.00    +0.000 HD
ATOM     18  H   UNL     1       1.359  12.118  17.203  0.00  0.00    +0.000 HD
ENDROOT
BRANCH  10  19
ATOM     19  N   UNL     1       4.537   3.908  18.323  0.00  0.00    +0.000 N 
ATOM     20  O   UNL     1       4.077   3.225  17.398  0.00  0.00    +0.000 OA
ATOM     21  O   UNL     1       5.735   4.003  18.625  0.00  0.00    +0.000 OA
ENDBRANCH  10  19
BRANCH   4  22
ATOM     22  O   UNL     1       0.347   8.528  21.019  0.00  0.00    +0.000 OA
ATOM     23  H   UNL     1       1.081   8.217  21.582  0.00  0.00    +0.000 HD
ENDBRANCH   4  22
TORSDOF 2
ENDMDL
MODEL 6
REMARK VINA RESULT:      -6.8      3.035      4.554
REMARK  Name = 
REMARK  2 active torsions:
REMARK  status: ('A' for Active; 'I' for Inactive)
REMARK    1  A    between atoms: C_4  and  O_5
REMARK    2  A    between atoms: C_11  and  N_12
REMARK                            x       y       z     vdW  Elec       q    Type
REMARK                         _______ _______ _______ _____ _____    ______ ____
ROOT
ATOM      1  N   UNL     1       4.193   5.523  17.094  0.00  0.00    +0.000 N 
ATOM      2  C   UNL     1       3.471   6.331  17.943  0.00  0.00    +0.000 A 
ATOM      3  N   UNL     1       3.180   5.852  19.143  0.00  0.00    +0.000 NA
ATOM      4  C   UNL     1       2.438   6.656  19.918  0.00  0.00    +0.000 A 
ATOM      5  C   UNL     1       1.957   7.934  19.595  0.00  0.00    +0.000 A 
ATOM      6  C   UNL     1       2.382   8.313  18.320  0.00  0.00    +0.000 A 
ATOM      7  C   UNL     1       2.012   9.555  17.843  0.00  0.00    +0.000 A 
ATOM      8  C   UNL     1       1.217  10.429  18.587  0.00  0.00    +0.000 A 
ATOM      9  C   UNL     1       0.740  10.089  19.869  0.00  0.00    +0.000 A 
ATOM     10  C   UNL     1      -0.100  10.937  20.663  0.00  0.00    +0.000 A 
ATOM     11  C   UNL     1      -0.564  10.574  21.930  0.00  0.00    +0.000 A 
ATOM     12 BR   UNL     1      -1.724  11.630  23.000  0.00  0.00    +0.000 Br
ATOM     13  C   UNL     1      -0.179   9.346  22.441  0.00  0.00    +0.000 A 
ATOM     14  C   UNL     1       0.643   8.503  21.688  0.00  0.00    +0.000 A 
ATOM     15  C   UNL     1       1.121   8.826  20.393  0.00  0.00    +0.000 A 
ATOM     16  N   UNL     1       3.127   7.543  17.514  0.00  0.00    +0.000 NA
ATOM     17  H   UNL     1       4.722   4.831  17.602  0.00  0.00    +0.000 HD
ATOM     18  H   UNL     1       4.677   6.069  16.395  0.00  0.00    +0.000 HD
ENDROOT
BRANCH  10  19
ATOM     19  N   UNL     1      -0.497  12.230  20.139  0.00  0.00    +0.000 N 
ATOM     20  O   UNL     1      -1.551  12.276  19.492  0.00  0.00    +0.000 OA
ATOM     21  O   UNL     1       0.262  13.185  20.353  0.00  0.00    +0.000 OA
ENDBRANCH  10  19
BRANCH   4  22
ATOM     22  O   UNL     1       2.183   6.062  21.112  0.00  0.00    +0.000 OA
ATOM     23  H   UNL     1       1.213   6.154  21.145  0.00  0.00    +0.000 HD
ENDBRANCH   4  22
TORSDOF 2
ENDMDL
MODEL 7
REMARK VINA RESULT:      -6.8      1.357      1.673
REMARK  Name = 
REMARK  2 active torsions:
REMARK  status: ('A' for Active; 'I' for Inactive)
REMARK    1  A    between atoms: C_4  and  O_5
REMARK    2  A    between atoms: C_11  and  N_12
REMARK                            x       y       z     vdW  Elec       q    Type
REMARK                         _______ _______ _______ _____ _____    ______ ____
ROOT
ATOM      1  N   UNL     1       4.852   2.496  19.100  0.00  0.00    +0.000 N 
ATOM      2  C   UNL     1       4.254   3.731  18.989  0.00  0.00    +0.000 A 
ATOM      3  N   UNL     1       4.514   4.442  17.901  0.00  0.00    +0.000 NA
ATOM      4  C   UNL     1       3.946   5.654  17.858  0.00  0.00    +0.000 A 
ATOM      5  C   UNL     1       3.109   6.232  18.825  0.00  0.00    +0.000 A 
ATOM      6  C   UNL     1       2.896   5.347  19.884  0.00  0.00    +0.000 A 
ATOM      7  C   UNL     1       2.080   5.746  20.924  0.00  0.00    +0.000 A 
ATOM      8  C   UNL     1       1.480   7.007  20.954  0.00  0.00    +0.000 A 
ATOM      9  C   UNL     1       1.679   7.949  19.924  0.00  0.00    +0.000 A 
ATOM     10  C   UNL     1       1.108   9.264  19.919  0.00  0.00    +0.000 A 
ATOM     11  C   UNL     1       1.326  10.181  18.887  0.00  0.00    +0.000 A 
ATOM     12 BR   UNL     1       0.645  11.953  18.855  0.00  0.00    +0.000 Br
ATOM     13  C   UNL     1       2.115   9.790  17.819  0.00  0.00    +0.000 A 
ATOM     14  C   UNL     1       2.679   8.511  17.799  0.00  0.00    +0.000 A 
ATOM     15  C   UNL     1       2.498   7.558  18.832  0.00  0.00    +0.000 A 
ATOM     16  N   UNL     1       3.442   4.125  19.967  0.00  0.00    +0.000 NA
ATOM     17  H   UNL     1       5.113   2.128  18.198  0.00  0.00    +0.000 HD
ATOM     18  H   UNL     1       4.333   1.895  19.725  0.00  0.00    +0.000 HD
ENDROOT
BRANCH  10  19
ATOM     19  N   UNL     1       0.270   9.675  21.028  0.00  0.00    +0.000 N 
ATOM     20  O   UNL     1       0.841  10.146  22.022  0.00  0.00    +0.000 OA
ATOM     21  O   UNL     1      -0.950   9.499  20.912  0.00  0.00    +0.000 OA
ENDBRANCH  10  19
BRANCH   4  22
ATOM     22  O   UNL     1       4.293   6.301  16.715  0.00  0.00    +0.000 OA
ATOM     23  H   UNL     1       3.803   7.136  16.836  0.00  0.00    +0.000 HD
ENDBRANCH   4  22
TORSDOF 2
ENDMDL
MODEL 8
REMARK VINA RESULT:      -6.7      3.305      5.685
REMARK  Name = 
REMARK  2 active torsions:
REMARK  status: ('A' for Active; 'I' for Inactive)
REMARK    1  A    between atoms: C_4  and  O_5
REMARK    2  A    between atoms: C_11  and  N_12
REMARK                            x       y       z     vdW  Elec       q    Type
REMARK                         _______ _______ _______ _____ _____    ______ ____
ROOT
ATOM      1  N   UNL     1       1.068  11.460  18.850  0.00  0.00    +0.000 N 
ATOM      2  C   UNL     1       1.488  10.150  18.825  0.00  0.00    +0.000 A 
ATOM      3  N   UNL     1       2.184   9.749  17.771  0.00  0.00    +0.000 NA
ATOM      4  C   UNL     1       2.532   8.455  17.770  0.00  0.00    +0.000 A 
ATOM      5  C   UNL     1       2.249   7.502  18.761  0.00  0.00    +0.000 A 
ATOM      6  C   UNL     1       1.551   8.085  19.820  0.00  0.00    +0.000 A 
ATOM      7  C   UNL     1       1.200   7.293  20.896  0.00  0.00    +0.000 A 
ATOM      8  C   UNL     1       1.507   5.932  20.946  0.00  0.00    +0.000 A 
ATOM      9  C   UNL     1       2.189   5.286  19.894  0.00  0.00    +0.000 A 
ATOM     10  C   UNL     1       2.505   3.888  19.883  0.00  0.00    +0.000 A 
ATOM     11  C   UNL     1       3.177   3.271  18.825  0.00  0.00    +0.000 A 
ATOM     12 BR   UNL     1       3.571   1.415  18.730  0.00  0.00    +0.000 Br
ATOM     13  C   UNL     1       3.566   4.052  17.751  0.00  0.00    +0.000 A 
ATOM     14  C   UNL     1       3.273   5.419  17.740  0.00  0.00    +0.000 A 
ATOM     15  C   UNL     1       2.579   6.081  18.784  0.00  0.00    +0.000 A 
ATOM     16  N   UNL     1       1.185   9.375  19.863  0.00  0.00    +0.000 NA
ATOM     17  H   UNL     1       1.641  12.044  18.259  0.00  0.00    +0.000 HD
ATOM     18  H   UNL     1       0.895  11.771  19.795  0.00  0.00    +0.000 HD
ENDROOT
BRANCH  10  19
ATOM     19  N   UNL     1       2.112   3.065  21.011  0.00  0.00    +0.000 N 
ATOM     20  O   UNL     1       2.967   2.858  21.883  0.00  0.00    +0.000 OA
ATOM     21  O   UNL     1       0.961   2.608  21.004  0.00  0.00    +0.000 OA
ENDBRANCH  10  19
BRANCH   4  22
ATOM     22  O   UNL     1       3.222   8.150  16.642  0.00  0.00    +0.000 OA
ATOM     23  H   UNL     1       2.691   8.633  15.981  0.00  0.00    +0.000 HD
ENDBRANCH   4  22
TORSDOF 2
ENDMDL
MODEL 9
REMARK VINA RESULT:      -6.5      3.922      5.177
REMARK  Name = 
REMARK  2 active torsions:
REMARK  status: ('A' for Active; 'I' for Inactive)
REMARK    1  A    between atoms: C_4  and  O_5
REMARK    2  A    between atoms: C_11  and  N_12
REMARK                            x       y       z     vdW  Elec       q    Type
REMARK                         _______ _______ _______ _____ _____    ______ ____
ROOT
ATOM      1  N   UNL     1       0.990   2.711  22.235  0.00  0.00    +0.000 N 
ATOM      2  C   UNL     1       1.713   2.957  21.090  0.00  0.00    +0.000 A 
ATOM      3  N   UNL     1       2.048   1.916  20.341  0.00  0.00    +0.000 NA
ATOM      4  C   UNL     1       2.789   2.200  19.262  0.00  0.00    +0.000 A 
ATOM      5  C   UNL     1       3.227   3.466  18.844  0.00  0.00    +0.000 A 
ATOM      6  C   UNL     1       2.758   4.459  19.708  0.00  0.00    +0.000 A 
ATOM      7  C   UNL     1       3.082   5.774  19.440  0.00  0.00    +0.000 A 
ATOM      8  C   UNL     1       3.873   6.136  18.348  0.00  0.00    +0.000 A 
ATOM      9  C   UNL     1       4.394   5.173  17.458  0.00  0.00    +0.000 A 
ATOM     10  C   UNL     1       5.231   5.488  16.337  0.00  0.00    +0.000 A 
ATOM     11  C   UNL     1       5.738   4.515  15.473  0.00  0.00    +0.000 A 
ATOM     12 BR   UNL     1       6.897   4.866  14.010  0.00  0.00    +0.000 Br
ATOM     13  C   UNL     1       5.400   3.192  15.704  0.00  0.00    +0.000 A 
ATOM     14  C   UNL     1       4.581   2.861  16.787  0.00  0.00    +0.000 A 
ATOM     15  C   UNL     1       4.060   3.815  17.697  0.00  0.00    +0.000 A 
ATOM     16  N   UNL     1       2.013   4.220  20.797  0.00  0.00    +0.000 NA
ATOM     17  H   UNL     1       0.493   1.835  22.178  0.00  0.00    +0.000 HD
ATOM     18  H   UNL     1       0.473   3.529  22.523  0.00  0.00    +0.000 HD
ENDROOT
BRANCH  10  19
ATOM     19  N   UNL     1       5.579   6.872  16.081  0.00  0.00    +0.000 N 
ATOM     20  O   UNL     1       4.878   7.489  15.268  0.00  0.00    +0.000 OA
ATOM     21  O   UNL     1       6.568   7.326  16.673  0.00  0.00    +0.000 OA
ENDBRANCH  10  19
BRANCH   4  22
ATOM     22  O   UNL     1       3.091   1.065  18.581  0.00  0.00    +0.000 OA
ATOM     23  H   UNL     1       3.616   1.438  17.849  0.00  0.00    +0.000 HD
ENDBRANCH   4  22
TORSDOF 2
ENDMDL
