MODEL 1
REMARK VINA RESULT:      -7.1      0.000      0.000
REMARK  Name = 
REMARK  9 active torsions:
REMARK  status: ('A' for Active; 'I' for Inactive)
REMARK    1  A    between atoms: C_1  and  C_2
REMARK    2  A    between atoms: C_2  and  N_3
REMARK    3  A    between atoms: C_7  and  C_8
REMARK    4  A    between atoms: C_8  and  N_9
REMARK    5  A    between atoms: N_9  and  C_10
REMARK    6  A    between atoms: C_10  and  C_11
REMARK    7  A    between atoms: N_13  and  C_14
REMARK    8  A    between atoms: C_17  and  O_18
REMARK    9  A    between atoms: O_18  and  C_19
REMARK                            x       y       z     vdW  Elec       q    Type
REMARK                         _______ _______ _______ _____ _____    ______ ____
ROOT
ATOM      1  C   UNL     1       2.491   5.120  19.296  0.00  0.00    +0.000 C 
ATOM      2  O   UNL     1       1.648   4.905  18.426  0.00  0.00    +0.000 OA
ATOM      3  N   UNL     1       2.810   6.345  19.835  0.00  0.00    +0.000 N 
ATOM      4  H   UNL     1       3.627   6.396  20.429  0.00  0.00    +0.000 HD
ENDROOT
BRANCH   3   5
ATOM      5  C   UNL     1       2.159   7.548  19.529  0.00  0.00    +0.000 A 
ATOM      6  C   UNL     1       2.235   8.157  18.275  0.00  0.00    +0.000 A 
ATOM      7  C   UNL     1       1.558   9.352  18.034  0.00  0.00    +0.000 A 
ATOM      8  C   UNL     1       0.789   9.934  19.034  0.00  0.00    +0.000 A 
ATOM      9  C   UNL     1       0.743   9.348  20.298  0.00  0.00    +0.000 A 
ATOM     10  C   UNL     1       1.403   8.135  20.534  0.00  0.00    +0.000 A 
BRANCH   8  11
ATOM     11  O   UNL     1       0.194  11.106  18.691  0.00  0.00    +0.000 OA
BRANCH  11  12
ATOM     12  C   UNL     1      -1.168  11.076  18.293  0.00  0.00    +0.000 C 
ATOM     13  F   UNL     1      -1.524   9.987  17.579  0.00  0.00    +0.000 F 
ATOM     14  F   UNL     1      -1.943  11.135  19.397  0.00  0.00    +0.000 F 
ATOM     15  F   UNL     1      -1.423  12.168  17.538  0.00  0.00    +0.000 F 
ENDBRANCH  11  12
ENDBRANCH   8  11
ENDBRANCH   3   5
BRANCH   1  16
ATOM     16  C   UNL     1       3.291   3.984  19.929  0.00  0.00    +0.000 C 
BRANCH  16  17
ATOM     17  N   UNL     1       4.182   3.498  18.897  0.00  0.00    +0.000 NA
ATOM     18  H   UNL     1       4.354   2.502  19.065  0.00  0.00    +0.000 HD
BRANCH  17  19
ATOM     19  C   UNL     1       5.401   4.257  18.760  0.00  0.00    +0.000 C 
BRANCH  19  24
ATOM     20  N   UNL     1       6.511   5.665  16.934  0.00  0.00    +0.000 NA
ATOM     21  C   UNL     1       7.130   4.588  16.133  0.00  0.00    +0.000 C 
ATOM     22  C   UNL     1       5.941   4.176  15.280  0.00  0.00    +0.000 C 
ATOM     23  C   UNL     1       4.830   4.092  16.301  0.00  0.00    +0.000 C 
ATOM     24  C   UNL     1       5.274   5.046  17.442  0.00  0.00    +0.000 C 
BRANCH  20  26
ATOM     25  C   UNL     1       7.726   7.834  17.580  0.00  0.00    +0.000 C 
ATOM     26  C   UNL     1       7.364   6.377  17.908  0.00  0.00    +0.000 C 
ENDBRANCH  20  26
ENDBRANCH  19  24
ENDBRANCH  17  19
ENDBRANCH  16  17
ENDBRANCH   1  16
TORSDOF 8
ENDMDL
MODEL 2
REMARK VINA RESULT:      -7.0      5.254      8.059
REMARK  Name = 
REMARK  9 active torsions:
REMARK  status: ('A' for Active; 'I' for Inactive)
REMARK    1  A    between atoms: C_1  and  C_2
REMARK    2  A    between atoms: C_2  and  N_3
REMARK    3  A    between atoms: C_7  and  C_8
REMARK    4  A    between atoms: C_8  and  N_9
REMARK    5  A    between atoms: N_9  and  C_10
REMARK    6  A    between atoms: C_10  and  C_11
REMARK    7  A    between atoms: N_13  and  C_14
REMARK    8  A    between atoms: C_17  and  O_18
REMARK    9  A    between atoms: O_18  and  C_19
REMARK                            x       y       z     vdW  Elec       q    Type
REMARK                         _______ _______ _______ _____ _____    ______ ____
ROOT
ATOM      1  C   UNL     1       7.950   8.027  18.018  0.00  0.00    +0.000 C 
ATOM      2  O   UNL     1       8.401   7.219  18.830  0.00  0.00    +0.000 OA
ATOM      3  N   UNL     1       6.928   7.797  17.125  0.00  0.00    +0.000 N 
ATOM      4  H   UNL     1       6.764   8.498  16.414  0.00  0.00    +0.000 HD
ENDROOT
BRANCH   3   5
ATOM      5  C   UNL     1       6.178   6.616  17.053  0.00  0.00    +0.000 A 
ATOM      6  C   UNL     1       6.697   5.413  16.571  0.00  0.00    +0.000 A 
ATOM      7  C   UNL     1       5.899   4.271  16.531  0.00  0.00    +0.000 A 
ATOM      8  C   UNL     1       4.587   4.319  16.988  0.00  0.00    +0.000 A 
ATOM      9  C   UNL     1       4.055   5.528  17.432  0.00  0.00    +0.000 A 
ATOM     10  C   UNL     1       4.864   6.670  17.495  0.00  0.00    +0.000 A 
BRANCH   8  11
ATOM     11  O   UNL     1       3.898   3.152  16.879  0.00  0.00    +0.000 OA
BRANCH  11  12
ATOM     12  C   UNL     1       3.480   2.507  18.072  0.00  0.00    +0.000 C 
ATOM     13  F   UNL     1       2.266   2.887  18.524  0.00  0.00    +0.000 F 
ATOM     14  F   UNL     1       3.458   1.174  17.858  0.00  0.00    +0.000 F 
ATOM     15  F   UNL     1       4.384   2.765  19.044  0.00  0.00    +0.000 F 
ENDBRANCH  11  12
ENDBRANCH   8  11
ENDBRANCH   3   5
BRANCH   1  16
ATOM     16  C   UNL     1       8.481   9.455  17.935  0.00  0.00    +0.000 C 
BRANCH  16  17
ATOM     17  N   UNL     1       9.128   9.717  19.204  0.00  0.00    +0.000 NA
ATOM     18  H   UNL     1       8.504   9.403  19.953  0.00  0.00    +0.000 HD
BRANCH  17  19
ATOM     19  C   UNL     1       9.561  11.082  19.376  0.00  0.00    +0.000 C 
BRANCH  19  24
ATOM     20  N   UNL     1       9.663  12.838  17.517  0.00  0.00    +0.000 NA
ATOM     21  C   UNL     1      10.606  13.796  18.132  0.00  0.00    +0.000 C 
ATOM     22  C   UNL     1      11.928  13.138  17.767  0.00  0.00    +0.000 C 
ATOM     23  C   UNL     1      11.669  11.691  18.115  0.00  0.00    +0.000 C 
ATOM     24  C   UNL     1      10.128  11.532  18.015  0.00  0.00    +0.000 C 
BRANCH  20  26
ATOM     25  C   UNL     1       7.821  14.420  18.358  0.00  0.00    +0.000 C 
ATOM     26  C   UNL     1       8.218  13.130  17.622  0.00  0.00    +0.000 C 
ENDBRANCH  20  26
ENDBRANCH  19  24
ENDBRANCH  17  19
ENDBRANCH  16  17
ENDBRANCH   1  16
TORSDOF 8
ENDMDL
MODEL 3
REMARK VINA RESULT:      -6.9      0.922      1.835
REMARK  Name = 
REMARK  9 active torsions:
REMARK  status: ('A' for Active; 'I' for Inactive)
REMARK    1  A    between atoms: C_1  and  C_2
REMARK    2  A    between atoms: C_2  and  N_3
REMARK    3  A    between atoms: C_7  and  C_8
REMARK    4  A    between atoms: C_8  and  N_9
REMARK    5  A    between atoms: N_9  and  C_10
REMARK    6  A    between atoms: C_10  and  C_11
REMARK    7  A    between atoms: N_13  and  C_14
REMARK    8  A    between atoms: C_17  and  O_18
REMARK    9  A    between atoms: O_18  and  C_19
REMARK                            x       y       z     vdW  Elec       q    Type
REMARK                         _______ _______ _______ _____ _____    ______ ____
ROOT
ATOM      1  C   UNL     1       2.446   4.813  19.398  0.00  0.00    +0.000 C 
ATOM      2  O   UNL     1       1.457   4.633  18.689  0.00  0.00    +0.000 OA
ATOM      3  N   UNL     1       2.913   6.027  19.849  0.00  0.00    +0.000 N 
ATOM      4  H   UNL     1       3.821   6.041  20.294  0.00  0.00    +0.000 HD
ENDROOT
BRANCH   3   5
ATOM      5  C   UNL     1       2.279   7.258  19.635  0.00  0.00    +0.000 A 
ATOM      6  C   UNL     1       2.341   7.944  18.420  0.00  0.00    +0.000 A 
ATOM      7  C   UNL     1       1.683   9.164  18.269  0.00  0.00    +0.000 A 
ATOM      8  C   UNL     1       0.947   9.695  19.322  0.00  0.00    +0.000 A 
ATOM      9  C   UNL     1       0.917   9.031  20.547  0.00  0.00    +0.000 A 
ATOM     10  C   UNL     1       1.557   7.794  20.691  0.00  0.00    +0.000 A 
BRANCH   8  11
ATOM     11  O   UNL     1       0.368  10.898  19.067  0.00  0.00    +0.000 OA
BRANCH  11  12
ATOM     12  C   UNL     1      -1.029  10.931  18.819  0.00  0.00    +0.000 C 
ATOM     13  F   UNL     1      -1.590   9.726  18.583  0.00  0.00    +0.000 F 
ATOM     14  F   UNL     1      -1.645  11.487  19.884  0.00  0.00    +0.000 F 
ATOM     15  F   UNL     1      -1.259  11.713  17.740  0.00  0.00    +0.000 F 
ENDBRANCH  11  12
ENDBRANCH   8  11
ENDBRANCH   3   5
BRANCH   1  16
ATOM     16  C   UNL     1       3.286   3.645  19.908  0.00  0.00    +0.000 C 
BRANCH  16  17
ATOM     17  N   UNL     1       4.623   3.857  19.394  0.00  0.00    +0.000 NA
ATOM     18  H   UNL     1       4.975   4.742  19.773  0.00  0.00    +0.000 HD
BRANCH  17  19
ATOM     19  C   UNL     1       4.722   3.789  17.957  0.00  0.00    +0.000 C 
BRANCH  19  24
ATOM     20  N   UNL     1       6.189   4.818  16.130  0.00  0.00    +0.000 NA
ATOM     21  C   UNL     1       5.417   6.049  15.856  0.00  0.00    +0.000 C 
ATOM     22  C   UNL     1       5.943   6.943  16.968  0.00  0.00    +0.000 C 
ATOM     23  C   UNL     1       5.888   6.025  18.167  0.00  0.00    +0.000 C 
ATOM     24  C   UNL     1       5.978   4.595  17.570  0.00  0.00    +0.000 C 
BRANCH  20  26
ATOM     25  C   UNL     1       6.139   3.928  13.720  0.00  0.00    +0.000 C 
ATOM     26  C   UNL     1       5.990   3.665  15.227  0.00  0.00    +0.000 C 
ENDBRANCH  20  26
ENDBRANCH  19  24
ENDBRANCH  17  19
ENDBRANCH  16  17
ENDBRANCH   1  16
TORSDOF 8
ENDMDL
MODEL 4
REMARK VINA RESULT:      -6.8      6.412      8.722
REMARK  Name = 
REMARK  9 active torsions:
REMARK  status: ('A' for Active; 'I' for Inactive)
REMARK    1  A    between atoms: C_1  and  C_2
REMARK    2  A    between atoms: C_2  and  N_3
REMARK    3  A    between atoms: C_7  and  C_8
REMARK    4  A    between atoms: C_8  and  N_9
REMARK    5  A    between atoms: N_9  and  C_10
REMARK    6  A    between atoms: C_10  and  C_11
REMARK    7  A    between atoms: N_13  and  C_14
REMARK    8  A    between atoms: C_17  and  O_18
REMARK    9  A    between atoms: O_18  and  C_19
REMARK                            x       y       z     vdW  Elec       q    Type
REMARK                         _______ _______ _______ _____ _____    ______ ____
ROOT
ATOM      1  C   UNL     1       7.281   5.148  17.261  0.00  0.00    +0.000 C 
ATOM      2  O   UNL     1       8.111   4.240  17.256  0.00  0.00    +0.000 OA
ATOM      3  N   UNL     1       6.539   5.578  16.184  0.00  0.00    +0.000 N 
ATOM      4  H   UNL     1       6.009   6.432  16.294  0.00  0.00    +0.000 HD
ENDROOT
BRANCH   3   5
ATOM      5  C   UNL     1       6.555   4.986  14.914  0.00  0.00    +0.000 A 
ATOM      6  C   UNL     1       7.568   5.217  13.980  0.00  0.00    +0.000 A 
ATOM      7  C   UNL     1       7.528   4.593  12.734  0.00  0.00    +0.000 A 
ATOM      8  C   UNL     1       6.489   3.724  12.421  0.00  0.00    +0.000 A 
ATOM      9  C   UNL     1       5.458   3.523  13.337  0.00  0.00    +0.000 A 
ATOM     10  C   UNL     1       5.510   4.131  14.597  0.00  0.00    +0.000 A 
BRANCH   8  11
ATOM     11  O   UNL     1       6.544   3.192  11.172  0.00  0.00    +0.000 OA
BRANCH  11  12
ATOM     12  C   UNL     1       6.716   1.788  11.047  0.00  0.00    +0.000 C 
ATOM     13  F   UNL     1       5.724   1.048  11.586  0.00  0.00    +0.000 F 
ATOM     14  F   UNL     1       6.816   1.481   9.736  0.00  0.00    +0.000 F 
ATOM     15  F   UNL     1       7.871   1.438  11.654  0.00  0.00    +0.000 F 
ENDBRANCH  11  12
ENDBRANCH   8  11
ENDBRANCH   3   5
BRANCH   1  16
ATOM     16  C   UNL     1       6.943   5.913  18.538  0.00  0.00    +0.000 C 
BRANCH  16  17
ATOM     17  N   UNL     1       6.164   5.006  19.354  0.00  0.00    +0.000 NA
ATOM     18  H   UNL     1       6.455   4.048  19.137  0.00  0.00    +0.000 HD
BRANCH  17  19
ATOM     19  C   UNL     1       4.737   5.191  19.248  0.00  0.00    +0.000 C 
BRANCH  19  24
ATOM     20  N   UNL     1       2.770   3.575  19.502  0.00  0.00    +0.000 NA
ATOM     21  C   UNL     1       1.913   4.050  18.396  0.00  0.00    +0.000 C 
ATOM     22  C   UNL     1       2.548   3.306  17.231  0.00  0.00    +0.000 C 
ATOM     23  C   UNL     1       4.022   3.539  17.470  0.00  0.00    +0.000 C 
ATOM     24  C   UNL     1       4.136   3.794  18.997  0.00  0.00    +0.000 C 
BRANCH  20  26
ATOM     25  C   UNL     1       1.822   3.046  21.832  0.00  0.00    +0.000 C 
ATOM     26  C   UNL     1       2.464   4.055  20.866  0.00  0.00    +0.000 C 
ENDBRANCH  20  26
ENDBRANCH  19  24
ENDBRANCH  17  19
ENDBRANCH  16  17
ENDBRANCH   1  16
TORSDOF 8
ENDMDL
MODEL 5
REMARK VINA RESULT:      -6.8      4.495      6.944
REMARK  Name = 
REMARK  9 active torsions:
REMARK  status: ('A' for Active; 'I' for Inactive)
REMARK    1  A    between atoms: C_1  and  C_2
REMARK    2  A    between atoms: C_2  and  N_3
REMARK    3  A    between atoms: C_7  and  C_8
REMARK    4  A    between atoms: C_8  and  N_9
REMARK    5  A    between atoms: N_9  and  C_10
REMARK    6  A    between atoms: C_10  and  C_11
REMARK    7  A    between atoms: N_13  and  C_14
REMARK    8  A    between atoms: C_17  and  O_18
REMARK    9  A    between atoms: O_18  and  C_19
REMARK                            x       y       z     vdW  Elec       q    Type
REMARK                         _______ _______ _______ _____ _____    ______ ____
ROOT
ATOM      1  C   UNL     1       7.105   7.076  17.706  0.00  0.00    +0.000 C 
ATOM      2  O   UNL     1       7.344   6.371  18.686  0.00  0.00    +0.000 OA
ATOM      3  N   UNL     1       5.956   7.055  16.949  0.00  0.00    +0.000 N 
ATOM      4  H   UNL     1       5.957   7.578  16.083  0.00  0.00    +0.000 HD
ENDROOT
BRANCH   3   5
ATOM      5  C   UNL     1       4.828   6.271  17.228  0.00  0.00    +0.000 A 
ATOM      6  C   UNL     1       4.746   4.915  16.907  0.00  0.00    +0.000 A 
ATOM      7  C   UNL     1       3.597   4.189  17.216  0.00  0.00    +0.000 A 
ATOM      8  C   UNL     1       2.533   4.808  17.864  0.00  0.00    +0.000 A 
ATOM      9  C   UNL     1       2.598   6.170  18.150  0.00  0.00    +0.000 A 
ATOM     10  C   UNL     1       3.762   6.894  17.860  0.00  0.00    +0.000 A 
BRANCH   8  11
ATOM     11  O   UNL     1       1.459   4.008  18.094  0.00  0.00    +0.000 OA
BRANCH  11  12
ATOM     12  C   UNL     1       1.224   3.566  19.423  0.00  0.00    +0.000 C 
ATOM     13  F   UNL     1       0.732   4.510  20.253  0.00  0.00    +0.000 F 
ATOM     14  F   UNL     1       0.356   2.533  19.388  0.00  0.00    +0.000 F 
ATOM     15  F   UNL     1       2.390   3.123  19.944  0.00  0.00    +0.000 F 
ENDBRANCH  11  12
ENDBRANCH   8  11
ENDBRANCH   3   5
BRANCH   1  16
ATOM     16  C   UNL     1       8.097   8.130  17.220  0.00  0.00    +0.000 C 
BRANCH  16  17
ATOM     17  N   UNL     1       7.885   9.295  18.053  0.00  0.00    +0.000 NA
ATOM     18  H   UNL     1       7.583  10.068  17.452  0.00  0.00    +0.000 HD
BRANCH  17  19
ATOM     19  C   UNL     1       9.012   9.642  18.883  0.00  0.00    +0.000 C 
BRANCH  19  24
ATOM     20  N   UNL     1       9.648  11.921  19.860  0.00  0.00    +0.000 NA
ATOM     21  C   UNL     1      11.117  11.768  19.908  0.00  0.00    +0.000 C 
ATOM     22  C   UNL     1      11.468  12.135  18.475  0.00  0.00    +0.000 C 
ATOM     23  C   UNL     1      10.449  11.346  17.686  0.00  0.00    +0.000 C 
ATOM     24  C   UNL     1       9.262  11.148  18.666  0.00  0.00    +0.000 C 
BRANCH  20  26
ATOM     25  C   UNL     1       9.205  12.583  22.303  0.00  0.00    +0.000 C 
ATOM     26  C   UNL     1       8.888  11.675  21.104  0.00  0.00    +0.000 C 
ENDBRANCH  20  26
ENDBRANCH  19  24
ENDBRANCH  17  19
ENDBRANCH  16  17
ENDBRANCH   1  16
TORSDOF 8
ENDMDL
MODEL 6
REMARK VINA RESULT:      -6.8      0.541      1.389
REMARK  Name = 
REMARK  9 active torsions:
REMARK  status: ('A' for Active; 'I' for Inactive)
REMARK    1  A    between atoms: C_1  and  C_2
REMARK    2  A    between atoms: C_2  and  N_3
REMARK    3  A    between atoms: C_7  and  C_8
REMARK    4  A    between atoms: C_8  and  N_9
REMARK    5  A    between atoms: N_9  and  C_10
REMARK    6  A    between atoms: C_10  and  C_11
REMARK    7  A    between atoms: N_13  and  C_14
REMARK    8  A    between atoms: C_17  and  O_18
REMARK    9  A    between atoms: O_18  and  C_19
REMARK                            x       y       z     vdW  Elec       q    Type
REMARK                         _______ _______ _______ _____ _____    ______ ____
ROOT
ATOM      1  C   UNL     1       2.477   5.538  19.477  0.00  0.00    +0.000 C 
ATOM      2  O   UNL     1       1.813   5.309  18.467  0.00  0.00    +0.000 OA
ATOM      3  N   UNL     1       2.583   6.749  20.123  0.00  0.00    +0.000 N 
ATOM      4  H   UNL     1       3.283   6.831  20.849  0.00  0.00    +0.000 HD
ENDROOT
BRANCH   3   5
ATOM      5  C   UNL     1       1.879   7.908  19.772  0.00  0.00    +0.000 A 
ATOM      6  C   UNL     1       1.057   8.600  20.664  0.00  0.00    +0.000 A 
ATOM      7  C   UNL     1       0.387   9.751  20.253  0.00  0.00    +0.000 A 
ATOM      8  C   UNL     1       0.547  10.226  18.956  0.00  0.00    +0.000 A 
ATOM      9  C   UNL     1       1.335   9.515  18.053  0.00  0.00    +0.000 A 
ATOM     10  C   UNL     1       2.027   8.373  18.473  0.00  0.00    +0.000 A 
BRANCH   8  11
ATOM     11  O   UNL     1      -0.171  11.342  18.662  0.00  0.00    +0.000 OA
BRANCH  11  12
ATOM     12  C   UNL     1      -1.544  11.189  18.334  0.00  0.00    +0.000 C 
ATOM     13  F   UNL     1      -2.402  11.629  19.278  0.00  0.00    +0.000 F 
ATOM     14  F   UNL     1      -1.791  11.857  17.187  0.00  0.00    +0.000 F 
ATOM     15  F   UNL     1      -1.796   9.878  18.124  0.00  0.00    +0.000 F 
ENDBRANCH  11  12
ENDBRANCH   8  11
ENDBRANCH   3   5
BRANCH   1  16
ATOM     16  C   UNL     1       3.268   4.437  20.179  0.00  0.00    +0.000 C 
BRANCH  16  17
ATOM     17  N   UNL     1       4.347   4.084  19.282  0.00  0.00    +0.000 NA
ATOM     18  H   UNL     1       4.698   3.160  19.550  0.00  0.00    +0.000 HD
BRANCH  17  19
ATOM     19  C   UNL     1       5.394   5.073  19.197  0.00  0.00    +0.000 C 
BRANCH  19  24
ATOM     20  N   UNL     1       6.763   5.848  17.179  0.00  0.00    +0.000 NA
ATOM     21  C   UNL     1       7.248   4.540  16.691  0.00  0.00    +0.000 C 
ATOM     22  C   UNL     1       6.043   4.101  15.873  0.00  0.00    +0.000 C 
ATOM     23  C   UNL     1       4.895   4.410  16.807  0.00  0.00    +0.000 C 
ATOM     24  C   UNL     1       5.432   5.538  17.728  0.00  0.00    +0.000 C 
BRANCH  20  26
ATOM     25  C   UNL     1       7.840   8.133  17.653  0.00  0.00    +0.000 C 
ATOM     26  C   UNL     1       7.676   6.650  18.022  0.00  0.00    +0.000 C 
ENDBRANCH  20  26
ENDBRANCH  19  24
ENDBRANCH  17  19
ENDBRANCH  16  17
ENDBRANCH   1  16
TORSDOF 8
ENDMDL
MODEL 7
REMARK VINA RESULT:      -6.7      1.015      2.300
REMARK  Name = 
REMARK  9 active torsions:
REMARK  status: ('A' for Active; 'I' for Inactive)
REMARK    1  A    between atoms: C_1  and  C_2
REMARK    2  A    between atoms: C_2  and  N_3
REMARK    3  A    between atoms: C_7  and  C_8
REMARK    4  A    between atoms: C_8  and  N_9
REMARK    5  A    between atoms: N_9  and  C_10
REMARK    6  A    between atoms: C_10  and  C_11
REMARK    7  A    between atoms: N_13  and  C_14
REMARK    8  A    between atoms: C_17  and  O_18
REMARK    9  A    between atoms: O_18  and  C_19
REMARK                            x       y       z     vdW  Elec       q    Type
REMARK                         _______ _______ _______ _____ _____    ______ ____
ROOT
ATOM      1  C   UNL     1       2.787   5.178  19.984  0.00  0.00    +0.000 C 
ATOM      2  O   UNL     1       2.004   5.098  20.930  0.00  0.00    +0.000 OA
ATOM      3  N   UNL     1       2.915   6.245  19.123  0.00  0.00    +0.000 N 
ATOM      4  H   UNL     1       3.489   6.113  18.300  0.00  0.00    +0.000 HD
ENDROOT
BRANCH   3   5
ATOM      5  C   UNL     1       2.219   7.455  19.239  0.00  0.00    +0.000 A 
ATOM      6  C   UNL     1       1.656   7.898  20.437  0.00  0.00    +0.000 A 
ATOM      7  C   UNL     1       0.979   9.115  20.487  0.00  0.00    +0.000 A 
ATOM      8  C   UNL     1       0.876   9.904  19.347  0.00  0.00    +0.000 A 
ATOM      9  C   UNL     1       1.404   9.446  18.141  0.00  0.00    +0.000 A 
ATOM     10  C   UNL     1       2.104   8.234  18.096  0.00  0.00    +0.000 A 
BRANCH   8  11
ATOM     11  O   UNL     1       0.176  11.058  19.509  0.00  0.00    +0.000 OA
BRANCH  11  12
ATOM     12  C   UNL     1      -1.137  11.127  18.974  0.00  0.00    +0.000 C 
ATOM     13  F   UNL     1      -2.022  11.803  19.736  0.00  0.00    +0.000 F 
ATOM     14  F   UNL     1      -1.078  11.717  17.761  0.00  0.00    +0.000 F 
ATOM     15  F   UNL     1      -1.605   9.870  18.812  0.00  0.00    +0.000 F 
ENDBRANCH  11  12
ENDBRANCH   8  11
ENDBRANCH   3   5
BRANCH   1  16
ATOM     16  C   UNL     1       3.776   4.059  19.670  0.00  0.00    +0.000 C 
BRANCH  16  17
ATOM     17  N   UNL     1       4.989   4.710  19.223  0.00  0.00    +0.000 NA
ATOM     18  H   UNL     1       4.815   5.719  19.177  0.00  0.00    +0.000 HD
BRANCH  17  19
ATOM     19  C   UNL     1       5.525   4.182  17.991  0.00  0.00    +0.000 C 
BRANCH  19  24
ATOM     20  N   UNL     1       7.454   5.253  16.696  0.00  0.00    +0.000 NA
ATOM     21  C   UNL     1       7.134   6.680  16.909  0.00  0.00    +0.000 C 
ATOM     22  C   UNL     1       7.761   6.890  18.279  0.00  0.00    +0.000 C 
ATOM     23  C   UNL     1       7.278   5.676  19.039  0.00  0.00    +0.000 C 
ATOM     24  C   UNL     1       7.005   4.611  17.943  0.00  0.00    +0.000 C 
BRANCH  20  26
ATOM     25  C   UNL     1       5.817   5.259  14.715  0.00  0.00    +0.000 C 
ATOM     26  C   UNL     1       7.031   4.634  15.422  0.00  0.00    +0.000 C 
ENDBRANCH  20  26
ENDBRANCH  19  24
ENDBRANCH  17  19
ENDBRANCH  16  17
ENDBRANCH   1  16
TORSDOF 8
ENDMDL
MODEL 8
REMARK VINA RESULT:      -6.7      1.348      2.265
REMARK  Name = 
REMARK  9 active torsions:
REMARK  status: ('A' for Active; 'I' for Inactive)
REMARK    1  A    between atoms: C_1  and  C_2
REMARK    2  A    between atoms: C_2  and  N_3
REMARK    3  A    between atoms: C_7  and  C_8
REMARK    4  A    between atoms: C_8  and  N_9
REMARK    5  A    between atoms: N_9  and  C_10
REMARK    6  A    between atoms: C_10  and  C_11
REMARK    7  A    between atoms: N_13  and  C_14
REMARK    8  A    between atoms: C_17  and  O_18
REMARK    9  A    between atoms: O_18  and  C_19
REMARK                            x       y       z     vdW  Elec       q    Type
REMARK                         _______ _______ _______ _____ _____    ______ ____
ROOT
ATOM      1  C   UNL     1       3.041   4.984  19.138  0.00  0.00    +0.000 C 
ATOM      2  O   UNL     1       2.131   4.669  18.372  0.00  0.00    +0.000 OA
ATOM      3  N   UNL     1       3.305   6.251  19.608  0.00  0.00    +0.000 N 
ATOM      4  H   UNL     1       4.174   6.391  20.107  0.00  0.00    +0.000 HD
ENDROOT
BRANCH   3   5
ATOM      5  C   UNL     1       2.520   7.382  19.347  0.00  0.00    +0.000 A 
ATOM      6  C   UNL     1       2.512   8.034  18.112  0.00  0.00    +0.000 A 
ATOM      7  C   UNL     1       1.704   9.152  17.915  0.00  0.00    +0.000 A 
ATOM      8  C   UNL     1       0.888   9.614  18.941  0.00  0.00    +0.000 A 
ATOM      9  C   UNL     1       0.923   8.988  20.186  0.00  0.00    +0.000 A 
ATOM     10  C   UNL     1       1.717   7.850  20.377  0.00  0.00    +0.000 A 
BRANCH   8  11
ATOM     11  O   UNL     1       0.161  10.723  18.641  0.00  0.00    +0.000 OA
BRANCH  11  12
ATOM     12  C   UNL     1       0.621  11.976  19.123  0.00  0.00    +0.000 C 
ATOM     13  F   UNL     1       0.935  12.870  18.161  0.00  0.00    +0.000 F 
ATOM     14  F   UNL     1      -0.335  12.514  19.910  0.00  0.00    +0.000 F 
ATOM     15  F   UNL     1       1.725  11.773  19.875  0.00  0.00    +0.000 F 
ENDBRANCH  11  12
ENDBRANCH   8  11
ENDBRANCH   3   5
BRANCH   1  16
ATOM     16  C   UNL     1       4.002   3.944  19.706  0.00  0.00    +0.000 C 
BRANCH  16  17
ATOM     17  N   UNL     1       5.302   4.251  19.147  0.00  0.00    +0.000 NA
ATOM     18  H   UNL     1       5.572   5.189  19.458  0.00  0.00    +0.000 HD
BRANCH  17  19
ATOM     19  C   UNL     1       5.382   4.096  17.715  0.00  0.00    +0.000 C 
BRANCH  19  24
ATOM     20  N   UNL     1       6.690   5.729  16.241  0.00  0.00    +0.000 NA
ATOM     21  C   UNL     1       6.471   6.978  17.000  0.00  0.00    +0.000 C 
ATOM     22  C   UNL     1       7.562   6.844  18.051  0.00  0.00    +0.000 C 
ATOM     23  C   UNL     1       7.397   5.410  18.499  0.00  0.00    +0.000 C 
ATOM     24  C   UNL     1       6.737   4.695  17.289  0.00  0.00    +0.000 C 
BRANCH  20  26
ATOM     25  C   UNL     1       6.244   4.332  14.131  0.00  0.00    +0.000 C 
ATOM     26  C   UNL     1       5.823   5.473  15.072  0.00  0.00    +0.000 C 
ENDBRANCH  20  26
ENDBRANCH  19  24
ENDBRANCH  17  19
ENDBRANCH  16  17
ENDBRANCH   1  16
TORSDOF 8
ENDMDL
MODEL 9
REMARK VINA RESULT:      -6.7      0.886      2.218
REMARK  Name = 
REMARK  9 active torsions:
REMARK  status: ('A' for Active; 'I' for Inactive)
REMARK    1  A    between atoms: C_1  and  C_2
REMARK    2  A    between atoms: C_2  and  N_3
REMARK    3  A    between atoms: C_7  and  C_8
REMARK    4  A    between atoms: C_8  and  N_9
REMARK    5  A    between atoms: N_9  and  C_10
REMARK    6  A    between atoms: C_10  and  C_11
REMARK    7  A    between atoms: N_13  and  C_14
REMARK    8  A    between atoms: C_17  and  O_18
REMARK    9  A    between atoms: O_18  and  C_19
REMARK                            x       y       z     vdW  Elec       q    Type
REMARK                         _______ _______ _______ _____ _____    ______ ____
ROOT
ATOM      1  C   UNL     1       2.637   5.197  19.760  0.00  0.00    +0.000 C 
ATOM      2  O   UNL     1       1.473   4.820  19.896  0.00  0.00    +0.000 OA
ATOM      3  N   UNL     1       3.054   6.494  19.563  0.00  0.00    +0.000 N 
ATOM      4  H   UNL     1       4.023   6.639  19.313  0.00  0.00    +0.000 HD
ENDROOT
BRANCH   3   5
ATOM      5  C   UNL     1       2.213   7.614  19.567  0.00  0.00    +0.000 A 
ATOM      6  C   UNL     1       1.510   8.035  20.698  0.00  0.00    +0.000 A 
ATOM      7  C   UNL     1       0.693   9.162  20.636  0.00  0.00    +0.000 A 
ATOM      8  C   UNL     1       0.587   9.885  19.453  0.00  0.00    +0.000 A 
ATOM      9  C   UNL     1       1.256   9.444  18.313  0.00  0.00    +0.000 A 
ATOM     10  C   UNL     1       2.096   8.325  18.381  0.00  0.00    +0.000 A 
BRANCH   8  11
ATOM     11  O   UNL     1      -0.255  10.950  19.506  0.00  0.00    +0.000 OA
BRANCH  11  12
ATOM     12  C   UNL     1      -1.454  10.897  18.748  0.00  0.00    +0.000 C 
ATOM     13  F   UNL     1      -1.361  11.422  17.507  0.00  0.00    +0.000 F 
ATOM     14  F   UNL     1      -1.840   9.608  18.639  0.00  0.00    +0.000 F 
ATOM     15  F   UNL     1      -2.417  11.574  19.412  0.00  0.00    +0.000 F 
ENDBRANCH  11  12
ENDBRANCH   8  11
ENDBRANCH   3   5
BRANCH   1  16
ATOM     16  C   UNL     1       3.806   4.218  19.833  0.00  0.00    +0.000 C 
BRANCH  16  17
ATOM     17  N   UNL     1       4.895   4.839  19.109  0.00  0.00    +0.000 NA
ATOM     18  H   UNL     1       4.721   5.848  19.071  0.00  0.00    +0.000 HD
BRANCH  17  19
ATOM     19  C   UNL     1       5.142   4.268  17.807  0.00  0.00    +0.000 C 
BRANCH  19  24
ATOM     20  N   UNL     1       6.650   5.671  16.289  0.00  0.00    +0.000 NA
ATOM     21  C   UNL     1       6.520   6.984  16.955  0.00  0.00    +0.000 C 
ATOM     22  C   UNL     1       7.554   6.824  18.058  0.00  0.00    +0.000 C 
ATOM     23  C   UNL     1       7.241   5.445  18.590  0.00  0.00    +0.000 C 
ATOM     24  C   UNL     1       6.562   4.711  17.402  0.00  0.00    +0.000 C 
BRANCH  20  26
ATOM     25  C   UNL     1       6.197   4.220  14.217  0.00  0.00    +0.000 C 
ATOM     26  C   UNL     1       5.807   5.414  15.102  0.00  0.00    +0.000 C 
ENDBRANCH  20  26
ENDBRANCH  19  24
ENDBRANCH  17  19
ENDBRANCH  16  17
ENDBRANCH   1  16
TORSDOF 8
ENDMDL
