MODEL 1
REMARK VINA RESULT:      -7.2      0.000      0.000
REMARK  Name = 
REMARK  9 active torsions:
REMARK  status: ('A' for Active; 'I' for Inactive)
REMARK    1  A    between atoms: C_1  and  C_2
REMARK    2  A    between atoms: C_2  and  N_3
REMARK    3  A    between atoms: N_3  and  C_4
REMARK    4  A    between atoms: C_5  and  O_7
REMARK    5  A    between atoms: O_7  and  C_8
REMARK    6  A    between atoms: C_11  and  C_12
REMARK    7  A    between atoms: C_13  and  C_14
REMARK    8  A    between atoms: N_19  and  C_20
REMARK    9  A    between atoms: C_20  and  C_21
REMARK                            x       y       z     vdW  Elec       q    Type
REMARK                         _______ _______ _______ _____ _____    ______ ____
ROOT
ATOM      1  C   UNL     1       0.771   7.826  21.444  0.00  0.00    +0.000 C 
ATOM      2  C   UNL     1       0.807   9.167  21.448  0.00  0.00    +0.000 C 
ENDROOT
BRANCH   2   3
ATOM      3  C   UNL     1       0.112   9.950  22.498  0.00  0.00    +0.000 C 
ATOM      4  O   UNL     1       0.296   9.688  23.683  0.00  0.00    +0.000 OA
ATOM      5  N   UNL     1      -0.669  10.998  22.050  0.00  0.00    +0.000 N 
ATOM      6  C   UNL     1      -1.212  11.960  23.014  0.00  0.00    +0.000 C 
ATOM      7  C   UNL     1      -1.013  13.417  22.525  0.00  0.00    +0.000 C 
ATOM      8  N   UNL     1      -1.450  13.681  21.126  0.00  0.00    +0.000 NA
ATOM      9  C   UNL     1      -0.821  12.670  20.246  0.00  0.00    +0.000 C 
ATOM     10  C   UNL     1      -1.100  11.217  20.664  0.00  0.00    +0.000 C 
BRANCH   8  11
ATOM     11  C   UNL     1      -2.925  13.689  21.050  0.00  0.00    +0.000 C 
BRANCH  11  12
ATOM     12  C   UNL     1      -3.614  14.711  21.931  0.00  0.00    +0.000 A 
ATOM     13  C   UNL     1      -3.376  16.082  21.736  0.00  0.00    +0.000 A 
ATOM     14  C   UNL     1      -4.029  17.038  22.516  0.00  0.00    +0.000 A 
ATOM     15  C   UNL     1      -4.933  16.637  23.496  0.00  0.00    +0.000 A 
ATOM     16  C   UNL     1      -5.181  15.279  23.699  0.00  0.00    +0.000 A 
ATOM     17  C   UNL     1      -4.524  14.321  22.923  0.00  0.00    +0.000 A 
ENDBRANCH  11  12
ENDBRANCH   8  11
ENDBRANCH   2   3
BRANCH   1  21
ATOM     18  C   UNL     1       3.020   5.379  18.738  0.00  0.00    +0.000 A 
ATOM     19  C   UNL     1       2.318   4.795  19.794  0.00  0.00    +0.000 A 
ATOM     20  C   UNL     1       1.562   5.607  20.652  0.00  0.00    +0.000 A 
ATOM     21  C   UNL     1       1.522   7.000  20.481  0.00  0.00    +0.000 A 
ATOM     22  C   UNL     1       2.211   7.558  19.396  0.00  0.00    +0.000 A 
ATOM     23  C   UNL     1       2.976   6.758  18.546  0.00  0.00    +0.000 A 
BRANCH  18  24
ATOM     24  O   UNL     1       3.871   4.548  17.982  0.00  0.00    +0.000 OA
BRANCH  24  27
ATOM     25  N   UNL     1       6.120   4.986  17.619  0.00  0.00    +0.000 N 
ATOM     26  C   UNL     1       5.727   5.854  16.525  0.00  0.00    +0.000 C 
ATOM     27  C   UNL     1       5.182   4.355  18.425  0.00  0.00    +0.000 C 
ATOM     28  O   UNL     1       5.487   3.665  19.398  0.00  0.00    +0.000 OA
BRANCH  25  30
ATOM     29  C   UNL     1       8.117   5.645  18.937  0.00  0.00    +0.000 C 
ATOM     30  C   UNL     1       7.539   4.745  17.858  0.00  0.00    +0.000 C 
ENDBRANCH  25  30
ENDBRANCH  24  27
ENDBRANCH  18  24
ENDBRANCH   1  21
TORSDOF 7
ENDMDL
MODEL 2
REMARK VINA RESULT:      -7.2      2.779      3.613
REMARK  Name = 
REMARK  9 active torsions:
REMARK  status: ('A' for Active; 'I' for Inactive)
REMARK    1  A    between atoms: C_1  and  C_2
REMARK    2  A    between atoms: C_2  and  N_3
REMARK    3  A    between atoms: N_3  and  C_4
REMARK    4  A    between atoms: C_5  and  O_7
REMARK    5  A    between atoms: O_7  and  C_8
REMARK    6  A    between atoms: C_11  and  C_12
REMARK    7  A    between atoms: C_13  and  C_14
REMARK    8  A    between atoms: N_19  and  C_20
REMARK    9  A    between atoms: C_20  and  C_21
REMARK                            x       y       z     vdW  Elec       q    Type
REMARK                         _______ _______ _______ _____ _____    ______ ____
ROOT
ATOM      1  C   UNL     1       0.956   8.348  20.947  0.00  0.00    +0.000 C 
ATOM      2  C   UNL     1       1.032   9.659  20.672  0.00  0.00    +0.000 C 
ENDROOT
BRANCH   2   3
ATOM      3  C   UNL     1       0.352  10.663  21.526  0.00  0.00    +0.000 C 
ATOM      4  O   UNL     1      -0.049  10.347  22.643  0.00  0.00    +0.000 OA
ATOM      5  N   UNL     1       0.277  11.942  21.011  0.00  0.00    +0.000 N 
ATOM      6  C   UNL     1      -0.173  13.043  21.867  0.00  0.00    +0.000 C 
ATOM      7  C   UNL     1       0.749  14.280  21.719  0.00  0.00    +0.000 C 
ATOM      8  N   UNL     1       1.020  14.704  20.317  0.00  0.00    +0.000 NA
ATOM      9  C   UNL     1       1.490  13.521  19.559  0.00  0.00    +0.000 C 
ATOM     10  C   UNL     1       0.531  12.321  19.615  0.00  0.00    +0.000 C 
BRANCH   8  11
ATOM     11  C   UNL     1      -0.184  15.332  19.737  0.00  0.00    +0.000 C 
BRANCH  11  12
ATOM     12  C   UNL     1       0.079  16.468  18.768  0.00  0.00    +0.000 A 
ATOM     13  C   UNL     1      -0.992  17.227  18.269  0.00  0.00    +0.000 A 
ATOM     14  C   UNL     1      -0.764  18.298  17.403  0.00  0.00    +0.000 A 
ATOM     15  C   UNL     1       0.537  18.627  17.031  0.00  0.00    +0.000 A 
ATOM     16  C   UNL     1       1.609  17.883  17.521  0.00  0.00    +0.000 A 
ATOM     17  C   UNL     1       1.383  16.808  18.384  0.00  0.00    +0.000 A 
ENDBRANCH  11  12
ENDBRANCH   8  11
ENDBRANCH   2   3
BRANCH   1  21
ATOM     18  C   UNL     1       3.165   5.345  18.833  0.00  0.00    +0.000 A 
ATOM     19  C   UNL     1       2.611   5.060  20.081  0.00  0.00    +0.000 A 
ATOM     20  C   UNL     1       1.865   6.043  20.747  0.00  0.00    +0.000 A 
ATOM     21  C   UNL     1       1.689   7.319  20.186  0.00  0.00    +0.000 A 
ATOM     22  C   UNL     1       2.230   7.571  18.919  0.00  0.00    +0.000 A 
ATOM     23  C   UNL     1       2.984   6.601  18.257  0.00  0.00    +0.000 A 
BRANCH  18  24
ATOM     24  O   UNL     1       4.015   4.379  18.259  0.00  0.00    +0.000 OA
BRANCH  24  27
ATOM     25  N   UNL     1       6.160   5.212  17.970  0.00  0.00    +0.000 N 
ATOM     26  C   UNL     1       6.358   5.073  19.401  0.00  0.00    +0.000 C 
ATOM     27  C   UNL     1       4.989   4.801  17.350  0.00  0.00    +0.000 C 
ATOM     28  O   UNL     1       4.821   4.848  16.132  0.00  0.00    +0.000 OA
BRANCH  25  30
ATOM     29  C   UNL     1       7.307   7.332  17.377  0.00  0.00    +0.000 C 
ATOM     30  C   UNL     1       7.211   5.831  17.167  0.00  0.00    +0.000 C 
ENDBRANCH  25  30
ENDBRANCH  24  27
ENDBRANCH  18  24
ENDBRANCH   1  21
TORSDOF 7
ENDMDL
MODEL 3
REMARK VINA RESULT:      -7.1      7.516      8.872
REMARK  Name = 
REMARK  9 active torsions:
REMARK  status: ('A' for Active; 'I' for Inactive)
REMARK    1  A    between atoms: C_1  and  C_2
REMARK    2  A    between atoms: C_2  and  N_3
REMARK    3  A    between atoms: N_3  and  C_4
REMARK    4  A    between atoms: C_5  and  O_7
REMARK    5  A    between atoms: O_7  and  C_8
REMARK    6  A    between atoms: C_11  and  C_12
REMARK    7  A    between atoms: C_13  and  C_14
REMARK    8  A    between atoms: N_19  and  C_20
REMARK    9  A    between atoms: C_20  and  C_21
REMARK                            x       y       z     vdW  Elec       q    Type
REMARK                         _______ _______ _______ _____ _____    ______ ____
ROOT
ATOM      1  C   UNL     1       8.599   9.535  18.106  0.00  0.00    +0.000 C 
ATOM      2  C   UNL     1       9.255   9.968  19.194  0.00  0.00    +0.000 C 
ENDROOT
BRANCH   2   3
ATOM      3  C   UNL     1       9.824  11.336  19.254  0.00  0.00    +0.000 C 
ATOM      4  O   UNL     1      10.497  11.762  18.320  0.00  0.00    +0.000 OA
ATOM      5  N   UNL     1       9.486  12.080  20.367  0.00  0.00    +0.000 N 
ATOM      6  C   UNL     1       9.813  13.509  20.409  0.00  0.00    +0.000 C 
ATOM      7  C   UNL     1       8.609  14.345  20.913  0.00  0.00    +0.000 C 
ATOM      8  N   UNL     1       7.977  13.852  22.169  0.00  0.00    +0.000 NA
ATOM      9  C   UNL     1       7.670  12.414  21.999  0.00  0.00    +0.000 C 
ATOM     10  C   UNL     1       8.883  11.558  21.599  0.00  0.00    +0.000 C 
BRANCH   8  11
ATOM     11  C   UNL     1       8.858  14.133  23.321  0.00  0.00    +0.000 C 
BRANCH  11  12
ATOM     12  C   UNL     1       8.184  14.094  24.678  0.00  0.00    +0.000 A 
ATOM     13  C   UNL     1       7.314  15.128  25.060  0.00  0.00    +0.000 A 
ATOM     14  C   UNL     1       6.659  15.091  26.291  0.00  0.00    +0.000 A 
ATOM     15  C   UNL     1       6.859  14.016  27.154  0.00  0.00    +0.000 A 
ATOM     16  C   UNL     1       7.719  12.981  26.786  0.00  0.00    +0.000 A 
ATOM     17  C   UNL     1       8.380  13.019  25.556  0.00  0.00    +0.000 A 
ENDBRANCH  11  12
ENDBRANCH   8  11
ENDBRANCH   2   3
BRANCH   1  21
ATOM     18  C   UNL     1       6.775   5.665  17.868  0.00  0.00    +0.000 A 
ATOM     19  C   UNL     1       7.796   5.904  18.789  0.00  0.00    +0.000 A 
ATOM     20  C   UNL     1       8.361   7.184  18.876  0.00  0.00    +0.000 A 
ATOM     21  C   UNL     1       7.934   8.222  18.032  0.00  0.00    +0.000 A 
ATOM     22  C   UNL     1       6.888   7.964  17.136  0.00  0.00    +0.000 A 
ATOM     23  C   UNL     1       6.329   6.689  17.036  0.00  0.00    +0.000 A 
BRANCH  18  24
ATOM     24  O   UNL     1       6.326   4.337  17.721  0.00  0.00    +0.000 OA
BRANCH  24  27
ATOM     25  N   UNL     1       4.108   3.698  17.950  0.00  0.00    +0.000 N 
ATOM     26  C   UNL     1       4.319   3.649  19.385  0.00  0.00    +0.000 C 
ATOM     27  C   UNL     1       5.105   4.112  17.078  0.00  0.00    +0.000 C 
ATOM     28  O   UNL     1       4.933   4.224  15.865  0.00  0.00    +0.000 OA
BRANCH  25  30
ATOM     29  C   UNL     1       1.692   4.228  17.743  0.00  0.00    +0.000 C 
ATOM     30  C   UNL     1       2.823   3.269  17.408  0.00  0.00    +0.000 C 
ENDBRANCH  25  30
ENDBRANCH  24  27
ENDBRANCH  18  24
ENDBRANCH   1  21
TORSDOF 7
ENDMDL
MODEL 4
REMARK VINA RESULT:      -7.1      1.104      1.675
REMARK  Name = 
REMARK  9 active torsions:
REMARK  status: ('A' for Active; 'I' for Inactive)
REMARK    1  A    between atoms: C_1  and  C_2
REMARK    2  A    between atoms: C_2  and  N_3
REMARK    3  A    between atoms: N_3  and  C_4
REMARK    4  A    between atoms: C_5  and  O_7
REMARK    5  A    between atoms: O_7  and  C_8
REMARK    6  A    between atoms: C_11  and  C_12
REMARK    7  A    between atoms: C_13  and  C_14
REMARK    8  A    between atoms: N_19  and  C_20
REMARK    9  A    between atoms: C_20  and  C_21
REMARK                            x       y       z     vdW  Elec       q    Type
REMARK                         _______ _______ _______ _____ _____    ______ ____
ROOT
ATOM      1  C   UNL     1       1.119   8.123  21.112  0.00  0.00    +0.000 C 
ATOM      2  C   UNL     1       0.859   9.440  21.105  0.00  0.00    +0.000 C 
ENDROOT
BRANCH   2   3
ATOM      3  C   UNL     1       0.191  10.096  22.255  0.00  0.00    +0.000 C 
ATOM      4  O   UNL     1       0.455   9.743  23.401  0.00  0.00    +0.000 OA
ATOM      5  N   UNL     1      -0.658  11.139  21.944  0.00  0.00    +0.000 N 
ATOM      6  C   UNL     1      -1.187  11.988  23.016  0.00  0.00    +0.000 C 
ATOM      7  C   UNL     1      -1.079  13.489  22.646  0.00  0.00    +0.000 C 
ATOM      8  N   UNL     1      -1.608  13.850  21.301  0.00  0.00    +0.000 NA
ATOM      9  C   UNL     1      -0.987  12.949  20.303  0.00  0.00    +0.000 C 
ATOM     10  C   UNL     1      -1.178  11.454  20.607  0.00  0.00    +0.000 C 
BRANCH   8  11
ATOM     11  C   UNL     1      -3.083  13.793  21.306  0.00  0.00    +0.000 C 
BRANCH  11  12
ATOM     12  C   UNL     1      -3.771  14.868  22.123  0.00  0.00    +0.000 A 
ATOM     13  C   UNL     1      -4.764  14.517  23.053  0.00  0.00    +0.000 A 
ATOM     14  C   UNL     1      -5.384  15.491  23.837  0.00  0.00    +0.000 A 
ATOM     15  C   UNL     1      -5.014  16.827  23.708  0.00  0.00    +0.000 A 
ATOM     16  C   UNL     1      -4.028  17.190  22.791  0.00  0.00    +0.000 A 
ATOM     17  C   UNL     1      -3.410  16.217  22.000  0.00  0.00    +0.000 A 
ENDBRANCH  11  12
ENDBRANCH   8  11
ENDBRANCH   2   3
BRANCH   1  21
ATOM     18  C   UNL     1       3.370   6.108  18.073  0.00  0.00    +0.000 A 
ATOM     19  C   UNL     1       2.960   5.419  19.215  0.00  0.00    +0.000 A 
ATOM     20  C   UNL     1       2.198   6.084  20.186  0.00  0.00    +0.000 A 
ATOM     21  C   UNL     1       1.864   7.441  20.038  0.00  0.00    +0.000 A 
ATOM     22  C   UNL     1       2.262   8.102  18.869  0.00  0.00    +0.000 A 
ATOM     23  C   UNL     1       3.031   7.449  17.905  0.00  0.00    +0.000 A 
BRANCH  18  24
ATOM     24  O   UNL     1       4.243   5.444  17.188  0.00  0.00    +0.000 OA
BRANCH  24  27
ATOM     25  N   UNL     1       6.434   6.193  17.323  0.00  0.00    +0.000 N 
ATOM     26  C   UNL     1       6.581   5.402  18.530  0.00  0.00    +0.000 C 
ATOM     27  C   UNL     1       5.263   6.180  16.578  0.00  0.00    +0.000 C 
ATOM     28  O   UNL     1       5.134   6.790  15.517  0.00  0.00    +0.000 OA
BRANCH  25  30
ATOM     29  C   UNL     1       7.746   8.241  17.817  0.00  0.00    +0.000 C 
ATOM     30  C   UNL     1       7.537   7.049  16.898  0.00  0.00    +0.000 C 
ENDBRANCH  25  30
ENDBRANCH  24  27
ENDBRANCH  18  24
ENDBRANCH   1  21
TORSDOF 7
ENDMDL
MODEL 5
REMARK VINA RESULT:      -7.1      1.907      2.551
REMARK  Name = 
REMARK  9 active torsions:
REMARK  status: ('A' for Active; 'I' for Inactive)
REMARK    1  A    between atoms: C_1  and  C_2
REMARK    2  A    between atoms: C_2  and  N_3
REMARK    3  A    between atoms: N_3  and  C_4
REMARK    4  A    between atoms: C_5  and  O_7
REMARK    5  A    between atoms: O_7  and  C_8
REMARK    6  A    between atoms: C_11  and  C_12
REMARK    7  A    between atoms: C_13  and  C_14
REMARK    8  A    between atoms: N_19  and  C_20
REMARK    9  A    between atoms: C_20  and  C_21
REMARK                            x       y       z     vdW  Elec       q    Type
REMARK                         _______ _______ _______ _____ _____    ______ ____
ROOT
ATOM      1  C   UNL     1       1.083   9.907  18.762  0.00  0.00    +0.000 C 
ATOM      2  C   UNL     1      -0.115  10.004  19.359  0.00  0.00    +0.000 C 
ENDROOT
BRANCH   2   3
ATOM      3  C   UNL     1      -0.890  11.268  19.322  0.00  0.00    +0.000 C 
ATOM      4  O   UNL     1      -1.396  11.647  18.270  0.00  0.00    +0.000 OA
ATOM      5  N   UNL     1      -1.048  11.913  20.532  0.00  0.00    +0.000 N 
ATOM      6  C   UNL     1      -1.979  13.041  20.636  0.00  0.00    +0.000 C 
ATOM      7  C   UNL     1      -2.869  12.919  21.900  0.00  0.00    +0.000 C 
ATOM      8  N   UNL     1      -2.135  12.648  23.167  0.00  0.00    +0.000 NA
ATOM      9  C   UNL     1      -1.251  11.480  22.950  0.00  0.00    +0.000 C 
ATOM     10  C   UNL     1      -0.291  11.635  21.759  0.00  0.00    +0.000 C 
BRANCH   8  11
ATOM     11  C   UNL     1      -1.411  13.859  23.601  0.00  0.00    +0.000 C 
BRANCH  11  12
ATOM     12  C   UNL     1      -2.270  15.091  23.804  0.00  0.00    +0.000 A 
ATOM     13  C   UNL     1      -2.088  16.218  22.984  0.00  0.00    +0.000 A 
ATOM     14  C   UNL     1      -2.893  17.347  23.136  0.00  0.00    +0.000 A 
ATOM     15  C   UNL     1      -3.895  17.363  24.103  0.00  0.00    +0.000 A 
ATOM     16  C   UNL     1      -4.088  16.251  24.923  0.00  0.00    +0.000 A 
ATOM     17  C   UNL     1      -3.279  15.121  24.776  0.00  0.00    +0.000 A 
ENDBRANCH  11  12
ENDBRANCH   8  11
ENDBRANCH   2   3
BRANCH   1  21
ATOM     18  C   UNL     1       3.366   6.282  18.653  0.00  0.00    +0.000 A 
ATOM     19  C   UNL     1       2.544   6.560  19.746  0.00  0.00    +0.000 A 
ATOM     20  C   UNL     1       1.780   7.736  19.753  0.00  0.00    +0.000 A 
ATOM     21  C   UNL     1       1.849   8.649  18.688  0.00  0.00    +0.000 A 
ATOM     22  C   UNL     1       2.659   8.333  17.590  0.00  0.00    +0.000 A 
ATOM     23  C   UNL     1       3.432   7.171  17.583  0.00  0.00    +0.000 A 
BRANCH  18  24
ATOM     24  O   UNL     1       4.215   5.161  18.744  0.00  0.00    +0.000 OA
BRANCH  24  27
ATOM     25  N   UNL     1       5.645   4.430  17.070  0.00  0.00    +0.000 N 
ATOM     26  C   UNL     1       6.706   5.184  17.710  0.00  0.00    +0.000 C 
ATOM     27  C   UNL     1       4.372   4.349  17.617  0.00  0.00    +0.000 C 
ATOM     28  O   UNL     1       3.473   3.665  17.129  0.00  0.00    +0.000 OA
BRANCH  25  30
ATOM     29  C   UNL     1       6.159   4.743  14.662  0.00  0.00    +0.000 C 
ATOM     30  C   UNL     1       5.916   3.765  15.799  0.00  0.00    +0.000 C 
ENDBRANCH  25  30
ENDBRANCH  24  27
ENDBRANCH  18  24
ENDBRANCH   1  21
TORSDOF 7
ENDMDL
MODEL 6
REMARK VINA RESULT:      -7.1      3.120      4.229
REMARK  Name = 
REMARK  9 active torsions:
REMARK  status: ('A' for Active; 'I' for Inactive)
REMARK    1  A    between atoms: C_1  and  C_2
REMARK    2  A    between atoms: C_2  and  N_3
REMARK    3  A    between atoms: N_3  and  C_4
REMARK    4  A    between atoms: C_5  and  O_7
REMARK    5  A    between atoms: O_7  and  C_8
REMARK    6  A    between atoms: C_11  and  C_12
REMARK    7  A    between atoms: C_13  and  C_14
REMARK    8  A    between atoms: N_19  and  C_20
REMARK    9  A    between atoms: C_20  and  C_21
REMARK                            x       y       z     vdW  Elec       q    Type
REMARK                         _______ _______ _______ _____ _____    ______ ____
ROOT
ATOM      1  C   UNL     1       1.014  10.138  20.883  0.00  0.00    +0.000 C 
ATOM      2  C   UNL     1      -0.209  10.265  21.421  0.00  0.00    +0.000 C 
ENDROOT
BRANCH   2   3
ATOM      3  C   UNL     1      -0.607  11.502  22.136  0.00  0.00    +0.000 C 
ATOM      4  O   UNL     1      -0.971  11.444  23.307  0.00  0.00    +0.000 OA
ATOM      5  N   UNL     1      -0.470  12.679  21.427  0.00  0.00    +0.000 N 
ATOM      6  C   UNL     1      -0.624  13.963  22.117  0.00  0.00    +0.000 C 
ATOM      7  C   UNL     1       0.507  14.948  21.727  0.00  0.00    +0.000 C 
ATOM      8  N   UNL     1       0.742  15.096  20.264  0.00  0.00    +0.000 NA
ATOM      9  C   UNL     1       0.908  13.743  19.683  0.00  0.00    +0.000 C 
ATOM     10  C   UNL     1      -0.260  12.789  19.978  0.00  0.00    +0.000 C 
BRANCH   8  11
ATOM     11  C   UNL     1      -0.357  15.867  19.650  0.00  0.00    +0.000 C 
BRANCH  11  12
ATOM     12  C   UNL     1       0.054  16.812  18.539  0.00  0.00    +0.000 A 
ATOM     13  C   UNL     1      -0.905  17.638  17.929  0.00  0.00    +0.000 A 
ATOM     14  C   UNL     1      -0.537  18.538  16.928  0.00  0.00    +0.000 A 
ATOM     15  C   UNL     1       0.794  18.630  16.529  0.00  0.00    +0.000 A 
ATOM     16  C   UNL     1       1.756  17.818  17.129  0.00  0.00    +0.000 A 
ATOM     17  C   UNL     1       1.390  16.912  18.127  0.00  0.00    +0.000 A 
ENDBRANCH  11  12
ENDBRANCH   8  11
ENDBRANCH   2   3
BRANCH   1  21
ATOM     18  C   UNL     1       2.313   6.733  18.628  0.00  0.00    +0.000 A 
ATOM     19  C   UNL     1       2.079   6.618  20.000  0.00  0.00    +0.000 A 
ATOM     20  C   UNL     1       1.625   7.734  20.717  0.00  0.00    +0.000 A 
ATOM     21  C   UNL     1       1.427   8.971  20.082  0.00  0.00    +0.000 A 
ATOM     22  C   UNL     1       1.640   9.052  18.700  0.00  0.00    +0.000 A 
ATOM     23  C   UNL     1       2.105   7.949  17.982  0.00  0.00    +0.000 A 
BRANCH  18  24
ATOM     24  O   UNL     1       2.893   5.629  17.971  0.00  0.00    +0.000 OA
BRANCH  24  27
ATOM     25  N   UNL     1       3.567   3.649  18.972  0.00  0.00    +0.000 N 
ATOM     26  C   UNL     1       4.843   4.278  19.252  0.00  0.00    +0.000 C 
ATOM     27  C   UNL     1       2.525   4.342  18.374  0.00  0.00    +0.000 C 
ATOM     28  O   UNL     1       1.412   3.852  18.183  0.00  0.00    +0.000 OA
BRANCH  25  30
ATOM     29  C   UNL     1       3.741   1.314  18.149  0.00  0.00    +0.000 C 
ATOM     30  C   UNL     1       3.385   2.238  19.301  0.00  0.00    +0.000 C 
ENDBRANCH  25  30
ENDBRANCH  24  27
ENDBRANCH  18  24
ENDBRANCH   1  21
TORSDOF 7
ENDMDL
MODEL 7
REMARK VINA RESULT:      -7.1      2.691      3.728
REMARK  Name = 
REMARK  9 active torsions:
REMARK  status: ('A' for Active; 'I' for Inactive)
REMARK    1  A    between atoms: C_1  and  C_2
REMARK    2  A    between atoms: C_2  and  N_3
REMARK    3  A    between atoms: N_3  and  C_4
REMARK    4  A    between atoms: C_5  and  O_7
REMARK    5  A    between atoms: O_7  and  C_8
REMARK    6  A    between atoms: C_11  and  C_12
REMARK    7  A    between atoms: C_13  and  C_14
REMARK    8  A    between atoms: N_19  and  C_20
REMARK    9  A    between atoms: C_20  and  C_21
REMARK                            x       y       z     vdW  Elec       q    Type
REMARK                         _______ _______ _______ _____ _____    ______ ____
ROOT
ATOM      1  C   UNL     1       1.192   8.779  21.175  0.00  0.00    +0.000 C 
ATOM      2  C   UNL     1      -0.006   9.332  20.936  0.00  0.00    +0.000 C 
ENDROOT
BRANCH   2   3
ATOM      3  C   UNL     1      -0.478  10.505  21.711  0.00  0.00    +0.000 C 
ATOM      4  O   UNL     1      -0.891  10.356  22.858  0.00  0.00    +0.000 OA
ATOM      5  N   UNL     1      -0.352  11.730  21.087  0.00  0.00    +0.000 N 
ATOM      6  C   UNL     1      -0.581  12.959  21.852  0.00  0.00    +0.000 C 
ATOM      7  C   UNL     1       0.531  14.004  21.580  0.00  0.00    +0.000 C 
ATOM      8  N   UNL     1       0.825  14.257  20.142  0.00  0.00    +0.000 NA
ATOM      9  C   UNL     1       1.063  12.953  19.482  0.00  0.00    +0.000 C 
ATOM     10  C   UNL     1      -0.083  11.943  19.660  0.00  0.00    +0.000 C 
BRANCH   8  11
ATOM     11  C   UNL     1      -0.273  15.032  19.530  0.00  0.00    +0.000 C 
BRANCH  11  12
ATOM     12  C   UNL     1       0.159  16.187  18.649  0.00  0.00    +0.000 A 
ATOM     13  C   UNL     1      -0.789  17.122  18.201  0.00  0.00    +0.000 A 
ATOM     14  C   UNL     1      -0.402  18.209  17.417  0.00  0.00    +0.000 A 
ATOM     15  C   UNL     1       0.938  18.381  17.077  0.00  0.00    +0.000 A 
ATOM     16  C   UNL     1       1.890  17.462  17.518  0.00  0.00    +0.000 A 
ATOM     17  C   UNL     1       1.504  16.369  18.298  0.00  0.00    +0.000 A 
ENDBRANCH  11  12
ENDBRANCH   8  11
ENDBRANCH   2   3
BRANCH   1  21
ATOM     18  C   UNL     1       2.736   5.604  18.745  0.00  0.00    +0.000 A 
ATOM     19  C   UNL     1       2.834   6.928  18.314  0.00  0.00    +0.000 A 
ATOM     20  C   UNL     1       2.351   7.958  19.135  0.00  0.00    +0.000 A 
ATOM     21  C   UNL     1       1.748   7.674  20.371  0.00  0.00    +0.000 A 
ATOM     22  C   UNL     1       1.689   6.340  20.794  0.00  0.00    +0.000 A 
ATOM     23  C   UNL     1       2.156   5.310  19.976  0.00  0.00    +0.000 A 
BRANCH  18  24
ATOM     24  O   UNL     1       3.110   4.593  17.837  0.00  0.00    +0.000 OA
BRANCH  24  27
ATOM     25  N   UNL     1       5.406   4.303  17.997  0.00  0.00    +0.000 N 
ATOM     26  C   UNL     1       5.195   3.724  19.310  0.00  0.00    +0.000 C 
ATOM     27  C   UNL     1       4.346   4.698  17.193  0.00  0.00    +0.000 C 
ATOM     28  O   UNL     1       4.495   5.132  16.051  0.00  0.00    +0.000 OA
BRANCH  25  30
ATOM     29  C   UNL     1       7.506   5.594  18.290  0.00  0.00    +0.000 C 
ATOM     30  C   UNL     1       6.772   4.506  17.524  0.00  0.00    +0.000 C 
ENDBRANCH  25  30
ENDBRANCH  24  27
ENDBRANCH  18  24
ENDBRANCH   1  21
TORSDOF 7
ENDMDL
MODEL 8
REMARK VINA RESULT:      -7.1      1.895      2.785
REMARK  Name = 
REMARK  9 active torsions:
REMARK  status: ('A' for Active; 'I' for Inactive)
REMARK    1  A    between atoms: C_1  and  C_2
REMARK    2  A    between atoms: C_2  and  N_3
REMARK    3  A    between atoms: N_3  and  C_4
REMARK    4  A    between atoms: C_5  and  O_7
REMARK    5  A    between atoms: O_7  and  C_8
REMARK    6  A    between atoms: C_11  and  C_12
REMARK    7  A    between atoms: C_13  and  C_14
REMARK    8  A    between atoms: N_19  and  C_20
REMARK    9  A    between atoms: C_20  and  C_21
REMARK                            x       y       z     vdW  Elec       q    Type
REMARK                         _______ _______ _______ _____ _____    ______ ____
ROOT
ATOM      1  C   UNL     1       1.285   9.383  18.350  0.00  0.00    +0.000 C 
ATOM      2  C   UNL     1       0.402   9.724  19.302  0.00  0.00    +0.000 C 
ENDROOT
BRANCH   2   3
ATOM      3  C   UNL     1      -0.564  10.829  19.093  0.00  0.00    +0.000 C 
ATOM      4  O   UNL     1      -1.169  10.922  18.029  0.00  0.00    +0.000 OA
ATOM      5  N   UNL     1      -0.768  11.663  20.174  0.00  0.00    +0.000 N 
ATOM      6  C   UNL     1      -1.859  12.641  20.139  0.00  0.00    +0.000 C 
ATOM      7  C   UNL     1      -2.662  12.632  21.465  0.00  0.00    +0.000 C 
ATOM      8  N   UNL     1      -1.840  12.719  22.704  0.00  0.00    +0.000 NA
ATOM      9  C   UNL     1      -0.793  11.673  22.639  0.00  0.00    +0.000 C 
ATOM     10  C   UNL     1       0.077  11.738  21.373  0.00  0.00    +0.000 C 
BRANCH   8  11
ATOM     11  C   UNL     1      -1.298  14.084  22.856  0.00  0.00    +0.000 C 
BRANCH  11  12
ATOM     12  C   UNL     1      -2.292  15.129  23.319  0.00  0.00    +0.000 A 
ATOM     13  C   UNL     1      -2.934  14.988  24.561  0.00  0.00    +0.000 A 
ATOM     14  C   UNL     1      -3.827  15.959  25.016  0.00  0.00    +0.000 A 
ATOM     15  C   UNL     1      -4.084  17.087  24.241  0.00  0.00    +0.000 A 
ATOM     16  C   UNL     1      -3.452  17.241  23.007  0.00  0.00    +0.000 A 
ATOM     17  C   UNL     1      -2.562  16.267  22.546  0.00  0.00    +0.000 A 
ENDBRANCH  11  12
ENDBRANCH   8  11
ENDBRANCH   2   3
BRANCH   1  21
ATOM     18  C   UNL     1       3.914   6.007  18.584  0.00  0.00    +0.000 A 
ATOM     19  C   UNL     1       4.057   6.937  17.554  0.00  0.00    +0.000 A 
ATOM     20  C   UNL     1       3.208   8.052  17.508  0.00  0.00    +0.000 A 
ATOM     21  C   UNL     1       2.200   8.234  18.470  0.00  0.00    +0.000 A 
ATOM     22  C   UNL     1       2.097   7.302  19.510  0.00  0.00    +0.000 A 
ATOM     23  C   UNL     1       2.929   6.183  19.554  0.00  0.00    +0.000 A 
BRANCH  18  24
ATOM     24  O   UNL     1       4.695   4.836  18.520  0.00  0.00    +0.000 OA
BRANCH  24  27
ATOM     25  N   UNL     1       6.016   4.148  16.741  0.00  0.00    +0.000 N 
ATOM     26  C   UNL     1       7.158   4.721  17.428  0.00  0.00    +0.000 C 
ATOM     27  C   UNL     1       4.751   4.136  17.311  0.00  0.00    +0.000 C 
ATOM     28  O   UNL     1       3.779   3.600  16.779  0.00  0.00    +0.000 OA
BRANCH  25  30
ATOM     29  C   UNL     1       6.056   4.645  14.310  0.00  0.00    +0.000 C 
ATOM     30  C   UNL     1       6.198   3.598  15.402  0.00  0.00    +0.000 C 
ENDBRANCH  25  30
ENDBRANCH  24  27
ENDBRANCH  18  24
ENDBRANCH   1  21
TORSDOF 7
ENDMDL
MODEL 9
REMARK VINA RESULT:      -7.0      0.697      1.155
REMARK  Name = 
REMARK  9 active torsions:
REMARK  status: ('A' for Active; 'I' for Inactive)
REMARK    1  A    between atoms: C_1  and  C_2
REMARK    2  A    between atoms: C_2  and  N_3
REMARK    3  A    between atoms: N_3  and  C_4
REMARK    4  A    between atoms: C_5  and  O_7
REMARK    5  A    between atoms: O_7  and  C_8
REMARK    6  A    between atoms: C_11  and  C_12
REMARK    7  A    between atoms: C_13  and  C_14
REMARK    8  A    between atoms: N_19  and  C_20
REMARK    9  A    between atoms: C_20  and  C_21
REMARK                            x       y       z     vdW  Elec       q    Type
REMARK                         _______ _______ _______ _____ _____    ______ ____
ROOT
ATOM      1  C   UNL     1       0.827   8.146  21.523  0.00  0.00    +0.000 C 
ATOM      2  C   UNL     1       0.521   9.442  21.360  0.00  0.00    +0.000 C 
ENDROOT
BRANCH   2   3
ATOM      3  C   UNL     1      -0.095  10.229  22.455  0.00  0.00    +0.000 C 
ATOM      4  O   UNL     1       0.108   9.917  23.625  0.00  0.00    +0.000 OA
ATOM      5  N   UNL     1      -0.826  11.334  22.065  0.00  0.00    +0.000 N 
ATOM      6  C   UNL     1      -1.283  12.293  23.075  0.00  0.00    +0.000 C 
ATOM      7  C   UNL     1      -1.014  13.752  22.626  0.00  0.00    +0.000 C 
ATOM      8  N   UNL     1      -1.477  14.087  21.251  0.00  0.00    +0.000 NA
ATOM      9  C   UNL     1      -0.935  13.070  20.320  0.00  0.00    +0.000 C 
ATOM     10  C   UNL     1      -1.286  11.623  20.701  0.00  0.00    +0.000 C 
BRANCH   8  11
ATOM     11  C   UNL     1      -2.950  14.182  21.223  0.00  0.00    +0.000 C 
BRANCH  11  12
ATOM     12  C   UNL     1      -3.551  15.220  22.150  0.00  0.00    +0.000 A 
ATOM     13  C   UNL     1      -3.361  16.588  21.891  0.00  0.00    +0.000 A 
ATOM     14  C   UNL     1      -3.936  17.556  22.715  0.00  0.00    +0.000 A 
ATOM     15  C   UNL     1      -4.714  17.170  23.804  0.00  0.00    +0.000 A 
ATOM     16  C   UNL     1      -4.913  15.816  24.071  0.00  0.00    +0.000 A 
ATOM     17  C   UNL     1      -4.334  14.845  23.250  0.00  0.00    +0.000 A 
ENDBRANCH  11  12
ENDBRANCH   8  11
ENDBRANCH   2   3
BRANCH   1  21
ATOM     18  C   UNL     1       2.780   5.861  18.469  0.00  0.00    +0.000 A 
ATOM     19  C   UNL     1       2.647   7.244  18.333  0.00  0.00    +0.000 A 
ATOM     20  C   UNL     1       2.032   7.981  19.355  0.00  0.00    +0.000 A 
ATOM     21  C   UNL     1       1.527   7.346  20.501  0.00  0.00    +0.000 A 
ATOM     22  C   UNL     1       1.700   5.961  20.627  0.00  0.00    +0.000 A 
ATOM     23  C   UNL     1       2.299   5.220  19.607  0.00  0.00    +0.000 A 
BRANCH  18  24
ATOM     24  O   UNL     1       3.282   5.142  17.365  0.00  0.00    +0.000 OA
BRANCH  24  27
ATOM     25  N   UNL     1       5.486   5.026  16.652  0.00  0.00    +0.000 N 
ATOM     26  C   UNL     1       5.240   6.206  15.846  0.00  0.00    +0.000 C 
ATOM     27  C   UNL     1       4.516   4.498  17.492  0.00  0.00    +0.000 C 
ATOM     28  O   UNL     1       4.720   3.537  18.234  0.00  0.00    +0.000 OA
BRANCH  25  30
ATOM     29  C   UNL     1       7.711   4.699  17.704  0.00  0.00    +0.000 C 
ATOM     30  C   UNL     1       6.780   4.357  16.553  0.00  0.00    +0.000 C 
ENDBRANCH  25  30
ENDBRANCH  24  27
ENDBRANCH  18  24
ENDBRANCH   1  21
TORSDOF 7
ENDMDL
