MODEL 1
REMARK VINA RESULT:      -5.7      0.000      0.000
REMARK  Name = 
REMARK  16 active torsions:
REMARK  status: ('A' for Active; 'I' for Inactive)
REMARK    1  A    between atoms: C_1  and  C_2
REMARK    2  A    between atoms: C_2  and  C_3
REMARK    3  A    between atoms: C_3  and  C_4
REMARK    4  A    between atoms: C_4  and  C_5
REMARK    5  A    between atoms: C_5  and  C_6
REMARK    6  A    between atoms: C_6  and  C_7
REMARK    7  A    between atoms: C_7  and  C_8
REMARK    8  A    between atoms: C_8  and  C_9
REMARK    9  A    between atoms: C_9  and  C_10
REMARK   10  A    between atoms: C_10  and  C_11
REMARK   11  A    between atoms: C_11  and  C_12
REMARK   12  A    between atoms: C_12  and  C_13
REMARK   13  A    between atoms: C_13  and  C_14
REMARK   14  A    between atoms: C_18  and  O_19
REMARK   15  A    between atoms: C_20  and  C_21
REMARK   16  A    between atoms: C_21  and  O_23
REMARK                            x       y       z     vdW  Elec       q    Type
REMARK                         _______ _______ _______ _____ _____    ______ ____
ROOT
ATOM      1  C   UNL     1       5.136   3.437  16.965  0.00  0.00    +0.000 C 
ENDROOT
BRANCH   1   2
ATOM      2  C   UNL     1       6.037   4.569  17.456  0.00  0.00    +0.000 A 
ATOM      3  C   UNL     1       6.398   4.452  18.814  0.00  0.00    +0.000 A 
ATOM      4  C   UNL     1       7.200   5.385  19.461  0.00  0.00    +0.000 A 
ATOM      5  C   UNL     1       7.646   6.486  18.747  0.00  0.00    +0.000 A 
ATOM      6  C   UNL     1       7.300   6.651  17.404  0.00  0.00    +0.000 A 
ATOM      7  C   UNL     1       6.490   5.714  16.726  0.00  0.00    +0.000 A 
BRANCH   6   8
ATOM      8  O   UNL     1       7.768   7.777  16.777  0.00  0.00    +0.000 OA
ATOM      9  H   UNL     1       8.663   7.591  16.410  0.00  0.00    +0.000 HD
ENDBRANCH   6   8
BRANCH   7  10
ATOM     10  C   UNL     1       6.220   5.970  15.263  0.00  0.00    +0.000 C 
ATOM     11  O   UNL     1       6.756   5.386  14.343  0.00  0.00    +0.000 OA
BRANCH  10  12
ATOM     12  O   UNL     1       5.278   6.936  15.029  0.00  0.00    +0.000 OA
ATOM     13  H   UNL     1       5.231   7.185  14.074  0.00  0.00    +0.000 HD
ENDBRANCH  10  12
ENDBRANCH   7  10
ENDBRANCH   1   2
BRANCH   1  14
ATOM     14  C   UNL     1       3.796   3.975  16.484  0.00  0.00    +0.000 C 
BRANCH  14  15
ATOM     15  C   UNL     1       2.550   3.516  17.236  0.00  0.00    +0.000 C 
BRANCH  15  16
ATOM     16  C   UNL     1       2.962   2.238  17.972  0.00  0.00    +0.000 C 
BRANCH  16  17
ATOM     17  C   UNL     1       1.929   1.812  18.982  0.00  0.00    +0.000 C 
BRANCH  17  18
ATOM     18  C   UNL     1       0.714   2.734  18.919  0.00  0.00    +0.000 C 
BRANCH  18  19
ATOM     19  C   UNL     1       0.566   3.411  20.267  0.00  0.00    +0.000 C 
BRANCH  19  20
ATOM     20  C   UNL     1       1.865   3.365  21.049  0.00  0.00    +0.000 C 
BRANCH  20  21
ATOM     21  C   UNL     1       2.558   4.715  20.945  0.00  0.00    +0.000 C 
BRANCH  21  22
ATOM     22  C   UNL     1       1.533   5.833  20.845  0.00  0.00    +0.000 C 
BRANCH  22  23
ATOM     23  C   UNL     1       2.060   6.961  19.971  0.00  0.00    +0.000 C 
BRANCH  23  25
ATOM     24  C   UNL     1       3.316   7.363  17.842  0.00  0.00    +0.000 C 
ATOM     25  C   UNL     1       3.165   6.459  19.052  0.00  0.00    +0.000 C 
ENDBRANCH  23  25
ENDBRANCH  22  23
ENDBRANCH  21  22
ENDBRANCH  20  21
ENDBRANCH  19  20
ENDBRANCH  18  19
ENDBRANCH  17  18
ENDBRANCH  16  17
ENDBRANCH  15  16
ENDBRANCH  14  15
ENDBRANCH   1  14
TORSDOF 15
ENDMDL
MODEL 2
REMARK VINA RESULT:      -5.6      4.311      7.306
REMARK  Name = 
REMARK  16 active torsions:
REMARK  status: ('A' for Active; 'I' for Inactive)
REMARK    1  A    between atoms: C_1  and  C_2
REMARK    2  A    between atoms: C_2  and  C_3
REMARK    3  A    between atoms: C_3  and  C_4
REMARK    4  A    between atoms: C_4  and  C_5
REMARK    5  A    between atoms: C_5  and  C_6
REMARK    6  A    between atoms: C_6  and  C_7
REMARK    7  A    between atoms: C_7  and  C_8
REMARK    8  A    between atoms: C_8  and  C_9
REMARK    9  A    between atoms: C_9  and  C_10
REMARK   10  A    between atoms: C_10  and  C_11
REMARK   11  A    between atoms: C_11  and  C_12
REMARK   12  A    between atoms: C_12  and  C_13
REMARK   13  A    between atoms: C_13  and  C_14
REMARK   14  A    between atoms: C_18  and  O_19
REMARK   15  A    between atoms: C_20  and  C_21
REMARK   16  A    between atoms: C_21  and  O_23
REMARK                            x       y       z     vdW  Elec       q    Type
REMARK                         _______ _______ _______ _____ _____    ______ ____
ROOT
ATOM      1  C   UNL     1       4.579   3.935  16.709  0.00  0.00    +0.000 C 
ENDROOT
BRANCH   1   2
ATOM      2  C   UNL     1       3.775   4.412  17.917  0.00  0.00    +0.000 A 
ATOM      3  C   UNL     1       3.318   5.741  17.798  0.00  0.00    +0.000 A 
ATOM      4  C   UNL     1       2.581   6.372  18.793  0.00  0.00    +0.000 A 
ATOM      5  C   UNL     1       2.301   5.673  19.957  0.00  0.00    +0.000 A 
ATOM      6  C   UNL     1       2.747   4.360  20.124  0.00  0.00    +0.000 A 
ATOM      7  C   UNL     1       3.494   3.698  19.125  0.00  0.00    +0.000 A 
BRANCH   6   8
ATOM      8  O   UNL     1       2.442   3.748  21.313  0.00  0.00    +0.000 OA
ATOM      9  H   UNL     1       2.745   2.811  21.277  0.00  0.00    +0.000 HD
ENDBRANCH   6   8
BRANCH   7  10
ATOM     10  C   UNL     1       3.882   2.264  19.394  0.00  0.00    +0.000 C 
ATOM     11  O   UNL     1       4.722   1.910  20.196  0.00  0.00    +0.000 OA
BRANCH  10  12
ATOM     12  O   UNL     1       3.184   1.348  18.655  0.00  0.00    +0.000 OA
ATOM     13  H   UNL     1       3.214   1.550  17.689  0.00  0.00    +0.000 HD
ENDBRANCH  10  12
ENDBRANCH   7  10
ENDBRANCH   1   2
BRANCH   1  14
ATOM     14  C   UNL     1       5.145   5.112  15.928  0.00  0.00    +0.000 C 
BRANCH  14  15
ATOM     15  C   UNL     1       6.654   5.140  15.704  0.00  0.00    +0.000 C 
BRANCH  15  16
ATOM     16  C   UNL     1       7.266   5.462  17.070  0.00  0.00    +0.000 C 
BRANCH  16  17
ATOM     17  C   UNL     1       6.888   6.841  17.546  0.00  0.00    +0.000 C 
BRANCH  17  18
ATOM     18  C   UNL     1       8.049   7.475  18.307  0.00  0.00    +0.000 C 
BRANCH  18  19
ATOM     19  C   UNL     1       8.102   8.946  17.945  0.00  0.00    +0.000 C 
BRANCH  19  20
ATOM     20  C   UNL     1       9.046   9.702  18.859  0.00  0.00    +0.000 C 
BRANCH  20  21
ATOM     21  C   UNL     1       9.772  10.771  18.056  0.00  0.00    +0.000 C 
BRANCH  21  22
ATOM     22  C   UNL     1      10.761  11.517  18.936  0.00  0.00    +0.000 C 
BRANCH  22  23
ATOM     23  C   UNL     1      10.366  12.981  19.058  0.00  0.00    +0.000 C 
BRANCH  23  25
ATOM     24  C   UNL     1      11.182  14.070  16.956  0.00  0.00    +0.000 C 
ATOM     25  C   UNL     1       9.969  13.546  17.700  0.00  0.00    +0.000 C 
ENDBRANCH  23  25
ENDBRANCH  22  23
ENDBRANCH  21  22
ENDBRANCH  20  21
ENDBRANCH  19  20
ENDBRANCH  18  19
ENDBRANCH  17  18
ENDBRANCH  16  17
ENDBRANCH  15  16
ENDBRANCH  14  15
ENDBRANCH   1  14
TORSDOF 15
ENDMDL
MODEL 3
REMARK VINA RESULT:      -5.6      1.351      1.885
REMARK  Name = 
REMARK  16 active torsions:
REMARK  status: ('A' for Active; 'I' for Inactive)
REMARK    1  A    between atoms: C_1  and  C_2
REMARK    2  A    between atoms: C_2  and  C_3
REMARK    3  A    between atoms: C_3  and  C_4
REMARK    4  A    between atoms: C_4  and  C_5
REMARK    5  A    between atoms: C_5  and  C_6
REMARK    6  A    between atoms: C_6  and  C_7
REMARK    7  A    between atoms: C_7  and  C_8
REMARK    8  A    between atoms: C_8  and  C_9
REMARK    9  A    between atoms: C_9  and  C_10
REMARK   10  A    between atoms: C_10  and  C_11
REMARK   11  A    between atoms: C_11  and  C_12
REMARK   12  A    between atoms: C_12  and  C_13
REMARK   13  A    between atoms: C_13  and  C_14
REMARK   14  A    between atoms: C_18  and  O_19
REMARK   15  A    between atoms: C_20  and  C_21
REMARK   16  A    between atoms: C_21  and  O_23
REMARK                            x       y       z     vdW  Elec       q    Type
REMARK                         _______ _______ _______ _____ _____    ______ ____
ROOT
ATOM      1  C   UNL     1       3.691   4.190  17.474  0.00  0.00    +0.000 C 
ENDROOT
BRANCH   1   2
ATOM      2  C   UNL     1       5.038   4.871  17.711  0.00  0.00    +0.000 A 
ATOM      3  C   UNL     1       5.455   4.840  19.058  0.00  0.00    +0.000 A 
ATOM      4  C   UNL     1       6.644   5.416  19.490  0.00  0.00    +0.000 A 
ATOM      5  C   UNL     1       7.442   6.066  18.561  0.00  0.00    +0.000 A 
ATOM      6  C   UNL     1       7.060   6.137  17.219  0.00  0.00    +0.000 A 
ATOM      7  C   UNL     1       5.859   5.554  16.758  0.00  0.00    +0.000 A 
BRANCH   6   8
ATOM      8  O   UNL     1       7.897   6.815  16.371  0.00  0.00    +0.000 OA
ATOM      9  H   UNL     1       7.861   7.776  16.586  0.00  0.00    +0.000 HD
ENDBRANCH   6   8
BRANCH   7  10
ATOM     10  C   UNL     1       5.572   5.651  15.279  0.00  0.00    +0.000 C 
ATOM     11  O   UNL     1       5.685   4.738  14.487  0.00  0.00    +0.000 OA
BRANCH  10  12
ATOM     12  O   UNL     1       5.141   6.885  14.873  0.00  0.00    +0.000 OA
ATOM     13  H   UNL     1       4.599   7.336  15.565  0.00  0.00    +0.000 HD
ENDBRANCH  10  12
ENDBRANCH   7  10
ENDBRANCH   1   2
BRANCH   1  14
ATOM     14  C   UNL     1       3.854   2.681  17.364  0.00  0.00    +0.000 C 
BRANCH  14  15
ATOM     15  C   UNL     1       3.207   1.829  18.452  0.00  0.00    +0.000 C 
BRANCH  15  16
ATOM     16  C   UNL     1       3.028   2.762  19.653  0.00  0.00    +0.000 C 
BRANCH  16  17
ATOM     17  C   UNL     1       1.742   2.492  20.389  0.00  0.00    +0.000 C 
BRANCH  17  18
ATOM     18  C   UNL     1       0.762   3.643  20.181  0.00  0.00    +0.000 C 
BRANCH  18  19
ATOM     19  C   UNL     1       1.553   4.865  19.757  0.00  0.00    +0.000 C 
BRANCH  19  20
ATOM     20  C   UNL     1       1.632   5.883  20.878  0.00  0.00    +0.000 C 
BRANCH  20  21
ATOM     21  C   UNL     1       1.885   7.260  20.286  0.00  0.00    +0.000 C 
BRANCH  21  22
ATOM     22  C   UNL     1       2.563   7.139  18.930  0.00  0.00    +0.000 C 
BRANCH  22  23
ATOM     23  C   UNL     1       2.113   8.262  18.008  0.00  0.00    +0.000 C 
BRANCH  23  25
ATOM     24  C   UNL     1       0.115   9.771  18.037  0.00  0.00    +0.000 C 
ATOM     25  C   UNL     1       1.356   9.329  18.788  0.00  0.00    +0.000 C 
ENDBRANCH  23  25
ENDBRANCH  22  23
ENDBRANCH  21  22
ENDBRANCH  20  21
ENDBRANCH  19  20
ENDBRANCH  18  19
ENDBRANCH  17  18
ENDBRANCH  16  17
ENDBRANCH  15  16
ENDBRANCH  14  15
ENDBRANCH   1  14
TORSDOF 15
ENDMDL
MODEL 4
REMARK VINA RESULT:      -5.6      1.669      3.901
REMARK  Name = 
REMARK  16 active torsions:
REMARK  status: ('A' for Active; 'I' for Inactive)
REMARK    1  A    between atoms: C_1  and  C_2
REMARK    2  A    between atoms: C_2  and  C_3
REMARK    3  A    between atoms: C_3  and  C_4
REMARK    4  A    between atoms: C_4  and  C_5
REMARK    5  A    between atoms: C_5  and  C_6
REMARK    6  A    between atoms: C_6  and  C_7
REMARK    7  A    between atoms: C_7  and  C_8
REMARK    8  A    between atoms: C_8  and  C_9
REMARK    9  A    between atoms: C_9  and  C_10
REMARK   10  A    between atoms: C_10  and  C_11
REMARK   11  A    between atoms: C_11  and  C_12
REMARK   12  A    between atoms: C_12  and  C_13
REMARK   13  A    between atoms: C_13  and  C_14
REMARK   14  A    between atoms: C_18  and  O_19
REMARK   15  A    between atoms: C_20  and  C_21
REMARK   16  A    between atoms: C_21  and  O_23
REMARK                            x       y       z     vdW  Elec       q    Type
REMARK                         _______ _______ _______ _____ _____    ______ ____
ROOT
ATOM      1  C   UNL     1       4.995   7.575  17.358  0.00  0.00    +0.000 C 
ENDROOT
BRANCH   1   2
ATOM      2  C   UNL     1       5.759   6.323  16.931  0.00  0.00    +0.000 A 
ATOM      3  C   UNL     1       5.222   5.700  15.787  0.00  0.00    +0.000 A 
ATOM      4  C   UNL     1       5.759   4.539  15.242  0.00  0.00    +0.000 A 
ATOM      5  C   UNL     1       6.855   3.960  15.863  0.00  0.00    +0.000 A 
ATOM      6  C   UNL     1       7.410   4.535  17.009  0.00  0.00    +0.000 A 
ATOM      7  C   UNL     1       6.883   5.716  17.576  0.00  0.00    +0.000 A 
BRANCH   6   8
ATOM      8  O   UNL     1       8.481   3.888  17.571  0.00  0.00    +0.000 OA
ATOM      9  H   UNL     1       8.731   3.126  16.998  0.00  0.00    +0.000 HD
ENDBRANCH   6   8
BRANCH   7  10
ATOM     10  C   UNL     1       7.593   6.273  18.787  0.00  0.00    +0.000 C 
ATOM     11  O   UNL     1       8.315   7.249  18.782  0.00  0.00    +0.000 OA
BRANCH  10  12
ATOM     12  O   UNL     1       7.347   5.586  19.944  0.00  0.00    +0.000 OA
ATOM     13  H   UNL     1       6.638   4.908  19.830  0.00  0.00    +0.000 HD
ENDBRANCH  10  12
ENDBRANCH   7  10
ENDBRANCH   1   2
BRANCH   1  14
ATOM     14  C   UNL     1       3.578   7.230  17.793  0.00  0.00    +0.000 C 
BRANCH  14  15
ATOM     15  C   UNL     1       3.417   6.482  19.113  0.00  0.00    +0.000 C 
BRANCH  15  16
ATOM     16  C   UNL     1       1.957   6.689  19.527  0.00  0.00    +0.000 C 
BRANCH  16  17
ATOM     17  C   UNL     1       1.644   6.022  20.841  0.00  0.00    +0.000 C 
BRANCH  17  18
ATOM     18  C   UNL     1       2.560   4.820  21.056  0.00  0.00    +0.000 C 
BRANCH  18  19
ATOM     19  C   UNL     1       1.697   3.575  21.119  0.00  0.00    +0.000 C 
BRANCH  19  20
ATOM     20  C   UNL     1       0.591   3.622  20.083  0.00  0.00    +0.000 C 
BRANCH  20  21
ATOM     21  C   UNL     1       0.906   2.631  18.972  0.00  0.00    +0.000 C 
BRANCH  21  22
ATOM     22  C   UNL     1       1.382   3.362  17.728  0.00  0.00    +0.000 C 
BRANCH  22  23
ATOM     23  C   UNL     1       2.894   3.528  17.753  0.00  0.00    +0.000 C 
BRANCH  23  25
ATOM     24  C   UNL     1       3.773   1.331  18.574  0.00  0.00    +0.000 C 
ATOM     25  C   UNL     1       3.584   2.227  17.365  0.00  0.00    +0.000 C 
ENDBRANCH  23  25
ENDBRANCH  22  23
ENDBRANCH  21  22
ENDBRANCH  20  21
ENDBRANCH  19  20
ENDBRANCH  18  19
ENDBRANCH  17  18
ENDBRANCH  16  17
ENDBRANCH  15  16
ENDBRANCH  14  15
ENDBRANCH   1  14
TORSDOF 15
ENDMDL
MODEL 5
REMARK VINA RESULT:      -5.6      3.853      7.121
REMARK  Name = 
REMARK  16 active torsions:
REMARK  status: ('A' for Active; 'I' for Inactive)
REMARK    1  A    between atoms: C_1  and  C_2
REMARK    2  A    between atoms: C_2  and  C_3
REMARK    3  A    between atoms: C_3  and  C_4
REMARK    4  A    between atoms: C_4  and  C_5
REMARK    5  A    between atoms: C_5  and  C_6
REMARK    6  A    between atoms: C_6  and  C_7
REMARK    7  A    between atoms: C_7  and  C_8
REMARK    8  A    between atoms: C_8  and  C_9
REMARK    9  A    between atoms: C_9  and  C_10
REMARK   10  A    between atoms: C_10  and  C_11
REMARK   11  A    between atoms: C_11  and  C_12
REMARK   12  A    between atoms: C_12  and  C_13
REMARK   13  A    between atoms: C_13  and  C_14
REMARK   14  A    between atoms: C_18  and  O_19
REMARK   15  A    between atoms: C_20  and  C_21
REMARK   16  A    between atoms: C_21  and  O_23
REMARK                            x       y       z     vdW  Elec       q    Type
REMARK                         _______ _______ _______ _____ _____    ______ ____
ROOT
ATOM      1  C   UNL     1       5.010   4.439  19.606  0.00  0.00    +0.000 C 
ENDROOT
BRANCH   1   2
ATOM      2  C   UNL     1       3.793   3.595  19.229  0.00  0.00    +0.000 A 
ATOM      3  C   UNL     1       3.975   2.840  18.053  0.00  0.00    +0.000 A 
ATOM      4  C   UNL     1       2.986   2.018  17.528  0.00  0.00    +0.000 A 
ATOM      5  C   UNL     1       1.763   1.953  18.178  0.00  0.00    +0.000 A 
ATOM      6  C   UNL     1       1.533   2.696  19.338  0.00  0.00    +0.000 A 
ATOM      7  C   UNL     1       2.526   3.535  19.891  0.00  0.00    +0.000 A 
BRANCH   6   8
ATOM      8  O   UNL     1       0.290   2.589  19.907  0.00  0.00    +0.000 OA
ATOM      9  H   UNL     1       0.142   1.653  20.179  0.00  0.00    +0.000 HD
ENDBRANCH   6   8
BRANCH   7  10
ATOM     10  C   UNL     1       2.182   4.254  21.173  0.00  0.00    +0.000 C 
ATOM     11  O   UNL     1       1.906   5.433  21.257  0.00  0.00    +0.000 OA
BRANCH  10  12
ATOM     12  O   UNL     1       2.187   3.452  22.282  0.00  0.00    +0.000 OA
ATOM     13  H   UNL     1       1.511   3.733  22.946  0.00  0.00    +0.000 HD
ENDBRANCH  10  12
ENDBRANCH   7  10
ENDBRANCH   1   2
BRANCH   1  14
ATOM     14  C   UNL     1       4.860   5.869  19.106  0.00  0.00    +0.000 C 
BRANCH  14  15
ATOM     15  C   UNL     1       3.783   6.131  18.058  0.00  0.00    +0.000 C 
BRANCH  15  16
ATOM     16  C   UNL     1       4.336   7.251  17.172  0.00  0.00    +0.000 C 
BRANCH  16  17
ATOM     17  C   UNL     1       5.327   6.732  16.162  0.00  0.00    +0.000 C 
BRANCH  17  18
ATOM     18  C   UNL     1       5.108   5.240  15.924  0.00  0.00    +0.000 C 
BRANCH  18  19
ATOM     19  C   UNL     1       6.451   4.612  15.606  0.00  0.00    +0.000 C 
BRANCH  19  20
ATOM     20  C   UNL     1       6.733   4.646  14.117  0.00  0.00    +0.000 C 
BRANCH  20  21
ATOM     21  C   UNL     1       5.684   3.818  13.391  0.00  0.00    +0.000 C 
BRANCH  21  22
ATOM     22  C   UNL     1       6.254   3.252  12.100  0.00  0.00    +0.000 C 
BRANCH  22  23
ATOM     23  C   UNL     1       5.176   2.517  11.319  0.00  0.00    +0.000 C 
BRANCH  23  25
ATOM     24  C   UNL     1       3.438   3.853  10.107  0.00  0.00    +0.000 C 
ATOM     25  C   UNL     1       3.840   3.240  11.435  0.00  0.00    +0.000 C 
ENDBRANCH  23  25
ENDBRANCH  22  23
ENDBRANCH  21  22
ENDBRANCH  20  21
ENDBRANCH  19  20
ENDBRANCH  18  19
ENDBRANCH  17  18
ENDBRANCH  16  17
ENDBRANCH  15  16
ENDBRANCH  14  15
ENDBRANCH   1  14
TORSDOF 15
ENDMDL
MODEL 6
REMARK VINA RESULT:      -5.5      4.142      7.344
REMARK  Name = 
REMARK  16 active torsions:
REMARK  status: ('A' for Active; 'I' for Inactive)
REMARK    1  A    between atoms: C_1  and  C_2
REMARK    2  A    between atoms: C_2  and  C_3
REMARK    3  A    between atoms: C_3  and  C_4
REMARK    4  A    between atoms: C_4  and  C_5
REMARK    5  A    between atoms: C_5  and  C_6
REMARK    6  A    between atoms: C_6  and  C_7
REMARK    7  A    between atoms: C_7  and  C_8
REMARK    8  A    between atoms: C_8  and  C_9
REMARK    9  A    between atoms: C_9  and  C_10
REMARK   10  A    between atoms: C_10  and  C_11
REMARK   11  A    between atoms: C_11  and  C_12
REMARK   12  A    between atoms: C_12  and  C_13
REMARK   13  A    between atoms: C_13  and  C_14
REMARK   14  A    between atoms: C_18  and  O_19
REMARK   15  A    between atoms: C_20  and  C_21
REMARK   16  A    between atoms: C_21  and  O_23
REMARK                            x       y       z     vdW  Elec       q    Type
REMARK                         _______ _______ _______ _____ _____    ______ ____
ROOT
ATOM      1  C   UNL     1       5.592   4.996  19.464  0.00  0.00    +0.000 C 
ENDROOT
BRANCH   1   2
ATOM      2  C   UNL     1       4.194   4.485  19.116  0.00  0.00    +0.000 A 
ATOM      3  C   UNL     1       3.480   5.343  18.255  0.00  0.00    +0.000 A 
ATOM      4  C   UNL     1       2.186   5.072  17.829  0.00  0.00    +0.000 A 
ATOM      5  C   UNL     1       1.565   3.919  18.285  0.00  0.00    +0.000 A 
ATOM      6  C   UNL     1       2.229   3.048  19.152  0.00  0.00    +0.000 A 
ATOM      7  C   UNL     1       3.546   3.302  19.594  0.00  0.00    +0.000 A 
BRANCH   6   8
ATOM      8  O   UNL     1       1.535   1.941  19.569  0.00  0.00    +0.000 OA
ATOM      9  H   UNL     1       0.618   2.210  19.809  0.00  0.00    +0.000 HD
ENDBRANCH   6   8
BRANCH   7  10
ATOM     10  C   UNL     1       4.181   2.268  20.491  0.00  0.00    +0.000 C 
ATOM     11  O   UNL     1       3.839   2.032  21.633  0.00  0.00    +0.000 OA
BRANCH  10  12
ATOM     12  O   UNL     1       5.201   1.570  19.905  0.00  0.00    +0.000 OA
ATOM     13  H   UNL     1       6.088   1.898  20.190  0.00  0.00    +0.000 HD
ENDBRANCH  10  12
ENDBRANCH   7  10
ENDBRANCH   1   2
BRANCH   1  14
ATOM     14  C   UNL     1       6.517   4.923  18.258  0.00  0.00    +0.000 C 
BRANCH  14  15
ATOM     15  C   UNL     1       6.821   6.230  17.532  0.00  0.00    +0.000 C 
BRANCH  15  16
ATOM     16  C   UNL     1       7.028   5.847  16.065  0.00  0.00    +0.000 C 
BRANCH  16  17
ATOM     17  C   UNL     1       5.729   5.499  15.385  0.00  0.00    +0.000 C 
BRANCH  17  18
ATOM     18  C   UNL     1       5.893   4.234  14.546  0.00  0.00    +0.000 C 
BRANCH  18  19
ATOM     19  C   UNL     1       7.044   4.454  13.583  0.00  0.00    +0.000 C 
BRANCH  19  20
ATOM     20  C   UNL     1       6.671   4.025  12.177  0.00  0.00    +0.000 C 
BRANCH  20  21
ATOM     21  C   UNL     1       6.377   2.532  12.171  0.00  0.00    +0.000 C 
BRANCH  21  22
ATOM     22  C   UNL     1       5.158   2.235  11.313  0.00  0.00    +0.000 C 
BRANCH  22  23
ATOM     23  C   UNL     1       4.678   3.497  10.614  0.00  0.00    +0.000 C 
BRANCH  23  25
ATOM     24  C   UNL     1       2.657   4.415   9.453  0.00  0.00    +0.000 C 
ATOM     25  C   UNL     1       3.156   3.561  10.603  0.00  0.00    +0.000 C 
ENDBRANCH  23  25
ENDBRANCH  22  23
ENDBRANCH  21  22
ENDBRANCH  20  21
ENDBRANCH  19  20
ENDBRANCH  18  19
ENDBRANCH  17  18
ENDBRANCH  16  17
ENDBRANCH  15  16
ENDBRANCH  14  15
ENDBRANCH   1  14
TORSDOF 15
ENDMDL
MODEL 7
REMARK VINA RESULT:      -5.5      3.612      6.055
REMARK  Name = 
REMARK  16 active torsions:
REMARK  status: ('A' for Active; 'I' for Inactive)
REMARK    1  A    between atoms: C_1  and  C_2
REMARK    2  A    between atoms: C_2  and  C_3
REMARK    3  A    between atoms: C_3  and  C_4
REMARK    4  A    between atoms: C_4  and  C_5
REMARK    5  A    between atoms: C_5  and  C_6
REMARK    6  A    between atoms: C_6  and  C_7
REMARK    7  A    between atoms: C_7  and  C_8
REMARK    8  A    between atoms: C_8  and  C_9
REMARK    9  A    between atoms: C_9  and  C_10
REMARK   10  A    between atoms: C_10  and  C_11
REMARK   11  A    between atoms: C_11  and  C_12
REMARK   12  A    between atoms: C_12  and  C_13
REMARK   13  A    between atoms: C_13  and  C_14
REMARK   14  A    between atoms: C_18  and  O_19
REMARK   15  A    between atoms: C_20  and  C_21
REMARK   16  A    between atoms: C_21  and  O_23
REMARK                            x       y       z     vdW  Elec       q    Type
REMARK                         _______ _______ _______ _____ _____    ______ ____
ROOT
ATOM      1  C   UNL     1       1.776   7.036  21.122  0.00  0.00    +0.000 C 
ENDROOT
BRANCH   1   2
ATOM      2  C   UNL     1       1.628   8.141  20.078  0.00  0.00    +0.000 A 
ATOM      3  C   UNL     1       2.187   7.811  18.827  0.00  0.00    +0.000 A 
ATOM      4  C   UNL     1       2.172   8.683  17.744  0.00  0.00    +0.000 A 
ATOM      5  C   UNL     1       1.602   9.936  17.909  0.00  0.00    +0.000 A 
ATOM      6  C   UNL     1       1.051  10.312  19.137  0.00  0.00    +0.000 A 
ATOM      7  C   UNL     1       1.051   9.440  20.248  0.00  0.00    +0.000 A 
BRANCH   6   8
ATOM      8  O   UNL     1       0.525  11.576  19.219  0.00  0.00    +0.000 OA
ATOM      9  H   UNL     1      -0.439  11.535  19.017  0.00  0.00    +0.000 HD
ENDBRANCH   6   8
BRANCH   7  10
ATOM     10  C   UNL     1       0.386   9.935  21.509  0.00  0.00    +0.000 C 
ATOM     11  O   UNL     1       0.652  10.977  22.074  0.00  0.00    +0.000 OA
BRANCH  10  12
ATOM     12  O   UNL     1      -0.591   9.105  21.988  0.00  0.00    +0.000 OA
ATOM     13  H   UNL     1      -0.232   8.431  22.614  0.00  0.00    +0.000 HD
ENDBRANCH  10  12
ENDBRANCH   7  10
ENDBRANCH   1   2
BRANCH   1  14
ATOM     14  C   UNL     1       1.561   5.664  20.500  0.00  0.00    +0.000 C 
BRANCH  14  15
ATOM     15  C   UNL     1       2.316   4.491  21.120  0.00  0.00    +0.000 C 
BRANCH  15  16
ATOM     16  C   UNL     1       1.325   3.324  21.131  0.00  0.00    +0.000 C 
BRANCH  16  17
ATOM     17  C   UNL     1       1.744   2.220  20.195  0.00  0.00    +0.000 C 
BRANCH  17  18
ATOM     18  C   UNL     1       1.025   2.361  18.856  0.00  0.00    +0.000 C 
BRANCH  18  19
ATOM     19  C   UNL     1       2.072   2.576  17.780  0.00  0.00    +0.000 C 
BRANCH  19  20
ATOM     20  C   UNL     1       2.096   4.020  17.320  0.00  0.00    +0.000 C 
BRANCH  20  21
ATOM     21  C   UNL     1       3.464   4.616  17.614  0.00  0.00    +0.000 C 
BRANCH  21  22
ATOM     22  C   UNL     1       4.449   3.522  17.994  0.00  0.00    +0.000 C 
BRANCH  22  23
ATOM     23  C   UNL     1       5.336   3.979  19.142  0.00  0.00    +0.000 C 
BRANCH  23  25
ATOM     24  C   UNL     1       6.950   5.783  18.497  0.00  0.00    +0.000 C 
ATOM     25  C   UNL     1       5.578   5.481  19.070  0.00  0.00    +0.000 C 
ENDBRANCH  23  25
ENDBRANCH  22  23
ENDBRANCH  21  22
ENDBRANCH  20  21
ENDBRANCH  19  20
ENDBRANCH  18  19
ENDBRANCH  17  18
ENDBRANCH  16  17
ENDBRANCH  15  16
ENDBRANCH  14  15
ENDBRANCH   1  14
TORSDOF 15
ENDMDL
MODEL 8
REMARK VINA RESULT:      -5.5      3.870      6.728
REMARK  Name = 
REMARK  16 active torsions:
REMARK  status: ('A' for Active; 'I' for Inactive)
REMARK    1  A    between atoms: C_1  and  C_2
REMARK    2  A    between atoms: C_2  and  C_3
REMARK    3  A    between atoms: C_3  and  C_4
REMARK    4  A    between atoms: C_4  and  C_5
REMARK    5  A    between atoms: C_5  and  C_6
REMARK    6  A    between atoms: C_6  and  C_7
REMARK    7  A    between atoms: C_7  and  C_8
REMARK    8  A    between atoms: C_8  and  C_9
REMARK    9  A    between atoms: C_9  and  C_10
REMARK   10  A    between atoms: C_10  and  C_11
REMARK   11  A    between atoms: C_11  and  C_12
REMARK   12  A    between atoms: C_12  and  C_13
REMARK   13  A    between atoms: C_13  and  C_14
REMARK   14  A    between atoms: C_18  and  O_19
REMARK   15  A    between atoms: C_20  and  C_21
REMARK   16  A    between atoms: C_21  and  O_23
REMARK                            x       y       z     vdW  Elec       q    Type
REMARK                         _______ _______ _______ _____ _____    ______ ____
ROOT
ATOM      1  C   UNL     1       4.924   3.852  16.445  0.00  0.00    +0.000 C 
ENDROOT
BRANCH   1   2
ATOM      2  C   UNL     1       4.124   4.462  17.595  0.00  0.00    +0.000 A 
ATOM      3  C   UNL     1       3.759   5.806  17.375  0.00  0.00    +0.000 A 
ATOM      4  C   UNL     1       3.041   6.550  18.303  0.00  0.00    +0.000 A 
ATOM      5  C   UNL     1       2.686   5.951  19.502  0.00  0.00    +0.000 A 
ATOM      6  C   UNL     1       3.041   4.627  19.770  0.00  0.00    +0.000 A 
ATOM      7  C   UNL     1       3.766   3.851  18.839  0.00  0.00    +0.000 A 
BRANCH   6   8
ATOM      8  O   UNL     1       2.667   4.118  20.987  0.00  0.00    +0.000 OA
ATOM      9  H   UNL     1       3.392   3.547  21.331  0.00  0.00    +0.000 HD
ENDBRANCH   6   8
BRANCH   7  10
ATOM     10  C   UNL     1       4.052   2.418  19.214  0.00  0.00    +0.000 C 
ATOM     11  O   UNL     1       3.465   1.452  18.771  0.00  0.00    +0.000 OA
BRANCH  10  12
ATOM     12  O   UNL     1       5.072   2.268  20.115  0.00  0.00    +0.000 OA
ATOM     13  H   UNL     1       5.768   1.647  19.788  0.00  0.00    +0.000 HD
ENDBRANCH  10  12
ENDBRANCH   7  10
ENDBRANCH   1   2
BRANCH   1  14
ATOM     14  C   UNL     1       5.465   4.934  15.521  0.00  0.00    +0.000 C 
BRANCH  14  15
ATOM     15  C   UNL     1       6.873   5.451  15.803  0.00  0.00    +0.000 C 
BRANCH  15  16
ATOM     16  C   UNL     1       7.290   4.807  17.128  0.00  0.00    +0.000 C 
BRANCH  16  17
ATOM     17  C   UNL     1       7.658   5.837  18.164  0.00  0.00    +0.000 C 
BRANCH  17  18
ATOM     18  C   UNL     1       7.471   7.244  17.601  0.00  0.00    +0.000 C 
BRANCH  18  19
ATOM     19  C   UNL     1       8.331   8.193  18.413  0.00  0.00    +0.000 C 
BRANCH  19  20
ATOM     20  C   UNL     1       8.119   9.631  17.979  0.00  0.00    +0.000 C 
BRANCH  20  21
ATOM     21  C   UNL     1       9.434  10.386  18.094  0.00  0.00    +0.000 C 
BRANCH  21  22
ATOM     22  C   UNL     1       9.309  11.521  19.098  0.00  0.00    +0.000 C 
BRANCH  22  23
ATOM     23  C   UNL     1       9.374  10.983  20.519  0.00  0.00    +0.000 C 
BRANCH  23  25
ATOM     24  C   UNL     1       8.513  13.136  21.466  0.00  0.00    +0.000 C 
ATOM     25  C   UNL     1       9.630  12.111  21.510  0.00  0.00    +0.000 C 
ENDBRANCH  23  25
ENDBRANCH  22  23
ENDBRANCH  21  22
ENDBRANCH  20  21
ENDBRANCH  19  20
ENDBRANCH  18  19
ENDBRANCH  17  18
ENDBRANCH  16  17
ENDBRANCH  15  16
ENDBRANCH  14  15
ENDBRANCH   1  14
TORSDOF 15
ENDMDL
MODEL 9
REMARK VINA RESULT:      -5.5      4.215      6.241
REMARK  Name = 
REMARK  16 active torsions:
REMARK  status: ('A' for Active; 'I' for Inactive)
REMARK    1  A    between atoms: C_1  and  C_2
REMARK    2  A    between atoms: C_2  and  C_3
REMARK    3  A    between atoms: C_3  and  C_4
REMARK    4  A    between atoms: C_4  and  C_5
REMARK    5  A    between atoms: C_5  and  C_6
REMARK    6  A    between atoms: C_6  and  C_7
REMARK    7  A    between atoms: C_7  and  C_8
REMARK    8  A    between atoms: C_8  and  C_9
REMARK    9  A    between atoms: C_9  and  C_10
REMARK   10  A    between atoms: C_10  and  C_11
REMARK   11  A    between atoms: C_11  and  C_12
REMARK   12  A    between atoms: C_12  and  C_13
REMARK   13  A    between atoms: C_13  and  C_14
REMARK   14  A    between atoms: C_18  and  O_19
REMARK   15  A    between atoms: C_20  and  C_21
REMARK   16  A    between atoms: C_21  and  O_23
REMARK                            x       y       z     vdW  Elec       q    Type
REMARK                         _______ _______ _______ _____ _____    ______ ____
ROOT
ATOM      1  C   UNL     1       1.581   4.311  17.791  0.00  0.00    +0.000 C 
ENDROOT
BRANCH   1   2
ATOM      2  C   UNL     1       2.051   3.616  19.068  0.00  0.00    +0.000 A 
ATOM      3  C   UNL     1       1.052   3.524  20.058  0.00  0.00    +0.000 A 
ATOM      4  C   UNL     1       1.277   2.941  21.300  0.00  0.00    +0.000 A 
ATOM      5  C   UNL     1       2.542   2.450  21.583  0.00  0.00    +0.000 A 
ATOM      6  C   UNL     1       3.568   2.536  20.638  0.00  0.00    +0.000 A 
ATOM      7  C   UNL     1       3.360   3.120  19.369  0.00  0.00    +0.000 A 
BRANCH   6   8
ATOM      8  O   UNL     1       4.793   2.043  21.006  0.00  0.00    +0.000 OA
ATOM      9  H   UNL     1       4.805   1.911  21.982  0.00  0.00    +0.000 HD
ENDBRANCH   6   8
BRANCH   7  10
ATOM     10  C   UNL     1       4.526   3.114  18.411  0.00  0.00    +0.000 C 
ATOM     11  O   UNL     1       4.469   2.775  17.246  0.00  0.00    +0.000 OA
BRANCH  10  12
ATOM     12  O   UNL     1       5.701   3.551  18.958  0.00  0.00    +0.000 OA
ATOM     13  H   UNL     1       6.441   3.546  18.304  0.00  0.00    +0.000 HD
ENDBRANCH  10  12
ENDBRANCH   7  10
ENDBRANCH   1   2
BRANCH   1  14
ATOM     14  C   UNL     1       1.787   5.816  17.879  0.00  0.00    +0.000 C 
BRANCH  14  15
ATOM     15  C   UNL     1       3.226   6.320  17.940  0.00  0.00    +0.000 C 
BRANCH  15  16
ATOM     16  C   UNL     1       3.142   7.833  17.717  0.00  0.00    +0.000 C 
BRANCH  16  17
ATOM     17  C   UNL     1       2.088   8.472  18.583  0.00  0.00    +0.000 C 
BRANCH  17  18
ATOM     18  C   UNL     1       1.544   9.731  17.914  0.00  0.00    +0.000 C 
BRANCH  18  19
ATOM     19  C   UNL     1       1.125  10.700  19.002  0.00  0.00    +0.000 C 
BRANCH  19  20
ATOM     20  C   UNL     1      -0.366  10.618  19.264  0.00  0.00    +0.000 C 
BRANCH  20  21
ATOM     21  C   UNL     1      -1.075  10.191  17.988  0.00  0.00    +0.000 C 
BRANCH  21  22
ATOM     22  C   UNL     1      -2.443  10.847  17.896  0.00  0.00    +0.000 C 
BRANCH  22  23
ATOM     23  C   UNL     1      -3.385   9.997  17.056  0.00  0.00    +0.000 C 
BRANCH  23  25
ATOM     24  C   UNL     1      -2.967  10.117  14.590  0.00  0.00    +0.000 C 
ATOM     25  C   UNL     1      -3.736  10.709  15.756  0.00  0.00    +0.000 C 
ENDBRANCH  23  25
ENDBRANCH  22  23
ENDBRANCH  21  22
ENDBRANCH  20  21
ENDBRANCH  19  20
ENDBRANCH  18  19
ENDBRANCH  17  18
ENDBRANCH  16  17
ENDBRANCH  15  16
ENDBRANCH  14  15
ENDBRANCH   1  14
TORSDOF 15
ENDMDL
