MODEL 1
REMARK VINA RESULT:      -7.7      0.000      0.000
REMARK  Name = 
REMARK  4 active torsions:
REMARK  status: ('A' for Active; 'I' for Inactive)
REMARK    1  A    between atoms: C_2  and  C_3
REMARK    2  A    between atoms: C_6  and  C_7
REMARK    3  A    between atoms: C_15  and  O_16
REMARK    4  A    between atoms: O_16  and  C_17
REMARK                            x       y       z     vdW  Elec       q    Type
REMARK                         _______ _______ _______ _____ _____    ______ ____
ROOT
ATOM      1  C   UNL     1      -0.919  11.289  22.647  0.00  0.00    +0.000 C 
ATOM      2  O   UNL     1      -0.426  10.558  23.503  0.00  0.00    +0.000 OA
ATOM      3  N   UNL     1      -0.695  11.192  21.288  0.00  0.00    +0.000 N 
ATOM      4  C   UNL     1       0.074  10.218  20.683  0.00  0.00    +0.000 A 
ATOM      5  N   UNL     1       0.504  10.337  19.448  0.00  0.00    +0.000 NA
ATOM      6  C   UNL     1       1.303   9.245  19.123  0.00  0.00    +0.000 A 
ATOM      7  C   UNL     1       2.003   9.038  17.916  0.00  0.00    +0.000 A 
ATOM      8  C   UNL     1       2.792   7.887  17.741  0.00  0.00    +0.000 A 
ATOM      9  C   UNL     1       2.910   6.948  18.761  0.00  0.00    +0.000 A 
ATOM     10  C   UNL     1       2.182   7.111  19.945  0.00  0.00    +0.000 A 
ATOM     11  C   UNL     1       1.404   8.268  20.112  0.00  0.00    +0.000 A 
ATOM     12  S   UNL     1       0.463   8.750  21.461  0.00  0.00    +0.000 S 
ATOM     13  H   UNL     1      -0.939  11.944  20.663  0.00  0.00    +0.000 HD
ENDROOT
BRANCH   1  17
ATOM     14  C   UNL     1      -3.262  14.623  24.098  0.00  0.00    +0.000 A 
ATOM     15  C   UNL     1      -1.910  14.762  23.785  0.00  0.00    +0.000 A 
ATOM     16  C   UNL     1      -1.188  13.663  23.314  0.00  0.00    +0.000 A 
ATOM     17  C   UNL     1      -1.795  12.403  23.143  0.00  0.00    +0.000 A 
ATOM     18  C   UNL     1      -3.150  12.266  23.472  0.00  0.00    +0.000 A 
ATOM     19  C   UNL     1      -3.877  13.372  23.942  0.00  0.00    +0.000 A 
BRANCH  14  21
ATOM     20  N   UNL     1      -4.617  16.660  24.958  0.00  0.00    +0.000 NA
ATOM     21  C   UNL     1      -4.014  15.750  24.575  0.00  0.00    +0.000 C 
ENDBRANCH  14  21
ENDBRANCH   1  17
BRANCH   9  22
ATOM     22  O   UNL     1       3.657   5.809  18.724  0.00  0.00    +0.000 OA
BRANCH  22  23
ATOM     23  C   UNL     1       3.346   4.781  17.792  0.00  0.00    +0.000 C 
ATOM     24  F   UNL     1       3.978   4.903  16.607  0.00  0.00    +0.000 F 
ATOM     25  F   UNL     1       3.708   3.595  18.329  0.00  0.00    +0.000 F 
ATOM     26  F   UNL     1       2.014   4.758  17.578  0.00  0.00    +0.000 F 
ENDBRANCH  22  23
ENDBRANCH   9  22
TORSDOF 4
ENDMDL
MODEL 2
REMARK VINA RESULT:      -7.6      4.838     10.199
REMARK  Name = 
REMARK  4 active torsions:
REMARK  status: ('A' for Active; 'I' for Inactive)
REMARK    1  A    between atoms: C_2  and  C_3
REMARK    2  A    between atoms: C_6  and  C_7
REMARK    3  A    between atoms: C_15  and  O_16
REMARK    4  A    between atoms: O_16  and  C_17
REMARK                            x       y       z     vdW  Elec       q    Type
REMARK                         _______ _______ _______ _____ _____    ______ ____
ROOT
ATOM      1  C   UNL     1       2.413   6.927  19.237  0.00  0.00    +0.000 C 
ATOM      2  O   UNL     1       2.058   6.300  20.231  0.00  0.00    +0.000 OA
ATOM      3  N   UNL     1       2.061   8.229  18.945  0.00  0.00    +0.000 N 
ATOM      4  C   UNL     1       1.300   9.042  19.761  0.00  0.00    +0.000 A 
ATOM      5  N   UNL     1       0.742  10.146  19.321  0.00  0.00    +0.000 NA
ATOM      6  C   UNL     1      -0.013  10.726  20.335  0.00  0.00    +0.000 A 
ATOM      7  C   UNL     1      -0.816  11.882  20.237  0.00  0.00    +0.000 A 
ATOM      8  C   UNL     1      -1.542  12.339  21.352  0.00  0.00    +0.000 A 
ATOM      9  C   UNL     1      -1.495  11.648  22.559  0.00  0.00    +0.000 A 
ATOM     10  C   UNL     1      -0.664  10.529  22.689  0.00  0.00    +0.000 A 
ATOM     11  C   UNL     1       0.050  10.077  21.567  0.00  0.00    +0.000 A 
ATOM     12  S   UNL     1       1.089   8.721  21.424  0.00  0.00    +0.000 S 
ATOM     13  H   UNL     1       2.191   8.612  18.022  0.00  0.00    +0.000 HD
ENDROOT
BRANCH   1  17
ATOM     14  C   UNL     1       4.911   4.978  16.291  0.00  0.00    +0.000 A 
ATOM     15  C   UNL     1       4.924   6.363  16.458  0.00  0.00    +0.000 A 
ATOM     16  C   UNL     1       4.107   6.955  17.425  0.00  0.00    +0.000 A 
ATOM     17  C   UNL     1       3.260   6.183  18.245  0.00  0.00    +0.000 A 
ATOM     18  C   UNL     1       3.242   4.794  18.063  0.00  0.00    +0.000 A 
ATOM     19  C   UNL     1       4.066   4.198  17.094  0.00  0.00    +0.000 A 
BRANCH  14  21
ATOM     20  N   UNL     1       6.431   3.863  14.511  0.00  0.00    +0.000 NA
ATOM     21  C   UNL     1       5.755   4.361  15.306  0.00  0.00    +0.000 C 
ENDBRANCH  14  21
ENDBRANCH   1  17
BRANCH   9  22
ATOM     22  O   UNL     1      -2.166  11.973  23.700  0.00  0.00    +0.000 OA
BRANCH  22  23
ATOM     23  C   UNL     1      -3.480  12.511  23.627  0.00  0.00    +0.000 C 
ATOM     24  F   UNL     1      -4.152  12.172  22.507  0.00  0.00    +0.000 F 
ATOM     25  F   UNL     1      -4.187  12.053  24.684  0.00  0.00    +0.000 F 
ATOM     26  F   UNL     1      -3.419  13.857  23.711  0.00  0.00    +0.000 F 
ENDBRANCH  22  23
ENDBRANCH   9  22
TORSDOF 4
ENDMDL
MODEL 3
REMARK VINA RESULT:      -7.5      3.571      5.722
REMARK  Name = 
REMARK  4 active torsions:
REMARK  status: ('A' for Active; 'I' for Inactive)
REMARK    1  A    between atoms: C_2  and  C_3
REMARK    2  A    between atoms: C_6  and  C_7
REMARK    3  A    between atoms: C_15  and  O_16
REMARK    4  A    between atoms: O_16  and  C_17
REMARK                            x       y       z     vdW  Elec       q    Type
REMARK                         _______ _______ _______ _____ _____    ______ ____
ROOT
ATOM      1  C   UNL     1       1.975   8.576  18.939  0.00  0.00    +0.000 C 
ATOM      2  O   UNL     1       2.222   9.266  17.952  0.00  0.00    +0.000 OA
ATOM      3  N   UNL     1       2.403   7.279  19.133  0.00  0.00    +0.000 N 
ATOM      4  C   UNL     1       3.224   6.581  18.271  0.00  0.00    +0.000 A 
ATOM      5  N   UNL     1       3.356   5.276  18.336  0.00  0.00    +0.000 NA
ATOM      6  C   UNL     1       4.189   4.838  17.312  0.00  0.00    +0.000 A 
ATOM      7  C   UNL     1       4.523   3.501  17.005  0.00  0.00    +0.000 A 
ATOM      8  C   UNL     1       5.367   3.212  15.919  0.00  0.00    +0.000 A 
ATOM      9  C   UNL     1       5.869   4.234  15.119  0.00  0.00    +0.000 A 
ATOM     10  C   UNL     1       5.591   5.568  15.440  0.00  0.00    +0.000 A 
ATOM     11  C   UNL     1       4.740   5.845  16.522  0.00  0.00    +0.000 A 
ATOM     12  S   UNL     1       4.191   7.362  17.102  0.00  0.00    +0.000 S 
ATOM     13  H   UNL     1       1.989   6.692  19.842  0.00  0.00    +0.000 HD
ENDROOT
BRANCH   1  17
ATOM     14  C   UNL     1      -0.574  10.545  21.826  0.00  0.00    +0.000 A 
ATOM     15  C   UNL     1      -0.334  11.097  20.568  0.00  0.00    +0.000 A 
ATOM     16  C   UNL     1       0.491  10.428  19.661  0.00  0.00    +0.000 A 
ATOM     17  C   UNL     1       1.094   9.196  19.984  0.00  0.00    +0.000 A 
ATOM     18  C   UNL     1       0.860   8.654  21.255  0.00  0.00    +0.000 A 
ATOM     19  C   UNL     1       0.028   9.325  22.166  0.00  0.00    +0.000 A 
BRANCH  14  21
ATOM     20  N   UNL     1      -2.116  11.764  23.518  0.00  0.00    +0.000 NA
ATOM     21  C   UNL     1      -1.428  11.222  22.762  0.00  0.00    +0.000 C 
ENDBRANCH  14  21
ENDBRANCH   1  17
BRANCH   9  22
ATOM     22  O   UNL     1       6.674   4.084  14.030  0.00  0.00    +0.000 OA
BRANCH  22  23
ATOM     23  C   UNL     1       6.126   3.656  12.790  0.00  0.00    +0.000 C 
ATOM     24  F   UNL     1       6.186   2.324  12.592  0.00  0.00    +0.000 F 
ATOM     25  F   UNL     1       4.825   4.018  12.753  0.00  0.00    +0.000 F 
ATOM     26  F   UNL     1       6.767   4.279  11.779  0.00  0.00    +0.000 F 
ENDBRANCH  22  23
ENDBRANCH   9  22
TORSDOF 4
ENDMDL
MODEL 4
REMARK VINA RESULT:      -7.5      0.244      1.245
REMARK  Name = 
REMARK  4 active torsions:
REMARK  status: ('A' for Active; 'I' for Inactive)
REMARK    1  A    between atoms: C_2  and  C_3
REMARK    2  A    between atoms: C_6  and  C_7
REMARK    3  A    between atoms: C_15  and  O_16
REMARK    4  A    between atoms: O_16  and  C_17
REMARK                            x       y       z     vdW  Elec       q    Type
REMARK                         _______ _______ _______ _____ _____    ______ ____
ROOT
ATOM      1  C   UNL     1      -0.787  11.334  22.567  0.00  0.00    +0.000 C 
ATOM      2  O   UNL     1      -0.324  10.603  23.439  0.00  0.00    +0.000 OA
ATOM      3  N   UNL     1      -0.553  11.209  21.212  0.00  0.00    +0.000 N 
ATOM      4  C   UNL     1       0.192  10.204  20.630  0.00  0.00    +0.000 A 
ATOM      5  N   UNL     1       0.637  10.290  19.397  0.00  0.00    +0.000 NA
ATOM      6  C   UNL     1       1.407   9.170  19.098  0.00  0.00    +0.000 A 
ATOM      7  C   UNL     1       2.112   8.924  17.901  0.00  0.00    +0.000 A 
ATOM      8  C   UNL     1       2.869   7.748  17.752  0.00  0.00    +0.000 A 
ATOM      9  C   UNL     1       2.950   6.822  18.788  0.00  0.00    +0.000 A 
ATOM     10  C   UNL     1       2.215   7.025  19.962  0.00  0.00    +0.000 A 
ATOM     11  C   UNL     1       1.470   8.207  20.103  0.00  0.00    +0.000 A 
ATOM     12  S   UNL     1       0.531   8.738  21.435  0.00  0.00    +0.000 S 
ATOM     13  H   UNL     1      -0.769  11.958  20.573  0.00  0.00    +0.000 HD
ENDROOT
BRANCH   1  17
ATOM     14  C   UNL     1      -3.409  14.520  23.865  0.00  0.00    +0.000 A 
ATOM     15  C   UNL     1      -3.904  13.265  23.513  0.00  0.00    +0.000 A 
ATOM     16  C   UNL     1      -3.025  12.260  23.104  0.00  0.00    +0.000 A 
ATOM     17  C   UNL     1      -1.635  12.481  23.036  0.00  0.00    +0.000 A 
ATOM     18  C   UNL     1      -1.144  13.748  23.378  0.00  0.00    +0.000 A 
ATOM     19  C   UNL     1      -2.028  14.758  23.793  0.00  0.00    +0.000 A 
BRANCH  14  21
ATOM     20  N   UNL     1      -5.029  16.390  24.640  0.00  0.00    +0.000 NA
ATOM     21  C   UNL     1      -4.305  15.557  24.295  0.00  0.00    +0.000 C 
ENDBRANCH  14  21
ENDBRANCH   1  17
BRANCH   9  22
ATOM     22  O   UNL     1       3.663   5.661  18.776  0.00  0.00    +0.000 OA
BRANCH  22  23
ATOM     23  C   UNL     1       3.427   4.687  17.767  0.00  0.00    +0.000 C 
ATOM     24  F   UNL     1       2.134   4.581  17.397  0.00  0.00    +0.000 F 
ATOM     25  F   UNL     1       4.141   5.028  16.671  0.00  0.00    +0.000 F 
ATOM     26  F   UNL     1       3.861   3.483  18.196  0.00  0.00    +0.000 F 
ENDBRANCH  22  23
ENDBRANCH   9  22
TORSDOF 4
ENDMDL
MODEL 5
REMARK VINA RESULT:      -7.5      3.703      5.916
REMARK  Name = 
REMARK  4 active torsions:
REMARK  status: ('A' for Active; 'I' for Inactive)
REMARK    1  A    between atoms: C_2  and  C_3
REMARK    2  A    between atoms: C_6  and  C_7
REMARK    3  A    between atoms: C_15  and  O_16
REMARK    4  A    between atoms: O_16  and  C_17
REMARK                            x       y       z     vdW  Elec       q    Type
REMARK                         _______ _______ _______ _____ _____    ______ ____
ROOT
ATOM      1  C   UNL     1       2.021   8.684  18.515  0.00  0.00    +0.000 C 
ATOM      2  O   UNL     1       2.227   9.285  17.463  0.00  0.00    +0.000 OA
ATOM      3  N   UNL     1       2.488   7.422  18.819  0.00  0.00    +0.000 N 
ATOM      4  C   UNL     1       3.309   6.668  18.005  0.00  0.00    +0.000 A 
ATOM      5  N   UNL     1       3.479   5.378  18.190  0.00  0.00    +0.000 NA
ATOM      6  C   UNL     1       4.301   4.867  17.190  0.00  0.00    +0.000 A 
ATOM      7  C   UNL     1       4.664   3.517  17.001  0.00  0.00    +0.000 A 
ATOM      8  C   UNL     1       5.492   3.148  15.926  0.00  0.00    +0.000 A 
ATOM      9  C   UNL     1       5.948   4.103  15.023  0.00  0.00    +0.000 A 
ATOM     10  C   UNL     1       5.640   5.454  15.224  0.00  0.00    +0.000 A 
ATOM     11  C   UNL     1       4.806   5.810  16.296  0.00  0.00    +0.000 A 
ATOM     12  S   UNL     1       4.228   7.360  16.746  0.00  0.00    +0.000 S 
ATOM     13  H   UNL     1       2.107   6.895  19.589  0.00  0.00    +0.000 HD
ENDROOT
BRANCH   1  17
ATOM     14  C   UNL     1      -0.474  10.507  21.542  0.00  0.00    +0.000 A 
ATOM     15  C   UNL     1       0.243   9.338  21.794  0.00  0.00    +0.000 A 
ATOM     16  C   UNL     1       1.043   8.782  20.792  0.00  0.00    +0.000 A 
ATOM     17  C   UNL     1       1.147   9.378  19.520  0.00  0.00    +0.000 A 
ATOM     18  C   UNL     1       0.413  10.545  19.268  0.00  0.00    +0.000 A 
ATOM     19  C   UNL     1      -0.388  11.105  20.277  0.00  0.00    +0.000 A 
BRANCH  14  21
ATOM     20  N   UNL     1      -1.950  11.562  23.395  0.00  0.00    +0.000 NA
ATOM     21  C   UNL     1      -1.292  11.089  22.570  0.00  0.00    +0.000 C 
ENDBRANCH  14  21
ENDBRANCH   1  17
BRANCH   9  22
ATOM     22  O   UNL     1       6.733   3.872  13.933  0.00  0.00    +0.000 OA
BRANCH  22  23
ATOM     23  C   UNL     1       6.140   3.575  12.676  0.00  0.00    +0.000 C 
ATOM     24  F   UNL     1       6.208   2.274  12.328  0.00  0.00    +0.000 F 
ATOM     25  F   UNL     1       4.833   3.918  12.730  0.00  0.00    +0.000 F 
ATOM     26  F   UNL     1       6.731   4.317  11.716  0.00  0.00    +0.000 F 
ENDBRANCH  22  23
ENDBRANCH   9  22
TORSDOF 4
ENDMDL
MODEL 6
REMARK VINA RESULT:      -7.4      2.690      3.898
REMARK  Name = 
REMARK  4 active torsions:
REMARK  status: ('A' for Active; 'I' for Inactive)
REMARK    1  A    between atoms: C_2  and  C_3
REMARK    2  A    between atoms: C_6  and  C_7
REMARK    3  A    between atoms: C_15  and  O_16
REMARK    4  A    between atoms: O_16  and  C_17
REMARK                            x       y       z     vdW  Elec       q    Type
REMARK                         _______ _______ _______ _____ _____    ______ ____
ROOT
ATOM      1  C   UNL     1       0.463   9.710  19.777  0.00  0.00    +0.000 C 
ATOM      2  O   UNL     1       0.448   9.988  18.580  0.00  0.00    +0.000 OA
ATOM      3  N   UNL     1       1.177   8.677  20.348  0.00  0.00    +0.000 N 
ATOM      4  C   UNL     1       2.032   7.835  19.664  0.00  0.00    +0.000 A 
ATOM      5  N   UNL     1       2.447   6.699  20.174  0.00  0.00    +0.000 NA
ATOM      6  C   UNL     1       3.240   6.031  19.246  0.00  0.00    +0.000 A 
ATOM      7  C   UNL     1       3.817   4.752  19.390  0.00  0.00    +0.000 A 
ATOM      8  C   UNL     1       4.583   4.197  18.349  0.00  0.00    +0.000 A 
ATOM      9  C   UNL     1       4.764   4.890  17.155  0.00  0.00    +0.000 A 
ATOM     10  C   UNL     1       4.242   6.181  17.015  0.00  0.00    +0.000 A 
ATOM     11  C   UNL     1       3.473   6.722  18.057  0.00  0.00    +0.000 A 
ATOM     12  S   UNL     1       2.676   8.238  18.136  0.00  0.00    +0.000 S 
ATOM     13  H   UNL     1       0.979   8.358  21.284  0.00  0.00    +0.000 HD
ENDROOT
BRANCH   1  17
ATOM     14  C   UNL     1      -2.016  11.971  22.508  0.00  0.00    +0.000 A 
ATOM     15  C   UNL     1      -1.195  10.935  22.954  0.00  0.00    +0.000 A 
ATOM     16  C   UNL     1      -0.405  10.232  22.041  0.00  0.00    +0.000 A 
ATOM     17  C   UNL     1      -0.413  10.543  20.667  0.00  0.00    +0.000 A 
ATOM     18  C   UNL     1      -1.250  11.576  20.223  0.00  0.00    +0.000 A 
ATOM     19  C   UNL     1      -2.042  12.286  21.141  0.00  0.00    +0.000 A 
BRANCH  14  21
ATOM     20  N   UNL     1      -3.480  13.295  24.189  0.00  0.00    +0.000 NA
ATOM     21  C   UNL     1      -2.825  12.705  23.440  0.00  0.00    +0.000 C 
ENDBRANCH  14  21
ENDBRANCH   1  17
BRANCH   9  22
ATOM     22  O   UNL     1       5.461   4.454  16.069  0.00  0.00    +0.000 OA
BRANCH  22  23
ATOM     23  C   UNL     1       6.843   4.758  15.938  0.00  0.00    +0.000 C 
ATOM     24  F   UNL     1       7.140   6.061  16.122  0.00  0.00    +0.000 F 
ATOM     25  F   UNL     1       7.525   4.047  16.863  0.00  0.00    +0.000 F 
ATOM     26  F   UNL     1       7.271   4.380  14.715  0.00  0.00    +0.000 F 
ENDBRANCH  22  23
ENDBRANCH   9  22
TORSDOF 4
ENDMDL
MODEL 7
REMARK VINA RESULT:      -7.3      2.697      4.077
REMARK  Name = 
REMARK  4 active torsions:
REMARK  status: ('A' for Active; 'I' for Inactive)
REMARK    1  A    between atoms: C_2  and  C_3
REMARK    2  A    between atoms: C_6  and  C_7
REMARK    3  A    between atoms: C_15  and  O_16
REMARK    4  A    between atoms: O_16  and  C_17
REMARK                            x       y       z     vdW  Elec       q    Type
REMARK                         _______ _______ _______ _____ _____    ______ ____
ROOT
ATOM      1  C   UNL     1       0.657   9.254  20.019  0.00  0.00    +0.000 C 
ATOM      2  O   UNL     1       0.624   9.569  18.832  0.00  0.00    +0.000 OA
ATOM      3  N   UNL     1       1.328   8.166  20.538  0.00  0.00    +0.000 N 
ATOM      4  C   UNL     1       2.115   7.301  19.804  0.00  0.00    +0.000 A 
ATOM      5  N   UNL     1       2.481   6.127  20.268  0.00  0.00    +0.000 NA
ATOM      6  C   UNL     1       3.209   5.447  19.297  0.00  0.00    +0.000 A 
ATOM      7  C   UNL     1       3.718   4.134  19.386  0.00  0.00    +0.000 A 
ATOM      8  C   UNL     1       4.422   3.571  18.307  0.00  0.00    +0.000 A 
ATOM      9  C   UNL     1       4.609   4.289  17.130  0.00  0.00    +0.000 A 
ATOM     10  C   UNL     1       4.156   5.611  17.043  0.00  0.00    +0.000 A 
ATOM     11  C   UNL     1       3.447   6.161  18.124  0.00  0.00    +0.000 A 
ATOM     12  S   UNL     1       2.739   7.715  18.271  0.00  0.00    +0.000 S 
ATOM     13  H   UNL     1       1.138   7.829  21.469  0.00  0.00    +0.000 HD
ENDROOT
BRANCH   1  17
ATOM     14  C   UNL     1      -1.673  11.859  22.567  0.00  0.00    +0.000 A 
ATOM     15  C   UNL     1      -1.506  12.126  21.209  0.00  0.00    +0.000 A 
ATOM     16  C   UNL     1      -0.750  11.257  20.417  0.00  0.00    +0.000 A 
ATOM     17  C   UNL     1      -0.146  10.105  20.959  0.00  0.00    +0.000 A 
ATOM     18  C   UNL     1      -0.307   9.850  22.327  0.00  0.00    +0.000 A 
ATOM     19  C   UNL     1      -1.069  10.722  23.123  0.00  0.00    +0.000 A 
BRANCH  14  21
ATOM     20  N   UNL     1      -3.082  13.453  24.050  0.00  0.00    +0.000 NA
ATOM     21  C   UNL     1      -2.455  12.742  23.387  0.00  0.00    +0.000 C 
ENDBRANCH  14  21
ENDBRANCH   1  17
BRANCH   9  22
ATOM     22  O   UNL     1       5.250   3.850  16.011  0.00  0.00    +0.000 OA
BRANCH  22  23
ATOM     23  C   UNL     1       6.514   4.393  15.652  0.00  0.00    +0.000 C 
ATOM     24  F   UNL     1       7.027   3.887  14.513  0.00  0.00    +0.000 F 
ATOM     25  F   UNL     1       6.371   5.726  15.481  0.00  0.00    +0.000 F 
ATOM     26  F   UNL     1       7.391   4.189  16.658  0.00  0.00    +0.000 F 
ENDBRANCH  22  23
ENDBRANCH   9  22
TORSDOF 4
ENDMDL
MODEL 8
REMARK VINA RESULT:      -7.3      0.901      1.051
REMARK  Name = 
REMARK  4 active torsions:
REMARK  status: ('A' for Active; 'I' for Inactive)
REMARK    1  A    between atoms: C_2  and  C_3
REMARK    2  A    between atoms: C_6  and  C_7
REMARK    3  A    between atoms: C_15  and  O_16
REMARK    4  A    between atoms: O_16  and  C_17
REMARK                            x       y       z     vdW  Elec       q    Type
REMARK                         _______ _______ _______ _____ _____    ______ ____
ROOT
ATOM      1  C   UNL     1      -0.684  11.115  22.569  0.00  0.00    +0.000 C 
ATOM      2  O   UNL     1      -0.162  10.392  23.415  0.00  0.00    +0.000 OA
ATOM      3  N   UNL     1      -0.498  11.012  21.205  0.00  0.00    +0.000 N 
ATOM      4  C   UNL     1       0.261  10.040  20.584  0.00  0.00    +0.000 A 
ATOM      5  N   UNL     1       0.654  10.155  19.336  0.00  0.00    +0.000 NA
ATOM      6  C   UNL     1       1.451   9.066  18.995  0.00  0.00    +0.000 A 
ATOM      7  C   UNL     1       2.119   8.857  17.770  0.00  0.00    +0.000 A 
ATOM      8  C   UNL     1       2.910   7.711  17.579  0.00  0.00    +0.000 A 
ATOM      9  C   UNL     1       3.064   6.778  18.601  0.00  0.00    +0.000 A 
ATOM     10  C   UNL     1       2.368   6.943  19.804  0.00  0.00    +0.000 A 
ATOM     11  C   UNL     1       1.587   8.096  19.987  0.00  0.00    +0.000 A 
ATOM     12  S   UNL     1       0.681   8.579  21.359  0.00  0.00    +0.000 S 
ATOM     13  H   UNL     1      -0.764  11.759  20.583  0.00  0.00    +0.000 HD
ENDROOT
BRANCH   1  17
ATOM     14  C   UNL     1      -3.011  14.447  24.049  0.00  0.00    +0.000 A 
ATOM     15  C   UNL     1      -1.702  14.614  23.599  0.00  0.00    +0.000 A 
ATOM     16  C   UNL     1      -0.984  13.514  23.123  0.00  0.00    +0.000 A 
ATOM     17  C   UNL     1      -1.553  12.226  23.084  0.00  0.00    +0.000 A 
ATOM     18  C   UNL     1      -2.865  12.062  23.550  0.00  0.00    +0.000 A 
ATOM     19  C   UNL     1      -3.588  13.169  24.025  0.00  0.00    +0.000 A 
BRANCH  14  21
ATOM     20  N   UNL     1      -4.363  16.480  24.924  0.00  0.00    +0.000 NA
ATOM     21  C   UNL     1      -3.759  15.574  24.532  0.00  0.00    +0.000 C 
ENDBRANCH  14  21
ENDBRANCH   1  17
BRANCH   9  22
ATOM     22  O   UNL     1       3.817   5.643  18.549  0.00  0.00    +0.000 OA
BRANCH  22  23
ATOM     23  C   UNL     1       5.014   5.615  17.782  0.00  0.00    +0.000 C 
ATOM     24  F   UNL     1       5.754   6.739  17.875  0.00  0.00    +0.000 F 
ATOM     25  F   UNL     1       5.774   4.586  18.216  0.00  0.00    +0.000 F 
ATOM     26  F   UNL     1       4.709   5.397  16.485  0.00  0.00    +0.000 F 
ENDBRANCH  22  23
ENDBRANCH   9  22
TORSDOF 4
ENDMDL
MODEL 9
REMARK VINA RESULT:      -7.2      4.862     10.175
REMARK  Name = 
REMARK  4 active torsions:
REMARK  status: ('A' for Active; 'I' for Inactive)
REMARK    1  A    between atoms: C_2  and  C_3
REMARK    2  A    between atoms: C_6  and  C_7
REMARK    3  A    between atoms: C_15  and  O_16
REMARK    4  A    between atoms: O_16  and  C_17
REMARK                            x       y       z     vdW  Elec       q    Type
REMARK                         _______ _______ _______ _____ _____    ______ ____
ROOT
ATOM      1  C   UNL     1       2.166   7.423  19.423  0.00  0.00    +0.000 C 
ATOM      2  O   UNL     1       1.833   6.812  20.436  0.00  0.00    +0.000 OA
ATOM      3  N   UNL     1       1.778   8.708  19.101  0.00  0.00    +0.000 N 
ATOM      4  C   UNL     1       1.003   9.522  19.903  0.00  0.00    +0.000 A 
ATOM      5  N   UNL     1       0.413  10.600  19.439  0.00  0.00    +0.000 NA
ATOM      6  C   UNL     1      -0.349  11.186  20.445  0.00  0.00    +0.000 A 
ATOM      7  C   UNL     1      -1.182  12.319  20.324  0.00  0.00    +0.000 A 
ATOM      8  C   UNL     1      -1.910  12.785  21.433  0.00  0.00    +0.000 A 
ATOM      9  C   UNL     1      -1.838  12.127  22.657  0.00  0.00    +0.000 A 
ATOM     10  C   UNL     1      -0.977  11.033  22.808  0.00  0.00    +0.000 A 
ATOM     11  C   UNL     1      -0.260  10.571  21.692  0.00  0.00    +0.000 A 
ATOM     12  S   UNL     1       0.812   9.238  21.575  0.00  0.00    +0.000 S 
ATOM     13  H   UNL     1       1.892   9.070  18.168  0.00  0.00    +0.000 HD
ENDROOT
BRANCH   1  17
ATOM     14  C   UNL     1       4.577   5.082  16.700  0.00  0.00    +0.000 A 
ATOM     15  C   UNL     1       3.679   4.480  17.581  0.00  0.00    +0.000 A 
ATOM     16  C   UNL     1       2.913   5.271  18.442  0.00  0.00    +0.000 A 
ATOM     17  C   UNL     1       3.024   6.676  18.444  0.00  0.00    +0.000 A 
ATOM     18  C   UNL     1       3.938   7.273  17.566  0.00  0.00    +0.000 A 
ATOM     19  C   UNL     1       4.705   6.479  16.698  0.00  0.00    +0.000 A 
BRANCH  14  21
ATOM     20  N   UNL     1       5.996   3.631  15.086  0.00  0.00    +0.000 NA
ATOM     21  C   UNL     1       5.361   4.277  15.805  0.00  0.00    +0.000 C 
ENDBRANCH  14  21
ENDBRANCH   1  17
BRANCH   9  22
ATOM     22  O   UNL     1      -2.508  12.464  23.794  0.00  0.00    +0.000 OA
BRANCH  22  23
ATOM     23  C   UNL     1      -3.919  12.640  23.765  0.00  0.00    +0.000 C 
ATOM     24  F   UNL     1      -4.571  12.018  24.769  0.00  0.00    +0.000 F 
ATOM     25  F   UNL     1      -4.185  13.962  23.860  0.00  0.00    +0.000 F 
ATOM     26  F   UNL     1      -4.402  12.195  22.586  0.00  0.00    +0.000 F 
ENDBRANCH  22  23
ENDBRANCH   9  22
TORSDOF 4
ENDMDL
