MODEL 1
REMARK VINA RESULT:      -8.6      0.000      0.000
REMARK  Name = 
REMARK  4 active torsions:
REMARK  status: ('A' for Active; 'I' for Inactive)
REMARK    1  A    between atoms: C_1  and  C_2
REMARK    2  A    between atoms: C_6  and  C_8
REMARK    3  A    between atoms: C_8  and  O_9
REMARK    4  A    between atoms: O_9  and  N_10
REMARK                            x       y       z     vdW  Elec       q    Type
REMARK                         _______ _______ _______ _____ _____    ______ ____
ROOT
ATOM      1  C   UNL     1       6.703   5.626  18.938  0.00  0.00    +0.000 C 
ENDROOT
BRANCH   1   7
ATOM      2  C   UNL     1       6.496   3.402  11.855  0.00  0.00    +0.000 C 
ATOM      3  C   UNL     1       6.625   3.989  13.197  0.00  0.00    +0.000 A 
ATOM      4  C   UNL     1       6.138   3.685  14.446  0.00  0.00    +0.000 A 
ATOM      5  C   UNL     1       6.692   4.675  15.298  0.00  0.00    +0.000 A 
ATOM      6  N   UNL     1       6.485   4.749  16.667  0.00  0.00    +0.000 N 
ATOM      7  C   UNL     1       7.048   5.737  17.457  0.00  0.00    +0.000 C 
ATOM      8  O   UNL     1       7.761   6.663  17.074  0.00  0.00    +0.000 OA
ATOM      9  N   UNL     1       7.447   5.518  14.591  0.00  0.00    +0.000 NA
ATOM     10  O   UNL     1       7.409   5.092  13.286  0.00  0.00    +0.000 OA
ATOM     11  H   UNL     1       5.904   4.029  17.081  0.00  0.00    +0.000 HD
ENDBRANCH   1   7
BRANCH   1  12
ATOM     12  O   UNL     1       5.325   5.849  19.215  0.00  0.00    +0.000 OA
BRANCH  12  13
ATOM     13  N   UNL     1       4.711   4.644  19.541  0.00  0.00    +0.000 N 
ATOM     14  N   UNL     1       5.419   3.500  19.508  0.00  0.00    +0.000 NA
ATOM     15  N   UNL     1       4.579   2.509  19.772  0.00  0.00    +0.000 NA
ATOM     16  C   UNL     1       3.349   3.060  20.016  0.00  0.00    +0.000 A 
ATOM     17  C   UNL     1       2.142   2.439  20.361  0.00  0.00    +0.000 A 
ATOM     18  C   UNL     1       1.018   3.243  20.573  0.00  0.00    +0.000 A 
ATOM     19  C   UNL     1       1.094   4.633  20.433  0.00  0.00    +0.000 A 
ATOM     20  C   UNL     1       2.291   5.271  20.071  0.00  0.00    +0.000 A 
ATOM     21  C   UNL     1       3.402   4.445  19.878  0.00  0.00    +0.000 A 
ENDBRANCH  12  13
ENDBRANCH   1  12
TORSDOF 3
ENDMDL
MODEL 2
REMARK VINA RESULT:      -8.3      1.312      1.455
REMARK  Name = 
REMARK  4 active torsions:
REMARK  status: ('A' for Active; 'I' for Inactive)
REMARK    1  A    between atoms: C_1  and  C_2
REMARK    2  A    between atoms: C_6  and  C_8
REMARK    3  A    between atoms: C_8  and  O_9
REMARK    4  A    between atoms: O_9  and  N_10
REMARK                            x       y       z     vdW  Elec       q    Type
REMARK                         _______ _______ _______ _____ _____    ______ ____
ROOT
ATOM      1  C   UNL     1       5.673   4.951  19.212  0.00  0.00    +0.000 C 
ENDROOT
BRANCH   1   7
ATOM      2  C   UNL     1       7.224   4.308  11.978  0.00  0.00    +0.000 C 
ATOM      3  C   UNL     1       7.034   4.574  13.412  0.00  0.00    +0.000 A 
ATOM      4  C   UNL     1       6.183   4.108  14.386  0.00  0.00    +0.000 A 
ATOM      5  C   UNL     1       6.582   4.789  15.565  0.00  0.00    +0.000 A 
ATOM      6  N   UNL     1       6.007   4.613  16.815  0.00  0.00    +0.000 N 
ATOM      7  C   UNL     1       6.432   5.304  17.937  0.00  0.00    +0.000 C 
ATOM      8  O   UNL     1       7.323   6.150  17.983  0.00  0.00    +0.000 OA
ATOM      9  N   UNL     1       7.595   5.616  15.298  0.00  0.00    +0.000 NA
ATOM     10  O   UNL     1       7.879   5.482  13.960  0.00  0.00    +0.000 OA
ATOM     11  H   UNL     1       5.257   3.936  16.881  0.00  0.00    +0.000 HD
ENDBRANCH   1   7
BRANCH   1  12
ATOM     12  O   UNL     1       5.562   3.549  19.433  0.00  0.00    +0.000 OA
BRANCH  12  13
ATOM     13  N   UNL     1       4.324   3.100  18.984  0.00  0.00    +0.000 N 
ATOM     14  N   UNL     1       4.222   2.504  17.783  0.00  0.00    +0.000 NA
ATOM     15  N   UNL     1       2.937   2.260  17.571  0.00  0.00    +0.000 NA
ATOM     16  C   UNL     1       2.247   2.673  18.681  0.00  0.00    +0.000 A 
ATOM     17  C   UNL     1       0.875   2.611  18.956  0.00  0.00    +0.000 A 
ATOM     18  C   UNL     1       0.424   3.095  20.188  0.00  0.00    +0.000 A 
ATOM     19  C   UNL     1       1.318   3.636  21.118  0.00  0.00    +0.000 A 
ATOM     20  C   UNL     1       2.694   3.722  20.851  0.00  0.00    +0.000 A 
ATOM     21  C   UNL     1       3.120   3.219  19.618  0.00  0.00    +0.000 A 
ENDBRANCH  12  13
ENDBRANCH   1  12
TORSDOF 3
ENDMDL
MODEL 3
REMARK VINA RESULT:      -8.3      0.974      1.678
REMARK  Name = 
REMARK  4 active torsions:
REMARK  status: ('A' for Active; 'I' for Inactive)
REMARK    1  A    between atoms: C_1  and  C_2
REMARK    2  A    between atoms: C_6  and  C_8
REMARK    3  A    between atoms: C_8  and  O_9
REMARK    4  A    between atoms: O_9  and  N_10
REMARK                            x       y       z     vdW  Elec       q    Type
REMARK                         _______ _______ _______ _____ _____    ______ ____
ROOT
ATOM      1  C   UNL     1       6.640   5.346  19.074  0.00  0.00    +0.000 C 
ENDROOT
BRANCH   1   7
ATOM      2  C   UNL     1       6.682   3.645  11.845  0.00  0.00    +0.000 C 
ATOM      3  C   UNL     1       6.765   4.132  13.230  0.00  0.00    +0.000 A 
ATOM      4  C   UNL     1       6.230   3.742  14.435  0.00  0.00    +0.000 A 
ATOM      5  C   UNL     1       6.757   4.663  15.377  0.00  0.00    +0.000 A 
ATOM      6  N   UNL     1       6.501   4.638  16.739  0.00  0.00    +0.000 N 
ATOM      7  C   UNL     1       7.040   5.563  17.619  0.00  0.00    +0.000 C 
ATOM      8  O   UNL     1       7.771   6.509  17.330  0.00  0.00    +0.000 OA
ATOM      9  N   UNL     1       7.542   5.550  14.761  0.00  0.00    +0.000 NA
ATOM     10  O   UNL     1       7.550   5.220  13.427  0.00  0.00    +0.000 OA
ATOM     11  H   UNL     1       5.902   3.895  17.078  0.00  0.00    +0.000 HD
ENDBRANCH   1   7
BRANCH   1  12
ATOM     12  O   UNL     1       5.880   4.160  19.281  0.00  0.00    +0.000 OA
BRANCH  12  13
ATOM     13  N   UNL     1       4.531   4.483  19.392  0.00  0.00    +0.000 N 
ATOM     14  N   UNL     1       4.164   5.749  19.659  0.00  0.00    +0.000 NA
ATOM     15  N   UNL     1       2.845   5.757  19.797  0.00  0.00    +0.000 NA
ATOM     16  C   UNL     1       2.395   4.484  19.565  0.00  0.00    +0.000 A 
ATOM     17  C   UNL     1       1.088   3.982  19.568  0.00  0.00    +0.000 A 
ATOM     18  C   UNL     1       0.897   2.627  19.281  0.00  0.00    +0.000 A 
ATOM     19  C   UNL     1       1.985   1.791  19.009  0.00  0.00    +0.000 A 
ATOM     20  C   UNL     1       3.304   2.273  19.019  0.00  0.00    +0.000 A 
ATOM     21  C   UNL     1       3.465   3.634  19.296  0.00  0.00    +0.000 A 
ENDBRANCH  12  13
ENDBRANCH   1  12
TORSDOF 3
ENDMDL
MODEL 4
REMARK VINA RESULT:      -8.2      1.207      1.251
REMARK  Name = 
REMARK  4 active torsions:
REMARK  status: ('A' for Active; 'I' for Inactive)
REMARK    1  A    between atoms: C_1  and  C_2
REMARK    2  A    between atoms: C_6  and  C_8
REMARK    3  A    between atoms: C_8  and  O_9
REMARK    4  A    between atoms: O_9  and  N_10
REMARK                            x       y       z     vdW  Elec       q    Type
REMARK                         _______ _______ _______ _____ _____    ______ ____
ROOT
ATOM      1  C   UNL     1       7.157   5.251  19.242  0.00  0.00    +0.000 C 
ENDROOT
BRANCH   1   7
ATOM      2  C   UNL     1       6.300   3.498  12.076  0.00  0.00    +0.000 C 
ATOM      3  C   UNL     1       6.538   4.003  13.437  0.00  0.00    +0.000 A 
ATOM      4  C   UNL     1       6.227   3.574  14.705  0.00  0.00    +0.000 A 
ATOM      5  C   UNL     1       6.795   4.549  15.564  0.00  0.00    +0.000 A 
ATOM      6  N   UNL     1       6.745   4.512  16.949  0.00  0.00    +0.000 N 
ATOM      7  C   UNL     1       7.315   5.492  17.745  0.00  0.00    +0.000 C 
ATOM      8  O   UNL     1       7.902   6.502  17.357  0.00  0.00    +0.000 OA
ATOM      9  N   UNL     1       7.392   5.502  14.844  0.00  0.00    +0.000 NA
ATOM     10  O   UNL     1       7.235   5.163  13.522  0.00  0.00    +0.000 OA
ATOM     11  H   UNL     1       6.278   3.718  17.368  0.00  0.00    +0.000 HD
ENDBRANCH   1   7
BRANCH   1  12
ATOM     12  O   UNL     1       5.863   5.585  19.734  0.00  0.00    +0.000 OA
BRANCH  12  13
ATOM     13  N   UNL     1       4.969   4.562  19.432  0.00  0.00    +0.000 N 
ATOM     14  N   UNL     1       5.297   3.285  19.697  0.00  0.00    +0.000 NA
ATOM     15  N   UNL     1       4.316   2.522  19.234  0.00  0.00    +0.000 NA
ATOM     16  C   UNL     1       3.353   3.349  18.719  0.00  0.00    +0.000 A 
ATOM     17  C   UNL     1       2.120   3.034  18.137  0.00  0.00    +0.000 A 
ATOM     18  C   UNL     1       1.305   4.082  17.698  0.00  0.00    +0.000 A 
ATOM     19  C   UNL     1       1.716   5.413  17.829  0.00  0.00    +0.000 A 
ATOM     20  C   UNL     1       2.957   5.747  18.394  0.00  0.00    +0.000 A 
ATOM     21  C   UNL     1       3.746   4.680  18.836  0.00  0.00    +0.000 A 
ENDBRANCH  12  13
ENDBRANCH   1  12
TORSDOF 3
ENDMDL
MODEL 5
REMARK VINA RESULT:      -8.1      1.107      1.107
REMARK  Name = 
REMARK  4 active torsions:
REMARK  status: ('A' for Active; 'I' for Inactive)
REMARK    1  A    between atoms: C_1  and  C_2
REMARK    2  A    between atoms: C_6  and  C_8
REMARK    3  A    between atoms: C_8  and  O_9
REMARK    4  A    between atoms: O_9  and  N_10
REMARK                            x       y       z     vdW  Elec       q    Type
REMARK                         _______ _______ _______ _____ _____    ______ ____
ROOT
ATOM      1  C   UNL     1       6.372   6.305  18.313  0.00  0.00    +0.000 C 
ENDROOT
BRANCH   1   7
ATOM      2  C   UNL     1       6.570   3.075  11.628  0.00  0.00    +0.000 C 
ATOM      3  C   UNL     1       6.643   3.840  12.882  0.00  0.00    +0.000 A 
ATOM      4  C   UNL     1       6.000   3.786  14.096  0.00  0.00    +0.000 A 
ATOM      5  C   UNL     1       6.593   4.823  14.862  0.00  0.00    +0.000 A 
ATOM      6  N   UNL     1       6.264   5.126  16.174  0.00  0.00    +0.000 N 
ATOM      7  C   UNL     1       6.872   6.151  16.880  0.00  0.00    +0.000 C 
ATOM      8  O   UNL     1       7.734   6.920  16.458  0.00  0.00    +0.000 OA
ATOM      9  N   UNL     1       7.517   5.457  14.137  0.00  0.00    +0.000 NA
ATOM     10  O   UNL     1       7.551   4.846  12.908  0.00  0.00    +0.000 OA
ATOM     11  H   UNL     1       5.557   4.548  16.614  0.00  0.00    +0.000 HD
ENDBRANCH   1   7
BRANCH   1  12
ATOM     12  O   UNL     1       4.957   6.204  18.431  0.00  0.00    +0.000 OA
BRANCH  12  13
ATOM     13  N   UNL     1       4.610   4.912  18.812  0.00  0.00    +0.000 N 
ATOM     14  N   UNL     1       5.528   4.110  19.379  0.00  0.00    +0.000 NA
ATOM     15  N   UNL     1       4.962   2.925  19.558  0.00  0.00    +0.000 NA
ATOM     16  C   UNL     1       3.662   3.018  19.136  0.00  0.00    +0.000 A 
ATOM     17  C   UNL     1       2.648   2.052  19.138  0.00  0.00    +0.000 A 
ATOM     18  C   UNL     1       1.385   2.413  18.659  0.00  0.00    +0.000 A 
ATOM     19  C   UNL     1       1.143   3.704  18.178  0.00  0.00    +0.000 A 
ATOM     20  C   UNL     1       2.152   4.681  18.152  0.00  0.00    +0.000 A 
ATOM     21  C   UNL     1       3.401   4.296  18.650  0.00  0.00    +0.000 A 
ENDBRANCH  12  13
ENDBRANCH   1  12
TORSDOF 3
ENDMDL
MODEL 6
REMARK VINA RESULT:      -8.1      1.266      1.540
REMARK  Name = 
REMARK  4 active torsions:
REMARK  status: ('A' for Active; 'I' for Inactive)
REMARK    1  A    between atoms: C_1  and  C_2
REMARK    2  A    between atoms: C_6  and  C_8
REMARK    3  A    between atoms: C_8  and  O_9
REMARK    4  A    between atoms: O_9  and  N_10
REMARK                            x       y       z     vdW  Elec       q    Type
REMARK                         _______ _______ _______ _____ _____    ______ ____
ROOT
ATOM      1  C   UNL     1       5.932   5.033  19.168  0.00  0.00    +0.000 C 
ENDROOT
BRANCH   1   7
ATOM      2  C   UNL     1       7.101   4.085  11.895  0.00  0.00    +0.000 C 
ATOM      3  C   UNL     1       6.984   4.413  13.325  0.00  0.00    +0.000 A 
ATOM      4  C   UNL     1       6.195   3.980  14.364  0.00  0.00    +0.000 A 
ATOM      5  C   UNL     1       6.645   4.719  15.488  0.00  0.00    +0.000 A 
ATOM      6  N   UNL     1       6.142   4.592  16.773  0.00  0.00    +0.000 N 
ATOM      7  C   UNL     1       6.615   5.339  17.839  0.00  0.00    +0.000 C 
ATOM      8  O   UNL     1       7.494   6.199  17.799  0.00  0.00    +0.000 OA
ATOM      9  N   UNL     1       7.629   5.547  15.129  0.00  0.00    +0.000 NA
ATOM     10  O   UNL     1       7.843   5.356  13.785  0.00  0.00    +0.000 OA
ATOM     11  H   UNL     1       5.408   3.908  16.911  0.00  0.00    +0.000 HD
ENDBRANCH   1   7
BRANCH   1  12
ATOM     12  O   UNL     1       4.768   5.819  19.399  0.00  0.00    +0.000 OA
BRANCH  12  13
ATOM     13  N   UNL     1       3.635   5.096  19.039  0.00  0.00    +0.000 N 
ATOM     14  N   UNL     1       3.173   5.157  17.778  0.00  0.00    +0.000 NA
ATOM     15  N   UNL     1       2.050   4.454  17.735  0.00  0.00    +0.000 NA
ATOM     16  C   UNL     1       1.848   3.916  18.979  0.00  0.00    +0.000 A 
ATOM     17  C   UNL     1       0.822   3.081  19.438  0.00  0.00    +0.000 A 
ATOM     18  C   UNL     1       0.858   2.655  20.769  0.00  0.00    +0.000 A 
ATOM     19  C   UNL     1       1.888   3.060  21.624  0.00  0.00    +0.000 A 
ATOM     20  C   UNL     1       2.916   3.910  21.186  0.00  0.00    +0.000 A 
ATOM     21  C   UNL     1       2.862   4.311  19.847  0.00  0.00    +0.000 A 
ENDBRANCH  12  13
ENDBRANCH   1  12
TORSDOF 3
ENDMDL
MODEL 7
REMARK VINA RESULT:      -7.7      1.768      2.129
REMARK  Name = 
REMARK  4 active torsions:
REMARK  status: ('A' for Active; 'I' for Inactive)
REMARK    1  A    between atoms: C_1  and  C_2
REMARK    2  A    between atoms: C_6  and  C_8
REMARK    3  A    between atoms: C_8  and  O_9
REMARK    4  A    between atoms: O_9  and  N_10
REMARK                            x       y       z     vdW  Elec       q    Type
REMARK                         _______ _______ _______ _____ _____    ______ ____
ROOT
ATOM      1  C   UNL     1       5.126   6.335  18.124  0.00  0.00    +0.000 C 
ENDROOT
BRANCH   1   7
ATOM      2  C   UNL     1       6.855   3.182  11.626  0.00  0.00    +0.000 C 
ATOM      3  C   UNL     1       6.650   3.922  12.880  0.00  0.00    +0.000 A 
ATOM      4  C   UNL     1       5.699   3.912  13.874  0.00  0.00    +0.000 A 
ATOM      5  C   UNL     1       6.148   4.881  14.808  0.00  0.00    +0.000 A 
ATOM      6  N   UNL     1       5.503   5.197  15.994  0.00  0.00    +0.000 N 
ATOM      7  C   UNL     1       5.981   6.154  16.874  0.00  0.00    +0.000 C 
ATOM      8  O   UNL     1       6.987   6.846  16.728  0.00  0.00    +0.000 OA
ATOM      9  N   UNL     1       7.285   5.437  14.383  0.00  0.00    +0.000 NA
ATOM     10  O   UNL     1       7.599   4.840  13.186  0.00  0.00    +0.000 OA
ATOM     11  H   UNL     1       4.657   4.682  16.205  0.00  0.00    +0.000 HD
ENDBRANCH   1   7
BRANCH   1  12
ATOM     12  O   UNL     1       3.785   6.721  17.840  0.00  0.00    +0.000 OA
BRANCH  12  13
ATOM     13  N   UNL     1       2.919   6.094  18.730  0.00  0.00    +0.000 N 
ATOM     14  N   UNL     1       2.483   6.752  19.818  0.00  0.00    +0.000 NA
ATOM     15  N   UNL     1       1.754   5.902  20.527  0.00  0.00    +0.000 NA
ATOM     16  C   UNL     1       1.705   4.719  19.838  0.00  0.00    +0.000 A 
ATOM     17  C   UNL     1       1.046   3.525  20.153  0.00  0.00    +0.000 A 
ATOM     18  C   UNL     1       1.146   2.455  19.259  0.00  0.00    +0.000 A 
ATOM     19  C   UNL     1       1.896   2.571  18.083  0.00  0.00    +0.000 A 
ATOM     20  C   UNL     1       2.578   3.755  17.759  0.00  0.00    +0.000 A 
ATOM     21  C   UNL     1       2.449   4.813  18.664  0.00  0.00    +0.000 A 
ENDBRANCH  12  13
ENDBRANCH   1  12
TORSDOF 3
ENDMDL
MODEL 8
REMARK VINA RESULT:      -7.6      1.177      1.208
REMARK  Name = 
REMARK  4 active torsions:
REMARK  status: ('A' for Active; 'I' for Inactive)
REMARK    1  A    between atoms: C_1  and  C_2
REMARK    2  A    between atoms: C_6  and  C_8
REMARK    3  A    between atoms: C_8  and  O_9
REMARK    4  A    between atoms: O_9  and  N_10
REMARK                            x       y       z     vdW  Elec       q    Type
REMARK                         _______ _______ _______ _____ _____    ______ ____
ROOT
ATOM      1  C   UNL     1       4.841   6.506  17.710  0.00  0.00    +0.000 C 
ENDROOT
BRANCH   1   7
ATOM      2  C   UNL     1       6.886   2.942  11.523  0.00  0.00    +0.000 C 
ATOM      3  C   UNL     1       6.619   3.762  12.715  0.00  0.00    +0.000 A 
ATOM      4  C   UNL     1       5.624   3.809  13.662  0.00  0.00    +0.000 A 
ATOM      5  C   UNL     1       6.023   4.843  14.548  0.00  0.00    +0.000 A 
ATOM      6  N   UNL     1       5.322   5.231  15.680  0.00  0.00    +0.000 N 
ATOM      7  C   UNL     1       5.753   6.249  16.514  0.00  0.00    +0.000 C 
ATOM      8  O   UNL     1       6.760   6.940  16.368  0.00  0.00    +0.000 OA
ATOM      9  N   UNL     1       7.174   5.380  14.138  0.00  0.00    +0.000 NA
ATOM     10  O   UNL     1       7.547   4.708  13.000  0.00  0.00    +0.000 OA
ATOM     11  H   UNL     1       4.471   4.723  15.887  0.00  0.00    +0.000 HD
ENDBRANCH   1   7
BRANCH   1  12
ATOM     12  O   UNL     1       3.679   5.683  17.720  0.00  0.00    +0.000 OA
BRANCH  12  13
ATOM     13  N   UNL     1       3.832   4.669  18.661  0.00  0.00    +0.000 N 
ATOM     14  N   UNL     1       5.008   4.026  18.769  0.00  0.00    +0.000 NA
ATOM     15  N   UNL     1       4.850   3.064  19.667  0.00  0.00    +0.000 NA
ATOM     16  C   UNL     1       3.571   3.151  20.149  0.00  0.00    +0.000 A 
ATOM     17  C   UNL     1       2.927   2.380  21.125  0.00  0.00    +0.000 A 
ATOM     18  C   UNL     1       1.602   2.689  21.449  0.00  0.00    +0.000 A 
ATOM     19  C   UNL     1       0.933   3.735  20.806  0.00  0.00    +0.000 A 
ATOM     20  C   UNL     1       1.556   4.508  19.813  0.00  0.00    +0.000 A 
ATOM     21  C   UNL     1       2.885   4.186  19.519  0.00  0.00    +0.000 A 
ENDBRANCH  12  13
ENDBRANCH   1  12
TORSDOF 3
ENDMDL
MODEL 9
REMARK VINA RESULT:      -7.6      1.406      1.594
REMARK  Name = 
REMARK  4 active torsions:
REMARK  status: ('A' for Active; 'I' for Inactive)
REMARK    1  A    between atoms: C_1  and  C_2
REMARK    2  A    between atoms: C_6  and  C_8
REMARK    3  A    between atoms: C_8  and  O_9
REMARK    4  A    between atoms: O_9  and  N_10
REMARK                            x       y       z     vdW  Elec       q    Type
REMARK                         _______ _______ _______ _____ _____    ______ ____
ROOT
ATOM      1  C   UNL     1       5.776   4.750  19.261  0.00  0.00    +0.000 C 
ENDROOT
BRANCH   1   7
ATOM      2  C   UNL     1       7.140   4.114  11.988  0.00  0.00    +0.000 C 
ATOM      3  C   UNL     1       6.970   4.392  13.423  0.00  0.00    +0.000 A 
ATOM      4  C   UNL     1       6.214   3.854  14.437  0.00  0.00    +0.000 A 
ATOM      5  C   UNL     1       6.571   4.605  15.587  0.00  0.00    +0.000 A 
ATOM      6  N   UNL     1       6.064   4.395  16.860  0.00  0.00    +0.000 N 
ATOM      7  C   UNL     1       6.444   5.158  17.952  0.00  0.00    +0.000 C 
ATOM      8  O   UNL     1       7.231   6.103  17.947  0.00  0.00    +0.000 OA
ATOM      9  N   UNL     1       7.471   5.537  15.265  0.00  0.00    +0.000 NA
ATOM     10  O   UNL     1       7.722   5.404  13.921  0.00  0.00    +0.000 OA
ATOM     11  H   UNL     1       5.401   3.637  16.969  0.00  0.00    +0.000 HD
ENDBRANCH   1   7
BRANCH   1  12
ATOM     12  O   UNL     1       5.581   3.345  19.382  0.00  0.00    +0.000 OA
BRANCH  12  13
ATOM     13  N   UNL     1       4.298   3.090  19.858  0.00  0.00    +0.000 N 
ATOM     14  N   UNL     1       4.130   2.550  21.078  0.00  0.00    +0.000 NA
ATOM     15  N   UNL     1       2.832   2.335  21.239  0.00  0.00    +0.000 NA
ATOM     16  C   UNL     1       2.192   2.794  20.118  0.00  0.00    +0.000 A 
ATOM     17  C   UNL     1       0.826   2.816  19.813  0.00  0.00    +0.000 A 
ATOM     18  C   UNL     1       0.428   3.361  18.588  0.00  0.00    +0.000 A 
ATOM     19  C   UNL     1       1.372   3.862  17.685  0.00  0.00    +0.000 A 
ATOM     20  C   UNL     1       2.748   3.832  17.967  0.00  0.00    +0.000 A 
ATOM     21  C   UNL     1       3.116   3.294  19.204  0.00  0.00    +0.000 A 
ENDBRANCH  12  13
ENDBRANCH   1  12
TORSDOF 3
ENDMDL
