MODEL 1
REMARK VINA RESULT:      -7.3      0.000      0.000
REMARK  Name = 
REMARK  7 active torsions:
REMARK  status: ('A' for Active; 'I' for Inactive)
REMARK    1  A    between atoms: C_1  and  C_2
REMARK    2  A    between atoms: C_3  and  C_4
REMARK    3  A    between atoms: N_6  and  C_7
REMARK    4  A    between atoms: C_8  and  C_9
REMARK    5  A    between atoms: C_11  and  C_12
REMARK    6  A    between atoms: C_14  and  C_15
REMARK    7  A    between atoms: C_19  and  C_20
REMARK                            x       y       z     vdW  Elec       q    Type
REMARK                         _______ _______ _______ _____ _____    ______ ____
ROOT
ATOM      1  C   UNL     1       4.751   5.587  18.654  0.00  0.00    +0.000 C 
ATOM      2  O   UNL     1       5.322   5.731  19.726  0.00  0.00    +0.000 OA
ATOM      3  N   UNL     1       3.418   5.869  18.392  0.00  0.00    +0.000 N 
ATOM      4  H   UNL     1       2.985   5.367  17.626  0.00  0.00    +0.000 HD
ENDROOT
BRANCH   1   7
ATOM      5  C   UNL     1       3.752   3.189  16.734  0.00  0.00    +0.000 C 
ATOM      6  C   UNL     1       4.967   4.049  16.586  0.00  0.00    +0.000 C 
ATOM      7  C   UNL     1       5.415   4.967  17.479  0.00  0.00    +0.000 C 
ATOM      8  S   UNL     1       7.020   5.599  17.048  0.00  0.00    +0.000 S 
ATOM      9  C   UNL     1       6.841   4.878  15.488  0.00  0.00    +0.000 C 
ATOM     10  N   UNL     1       7.441   5.260  14.415  0.00  0.00    +0.000 NA
ATOM     11  C   UNL     1       6.556   4.653  13.367  0.00  0.00    +0.000 C 
ATOM     12  C   UNL     1       7.421   4.112  12.244  0.00  0.00    +0.000 C 
ATOM     13  C   UNL     1       5.570   3.659  14.073  0.00  0.00    +0.000 C 
ATOM     14  N   UNL     1       5.813   3.972  15.465  0.00  0.00    +0.000 N 
ENDBRANCH   1   7
BRANCH   3  15
ATOM     15  C   UNL     1       2.573   6.605  19.235  0.00  0.00    +0.000 A 
ATOM     16  C   UNL     1       2.264   7.947  18.945  0.00  0.00    +0.000 A 
ATOM     17  C   UNL     1       2.674   8.625  17.670  0.00  0.00    +0.000 C 
ATOM     18  C   UNL     1       1.476   8.669  19.851  0.00  0.00    +0.000 A 
ATOM     19  C   UNL     1       0.951   8.062  20.992  0.00  0.00    +0.000 A 
ATOM     20  C   UNL     1       0.157   8.850  21.990  0.00  0.00    +0.000 C 
ATOM     21  C   UNL     1       1.178   6.693  21.207  0.00  0.00    +0.000 A 
ATOM     22  C   UNL     1       1.975   5.948  20.328  0.00  0.00    +0.000 A 
ATOM     23  C   UNL     1       2.204   4.486  20.600  0.00  0.00    +0.000 C 
ENDBRANCH   3  15
TORSDOF 2
ENDMDL
MODEL 2
REMARK VINA RESULT:      -6.9      0.167      1.860
REMARK  Name = 
REMARK  7 active torsions:
REMARK  status: ('A' for Active; 'I' for Inactive)
REMARK    1  A    between atoms: C_1  and  C_2
REMARK    2  A    between atoms: C_3  and  C_4
REMARK    3  A    between atoms: N_6  and  C_7
REMARK    4  A    between atoms: C_8  and  C_9
REMARK    5  A    between atoms: C_11  and  C_12
REMARK    6  A    between atoms: C_14  and  C_15
REMARK    7  A    between atoms: C_19  and  C_20
REMARK                            x       y       z     vdW  Elec       q    Type
REMARK                         _______ _______ _______ _____ _____    ______ ____
ROOT
ATOM      1  C   UNL     1       4.748   5.534  18.625  0.00  0.00    +0.000 C 
ATOM      2  O   UNL     1       5.328   5.687  19.690  0.00  0.00    +0.000 OA
ATOM      3  N   UNL     1       3.408   5.797  18.376  0.00  0.00    +0.000 N 
ATOM      4  H   UNL     1       2.974   5.288  17.616  0.00  0.00    +0.000 HD
ENDROOT
BRANCH   1   7
ATOM      5  C   UNL     1       3.733   3.163  16.678  0.00  0.00    +0.000 C 
ATOM      6  C   UNL     1       4.954   4.017  16.540  0.00  0.00    +0.000 C 
ATOM      7  C   UNL     1       5.408   4.923  17.443  0.00  0.00    +0.000 C 
ATOM      8  S   UNL     1       7.016   5.549  17.018  0.00  0.00    +0.000 S 
ATOM      9  C   UNL     1       6.833   4.847  15.450  0.00  0.00    +0.000 C 
ATOM     10  N   UNL     1       7.435   5.236  14.382  0.00  0.00    +0.000 NA
ATOM     11  C   UNL     1       6.547   4.646  13.328  0.00  0.00    +0.000 C 
ATOM     12  C   UNL     1       7.409   4.112  12.198  0.00  0.00    +0.000 C 
ATOM     13  C   UNL     1       5.554   3.651  14.023  0.00  0.00    +0.000 C 
ATOM     14  N   UNL     1       5.799   3.948  15.417  0.00  0.00    +0.000 N 
ENDBRANCH   1   7
BRANCH   3  15
ATOM     15  C   UNL     1       2.561   6.520  19.228  0.00  0.00    +0.000 A 
ATOM     16  C   UNL     1       2.031   5.923  20.386  0.00  0.00    +0.000 A 
ATOM     17  C   UNL     1       2.441   4.562  20.867  0.00  0.00    +0.000 C 
ATOM     18  C   UNL     1       1.130   6.655  21.171  0.00  0.00    +0.000 A 
ATOM     19  C   UNL     1       0.804   7.974  20.854  0.00  0.00    +0.000 A 
ATOM     20  C   UNL     1      -0.203   8.736  21.660  0.00  0.00    +0.000 C 
ATOM     21  C   UNL     1       1.429   8.590  19.757  0.00  0.00    +0.000 A 
ATOM     22  C   UNL     1       2.321   7.880  18.944  0.00  0.00    +0.000 A 
ATOM     23  C   UNL     1       2.961   8.572  17.770  0.00  0.00    +0.000 C 
ENDBRANCH   3  15
TORSDOF 2
ENDMDL
MODEL 3
REMARK VINA RESULT:      -6.7      5.155      7.683
REMARK  Name = 
REMARK  7 active torsions:
REMARK  status: ('A' for Active; 'I' for Inactive)
REMARK    1  A    between atoms: C_1  and  C_2
REMARK    2  A    between atoms: C_3  and  C_4
REMARK    3  A    between atoms: N_6  and  C_7
REMARK    4  A    between atoms: C_8  and  C_9
REMARK    5  A    between atoms: C_11  and  C_12
REMARK    6  A    between atoms: C_14  and  C_15
REMARK    7  A    between atoms: C_19  and  C_20
REMARK                            x       y       z     vdW  Elec       q    Type
REMARK                         _______ _______ _______ _____ _____    ______ ____
ROOT
ATOM      1  C   UNL     1      -0.414  10.928  18.783  0.00  0.00    +0.000 C 
ATOM      2  O   UNL     1      -0.146  12.096  18.541  0.00  0.00    +0.000 OA
ATOM      3  N   UNL     1      -1.685  10.376  18.856  0.00  0.00    +0.000 N 
ATOM      4  H   UNL     1      -1.792   9.542  19.420  0.00  0.00    +0.000 HD
ENDROOT
BRANCH   1   7
ATOM      5  C   UNL     1       0.141   9.440  21.597  0.00  0.00    +0.000 C 
ATOM      6  C   UNL     1       0.808   9.207  20.278  0.00  0.00    +0.000 C 
ATOM      7  C   UNL     1       0.629   9.935  19.147  0.00  0.00    +0.000 C 
ATOM      8  S   UNL     1       1.784   9.491  17.870  0.00  0.00    +0.000 S 
ATOM      9  C   UNL     1       2.199   8.088  18.789  0.00  0.00    +0.000 C 
ATOM     10  N   UNL     1       2.696   7.001  18.311  0.00  0.00    +0.000 NA
ATOM     11  C   UNL     1       2.370   6.035  19.411  0.00  0.00    +0.000 C 
ATOM     12  C   UNL     1       3.542   5.090  19.601  0.00  0.00    +0.000 C 
ATOM     13  C   UNL     1       1.884   6.855  20.656  0.00  0.00    +0.000 C 
ATOM     14  N   UNL     1       1.742   8.174  20.078  0.00  0.00    +0.000 N 
ENDBRANCH   1   7
BRANCH   3  15
ATOM     15  C   UNL     1      -2.858  11.004  18.414  0.00  0.00    +0.000 A 
ATOM     16  C   UNL     1      -3.526  11.932  19.235  0.00  0.00    +0.000 A 
ATOM     17  C   UNL     1      -2.968  12.423  20.539  0.00  0.00    +0.000 C 
ATOM     18  C   UNL     1      -4.735  12.482  18.787  0.00  0.00    +0.000 A 
ATOM     19  C   UNL     1      -5.246  12.169  17.527  0.00  0.00    +0.000 A 
ATOM     20  C   UNL     1      -6.567  12.712  17.073  0.00  0.00    +0.000 C 
ATOM     21  C   UNL     1      -4.510  11.328  16.679  0.00  0.00    +0.000 A 
ATOM     22  C   UNL     1      -3.306  10.750  17.103  0.00  0.00    +0.000 A 
ATOM     23  C   UNL     1      -2.552   9.844  16.167  0.00  0.00    +0.000 C 
ENDBRANCH   3  15
TORSDOF 2
ENDMDL
MODEL 4
REMARK VINA RESULT:      -6.4      5.383      7.920
REMARK  Name = 
REMARK  7 active torsions:
REMARK  status: ('A' for Active; 'I' for Inactive)
REMARK    1  A    between atoms: C_1  and  C_2
REMARK    2  A    between atoms: C_3  and  C_4
REMARK    3  A    between atoms: N_6  and  C_7
REMARK    4  A    between atoms: C_8  and  C_9
REMARK    5  A    between atoms: C_11  and  C_12
REMARK    6  A    between atoms: C_14  and  C_15
REMARK    7  A    between atoms: C_19  and  C_20
REMARK                            x       y       z     vdW  Elec       q    Type
REMARK                         _______ _______ _______ _____ _____    ______ ____
ROOT
ATOM      1  C   UNL     1      -0.649  11.170  18.713  0.00  0.00    +0.000 C 
ATOM      2  O   UNL     1      -0.414  12.326  18.394  0.00  0.00    +0.000 OA
ATOM      3  N   UNL     1      -1.905  10.597  18.850  0.00  0.00    +0.000 N 
ATOM      4  H   UNL     1      -1.980   9.797  19.466  0.00  0.00    +0.000 HD
ENDROOT
BRANCH   1   7
ATOM      5  C   UNL     1      -0.145   9.678  21.534  0.00  0.00    +0.000 C 
ATOM      6  C   UNL     1       0.589   9.492  20.243  0.00  0.00    +0.000 C 
ATOM      7  C   UNL     1       0.424  10.224  19.112  0.00  0.00    +0.000 C 
ATOM      8  S   UNL     1       1.653   9.851  17.883  0.00  0.00    +0.000 S 
ATOM      9  C   UNL     1       2.096   8.458  18.806  0.00  0.00    +0.000 C 
ATOM     10  N   UNL     1       2.665   7.402  18.339  0.00  0.00    +0.000 NA
ATOM     11  C   UNL     1       2.339   6.410  19.415  0.00  0.00    +0.000 C 
ATOM     12  C   UNL     1       3.547   5.519  19.646  0.00  0.00    +0.000 C 
ATOM     13  C   UNL     1       1.760   7.191  20.645  0.00  0.00    +0.000 C 
ATOM     14  N   UNL     1       1.580   8.508  20.075  0.00  0.00    +0.000 N 
ENDBRANCH   1   7
BRANCH   3  15
ATOM     15  C   UNL     1      -3.102  11.171  18.398  0.00  0.00    +0.000 A 
ATOM     16  C   UNL     1      -3.618  10.846  17.130  0.00  0.00    +0.000 A 
ATOM     17  C   UNL     1      -3.030   9.776  16.256  0.00  0.00    +0.000 C 
ATOM     18  C   UNL     1      -4.776  11.497  16.685  0.00  0.00    +0.000 A 
ATOM     19  C   UNL     1      -5.449  12.407  17.500  0.00  0.00    +0.000 A 
ATOM     20  C   UNL     1      -6.654  13.146  17.002  0.00  0.00    +0.000 C 
ATOM     21  C   UNL     1      -4.982  12.635  18.804  0.00  0.00    +0.000 A 
ATOM     22  C   UNL     1      -3.818  12.012  19.272  0.00  0.00    +0.000 A 
ATOM     23  C   UNL     1      -3.343  12.293  20.673  0.00  0.00    +0.000 C 
ENDBRANCH   3  15
TORSDOF 2
ENDMDL
MODEL 5
REMARK VINA RESULT:      -6.3      4.274      6.950
REMARK  Name = 
REMARK  7 active torsions:
REMARK  status: ('A' for Active; 'I' for Inactive)
REMARK    1  A    between atoms: C_1  and  C_2
REMARK    2  A    between atoms: C_3  and  C_4
REMARK    3  A    between atoms: N_6  and  C_7
REMARK    4  A    between atoms: C_8  and  C_9
REMARK    5  A    between atoms: C_11  and  C_12
REMARK    6  A    between atoms: C_14  and  C_15
REMARK    7  A    between atoms: C_19  and  C_20
REMARK                            x       y       z     vdW  Elec       q    Type
REMARK                         _______ _______ _______ _____ _____    ______ ____
ROOT
ATOM      1  C   UNL     1       0.763  10.194  18.929  0.00  0.00    +0.000 C 
ATOM      2  O   UNL     1      -0.157  10.236  18.126  0.00  0.00    +0.000 OA
ATOM      3  N   UNL     1       1.299  11.272  19.619  0.00  0.00    +0.000 N 
ATOM      4  H   UNL     1       2.257  11.185  19.935  0.00  0.00    +0.000 HD
ENDROOT
BRANCH   1   7
ATOM      5  C   UNL     1       1.042   8.487  21.658  0.00  0.00    +0.000 C 
ATOM      6  C   UNL     1       1.558   8.146  20.295  0.00  0.00    +0.000 C 
ATOM      7  C   UNL     1       1.523   8.946  19.200  0.00  0.00    +0.000 C 
ATOM      8  S   UNL     1       2.454   8.273  17.844  0.00  0.00    +0.000 S 
ATOM      9  C   UNL     1       2.529   6.770  18.693  0.00  0.00    +0.000 C 
ATOM     10  N   UNL     1       2.696   5.614  18.153  0.00  0.00    +0.000 NA
ATOM     11  C   UNL     1       2.182   4.719  19.241  0.00  0.00    +0.000 C 
ATOM     12  C   UNL     1       3.070   3.492  19.331  0.00  0.00    +0.000 C 
ATOM     13  C   UNL     1       1.991   5.580  20.536  0.00  0.00    +0.000 C 
ATOM     14  N   UNL     1       2.175   6.915  20.009  0.00  0.00    +0.000 N 
ENDBRANCH   1   7
BRANCH   3  15
ATOM     15  C   UNL     1       0.711  12.542  19.705  0.00  0.00    +0.000 A 
ATOM     16  C   UNL     1      -0.329  12.789  20.620  0.00  0.00    +0.000 A 
ATOM     17  C   UNL     1      -0.768  11.790  21.650  0.00  0.00    +0.000 C 
ATOM     18  C   UNL     1      -0.941  14.050  20.622  0.00  0.00    +0.000 A 
ATOM     19  C   UNL     1      -0.495  15.069  19.781  0.00  0.00    +0.000 A 
ATOM     20  C   UNL     1      -1.187  16.398  19.743  0.00  0.00    +0.000 C 
ATOM     21  C   UNL     1       0.616  14.838  18.954  0.00  0.00    +0.000 A 
ATOM     22  C   UNL     1       1.239  13.584  18.917  0.00  0.00    +0.000 A 
ATOM     23  C   UNL     1       2.420  13.373  18.007  0.00  0.00    +0.000 C 
ENDBRANCH   3  15
TORSDOF 2
ENDMDL
MODEL 6
REMARK VINA RESULT:      -6.3      7.046     12.029
REMARK  Name = 
REMARK  7 active torsions:
REMARK  status: ('A' for Active; 'I' for Inactive)
REMARK    1  A    between atoms: C_1  and  C_2
REMARK    2  A    between atoms: C_3  and  C_4
REMARK    3  A    between atoms: N_6  and  C_7
REMARK    4  A    between atoms: C_8  and  C_9
REMARK    5  A    between atoms: C_11  and  C_12
REMARK    6  A    between atoms: C_14  and  C_15
REMARK    7  A    between atoms: C_19  and  C_20
REMARK                            x       y       z     vdW  Elec       q    Type
REMARK                         _______ _______ _______ _____ _____    ______ ____
ROOT
ATOM      1  C   UNL     1      -1.177  12.552  21.716  0.00  0.00    +0.000 C 
ATOM      2  O   UNL     1      -0.073  13.068  21.816  0.00  0.00    +0.000 OA
ATOM      3  N   UNL     1      -1.511  11.485  20.894  0.00  0.00    +0.000 N 
ATOM      4  H   UNL     1      -2.482  11.407  20.616  0.00  0.00    +0.000 HD
ENDROOT
BRANCH   1   7
ATOM      5  C   UNL     1      -2.795  15.305  21.224  0.00  0.00    +0.000 C 
ATOM      6  C   UNL     1      -3.140  14.180  22.149  0.00  0.00    +0.000 C 
ATOM      7  C   UNL     1      -2.371  13.093  22.414  0.00  0.00    +0.000 C 
ATOM      8  S   UNL     1      -3.024  12.116  23.747  0.00  0.00    +0.000 S 
ATOM      9  C   UNL     1      -4.498  13.009  23.628  0.00  0.00    +0.000 C 
ATOM     10  N   UNL     1      -5.656  12.595  24.007  0.00  0.00    +0.000 NA
ATOM     11  C   UNL     1      -6.552  13.510  23.226  0.00  0.00    +0.000 C 
ATOM     12  C   UNL     1      -7.723  13.918  24.100  0.00  0.00    +0.000 C 
ATOM     13  C   UNL     1      -5.669  14.649  22.607  0.00  0.00    +0.000 C 
ATOM     14  N   UNL     1      -4.341  14.147  22.881  0.00  0.00    +0.000 N 
ENDBRANCH   1   7
BRANCH   3  15
ATOM     15  C   UNL     1      -0.589  10.659  20.236  0.00  0.00    +0.000 A 
ATOM     16  C   UNL     1       0.102   9.656  20.941  0.00  0.00    +0.000 A 
ATOM     17  C   UNL     1      -0.200   9.300  22.367  0.00  0.00    +0.000 C 
ATOM     18  C   UNL     1       1.070   8.901  20.264  0.00  0.00    +0.000 A 
ATOM     19  C   UNL     1       1.310   9.090  18.903  0.00  0.00    +0.000 A 
ATOM     20  C   UNL     1       2.385   8.323  18.194  0.00  0.00    +0.000 C 
ATOM     21  C   UNL     1       0.533  10.019  18.193  0.00  0.00    +0.000 A 
ATOM     22  C   UNL     1      -0.431  10.800  18.844  0.00  0.00    +0.000 A 
ATOM     23  C   UNL     1      -1.235  11.793  18.048  0.00  0.00    +0.000 C 
ENDBRANCH   3  15
TORSDOF 2
ENDMDL
MODEL 7
REMARK VINA RESULT:      -6.2      4.345      7.052
REMARK  Name = 
REMARK  7 active torsions:
REMARK  status: ('A' for Active; 'I' for Inactive)
REMARK    1  A    between atoms: C_1  and  C_2
REMARK    2  A    between atoms: C_3  and  C_4
REMARK    3  A    between atoms: N_6  and  C_7
REMARK    4  A    between atoms: C_8  and  C_9
REMARK    5  A    between atoms: C_11  and  C_12
REMARK    6  A    between atoms: C_14  and  C_15
REMARK    7  A    between atoms: C_19  and  C_20
REMARK                            x       y       z     vdW  Elec       q    Type
REMARK                         _______ _______ _______ _____ _____    ______ ____
ROOT
ATOM      1  C   UNL     1      -0.242  10.322  19.597  0.00  0.00    +0.000 C 
ATOM      2  O   UNL     1      -1.263  10.178  18.939  0.00  0.00    +0.000 OA
ATOM      3  N   UNL     1       0.015  11.348  20.496  0.00  0.00    +0.000 N 
ATOM      4  H   UNL     1       0.987  11.571  20.671  0.00  0.00    +0.000 HD
ENDROOT
BRANCH   1   7
ATOM      5  C   UNL     1       0.964   8.080  21.586  0.00  0.00    +0.000 C 
ATOM      6  C   UNL     1       1.394   8.409  20.190  0.00  0.00    +0.000 C 
ATOM      7  C   UNL     1       0.939   9.438  19.431  0.00  0.00    +0.000 C 
ATOM      8  S   UNL     1       1.873   9.632  17.931  0.00  0.00    +0.000 S 
ATOM      9  C   UNL     1       2.584   8.084  18.220  0.00  0.00    +0.000 C 
ATOM     10  N   UNL     1       3.084   7.311  17.321  0.00  0.00    +0.000 NA
ATOM     11  C   UNL     1       3.062   5.994  18.038  0.00  0.00    +0.000 C 
ATOM     12  C   UNL     1       4.333   5.233  17.710  0.00  0.00    +0.000 C 
ATOM     13  C   UNL     1       2.739   6.263  19.548  0.00  0.00    +0.000 C 
ATOM     14  N   UNL     1       2.368   7.660  19.506  0.00  0.00    +0.000 N 
ENDBRANCH   1   7
BRANCH   3  15
ATOM     15  C   UNL     1      -0.946  12.242  20.989  0.00  0.00    +0.000 A 
ATOM     16  C   UNL     1      -1.603  11.985  22.207  0.00  0.00    +0.000 A 
ATOM     17  C   UNL     1      -1.227  10.854  23.118  0.00  0.00    +0.000 C 
ATOM     18  C   UNL     1      -2.610  12.864  22.629  0.00  0.00    +0.000 A 
ATOM     19  C   UNL     1      -2.921  14.009  21.895  0.00  0.00    +0.000 A 
ATOM     20  C   UNL     1      -4.036  14.918  22.316  0.00  0.00    +0.000 C 
ATOM     21  C   UNL     1      -2.178  14.307  20.741  0.00  0.00    +0.000 A 
ATOM     22  C   UNL     1      -1.177  13.440  20.285  0.00  0.00    +0.000 A 
ATOM     23  C   UNL     1      -0.411  13.789  19.037  0.00  0.00    +0.000 C 
ENDBRANCH   3  15
TORSDOF 2
ENDMDL
MODEL 8
REMARK VINA RESULT:      -6.2      6.368     11.298
REMARK  Name = 
REMARK  7 active torsions:
REMARK  status: ('A' for Active; 'I' for Inactive)
REMARK    1  A    between atoms: C_1  and  C_2
REMARK    2  A    between atoms: C_3  and  C_4
REMARK    3  A    between atoms: N_6  and  C_7
REMARK    4  A    between atoms: C_8  and  C_9
REMARK    5  A    between atoms: C_11  and  C_12
REMARK    6  A    between atoms: C_14  and  C_15
REMARK    7  A    between atoms: C_19  and  C_20
REMARK                            x       y       z     vdW  Elec       q    Type
REMARK                         _______ _______ _______ _____ _____    ______ ____
ROOT
ATOM      1  C   UNL     1      -0.371  12.052  21.334  0.00  0.00    +0.000 C 
ATOM      2  O   UNL     1       0.742  12.557  21.339  0.00  0.00    +0.000 OA
ATOM      3  N   UNL     1      -0.759  10.931  20.613  0.00  0.00    +0.000 N 
ATOM      4  H   UNL     1      -1.743  10.846  20.391  0.00  0.00    +0.000 HD
ENDROOT
BRANCH   1   7
ATOM      5  C   UNL     1      -1.850  14.883  20.848  0.00  0.00    +0.000 C 
ATOM      6  C   UNL     1      -2.237  13.784  21.788  0.00  0.00    +0.000 C 
ATOM      7  C   UNL     1      -1.522  12.661  22.049  0.00  0.00    +0.000 C 
ATOM      8  S   UNL     1      -2.201  11.729  23.402  0.00  0.00    +0.000 S 
ATOM      9  C   UNL     1      -3.627  12.699  23.302  0.00  0.00    +0.000 C 
ATOM     10  N   UNL     1      -4.798  12.349  23.705  0.00  0.00    +0.000 NA
ATOM     11  C   UNL     1      -5.659  13.305  22.933  0.00  0.00    +0.000 C 
ATOM     12  C   UNL     1      -6.790  13.781  23.825  0.00  0.00    +0.000 C 
ATOM     13  C   UNL     1      -4.729  14.390  22.288  0.00  0.00    +0.000 C 
ATOM     14  N   UNL     1      -3.424  13.821  22.542  0.00  0.00    +0.000 N 
ENDBRANCH   1   7
BRANCH   3  15
ATOM     15  C   UNL     1       0.120  10.045  19.974  0.00  0.00    +0.000 A 
ATOM     16  C   UNL     1       0.881   9.127  20.722  0.00  0.00    +0.000 A 
ATOM     17  C   UNL     1       0.700   8.925  22.198  0.00  0.00    +0.000 C 
ATOM     18  C   UNL     1       1.802   8.310  20.053  0.00  0.00    +0.000 A 
ATOM     19  C   UNL     1       1.927   8.353  18.664  0.00  0.00    +0.000 A 
ATOM     20  C   UNL     1       2.953   7.521  17.955  0.00  0.00    +0.000 C 
ATOM     21  C   UNL     1       1.082   9.195  17.925  0.00  0.00    +0.000 A 
ATOM     22  C   UNL     1       0.162  10.036  18.566  0.00  0.00    +0.000 A 
ATOM     23  C   UNL     1      -0.719  10.933  17.738  0.00  0.00    +0.000 C 
ENDBRANCH   3  15
TORSDOF 2
ENDMDL
MODEL 9
REMARK VINA RESULT:      -6.2      7.178     11.876
REMARK  Name = 
REMARK  7 active torsions:
REMARK  status: ('A' for Active; 'I' for Inactive)
REMARK    1  A    between atoms: C_1  and  C_2
REMARK    2  A    between atoms: C_3  and  C_4
REMARK    3  A    between atoms: N_6  and  C_7
REMARK    4  A    between atoms: C_8  and  C_9
REMARK    5  A    between atoms: C_11  and  C_12
REMARK    6  A    between atoms: C_14  and  C_15
REMARK    7  A    between atoms: C_19  and  C_20
REMARK                            x       y       z     vdW  Elec       q    Type
REMARK                         _______ _______ _______ _____ _____    ______ ____
ROOT
ATOM      1  C   UNL     1      -2.049  12.679  19.949  0.00  0.00    +0.000 C 
ATOM      2  O   UNL     1      -1.258  13.454  19.432  0.00  0.00    +0.000 OA
ATOM      3  N   UNL     1      -1.996  11.293  19.889  0.00  0.00    +0.000 N 
ATOM      4  H   UNL     1      -2.870  10.794  20.009  0.00  0.00    +0.000 HD
ENDROOT
BRANCH   1   7
ATOM      5  C   UNL     1      -5.151  12.425  19.078  0.00  0.00    +0.000 C 
ATOM      6  C   UNL     1      -4.588  12.944  20.365  0.00  0.00    +0.000 C 
ATOM      7  C   UNL     1      -3.276  13.144  20.645  0.00  0.00    +0.000 C 
ATOM      8  S   UNL     1      -3.039  13.998  22.186  0.00  0.00    +0.000 S 
ATOM      9  C   UNL     1      -4.701  13.706  22.558  0.00  0.00    +0.000 C 
ATOM     10  N   UNL     1      -5.206  13.662  23.741  0.00  0.00    +0.000 NA
ATOM     11  C   UNL     1      -6.474  12.906  23.478  0.00  0.00    +0.000 C 
ATOM     12  C   UNL     1      -7.591  13.513  24.307  0.00  0.00    +0.000 C 
ATOM     13  C   UNL     1      -6.680  12.818  21.927  0.00  0.00    +0.000 C 
ATOM     14  N   UNL     1      -5.404  13.308  21.451  0.00  0.00    +0.000 N 
ENDBRANCH   1   7
BRANCH   3  15
ATOM     15  C   UNL     1      -0.891  10.551  19.448  0.00  0.00    +0.000 A 
ATOM     16  C   UNL     1       0.124  10.175  20.348  0.00  0.00    +0.000 A 
ATOM     17  C   UNL     1       0.028  10.396  21.829  0.00  0.00    +0.000 C 
ATOM     18  C   UNL     1       1.247   9.498  19.853  0.00  0.00    +0.000 A 
ATOM     19  C   UNL     1       1.340   9.144  18.507  0.00  0.00    +0.000 A 
ATOM     20  C   UNL     1       2.567   8.473  17.968  0.00  0.00    +0.000 C 
ATOM     21  C   UNL     1       0.268   9.430  17.647  0.00  0.00    +0.000 A 
ATOM     22  C   UNL     1      -0.861  10.119  18.107  0.00  0.00    +0.000 A 
ATOM     23  C   UNL     1      -1.985  10.417  17.151  0.00  0.00    +0.000 C 
ENDBRANCH   3  15
TORSDOF 2
ENDMDL
