MODEL 1
REMARK VINA RESULT:      -8.7      0.000      0.000
REMARK  Name = 
REMARK  1 active torsions:
REMARK  status: ('A' for Active; 'I' for Inactive)
REMARK    1  A    between atoms: C_4  and  C_5
REMARK                            x       y       z     vdW  Elec       q    Type
REMARK                         _______ _______ _______ _____ _____    ______ ____
ROOT
ATOM      1  C   UNL     1       3.332   6.174  17.932  0.00  0.00    +0.000 C 
ATOM      2  C   UNL     1       2.859   5.050  18.873  0.00  0.00    +0.000 C 
ATOM      3  N   UNL     1       1.699   5.257  19.682  0.00  0.00    +0.000 NA
ATOM      4  C   UNL     1       2.046   6.307  20.641  0.00  0.00    +0.000 C 
ATOM      5  C   UNL     1       1.993   7.565  19.900  0.00  0.00    +0.000 A 
ATOM      6  C   UNL     1       2.528   7.557  18.536  0.00  0.00    +0.000 A 
ATOM      7  C   UNL     1       1.937   8.640  17.784  0.00  0.00    +0.000 A 
ATOM      8  C   UNL     1       1.049   9.639  18.350  0.00  0.00    +0.000 A 
ATOM      9  C   UNL     1       0.712   9.642  19.722  0.00  0.00    +0.000 A 
ATOM     10  C   UNL     1      -0.144  10.622  20.338  0.00  0.00    +0.000 A 
ATOM     11  C   UNL     1      -0.441  10.555  21.707  0.00  0.00    +0.000 A 
ATOM     12  C   UNL     1       0.072   9.527  22.482  0.00  0.00    +0.000 A 
ATOM     13  C   UNL     1       0.866   8.566  21.893  0.00  0.00    +0.000 A 
ATOM     14  C   UNL     1       1.198   8.596  20.499  0.00  0.00    +0.000 A 
ATOM     15  H   UNL     1       0.873   5.485  19.077  0.00  0.00    +0.000 HD
ENDROOT
BRANCH   1  19
ATOM     16  C   UNL     1       7.432   4.413  16.527  0.00  0.00    +0.000 A 
ATOM     17  C   UNL     1       6.314   4.314  15.784  0.00  0.00    +0.000 A 
ATOM     18  C   UNL     1       5.107   4.793  16.256  0.00  0.00    +0.000 A 
ATOM     19  C   UNL     1       4.857   5.469  17.556  0.00  0.00    +0.000 A 
ATOM     20  C   UNL     1       6.098   5.551  18.300  0.00  0.00    +0.000 A 
ATOM     21  C   UNL     1       7.344   5.037  17.776  0.00  0.00    +0.000 A 
ENDBRANCH   1  19
TORSDOF 1
ENDMDL
MODEL 2
REMARK VINA RESULT:      -8.5      0.225      1.083
REMARK  Name = 
REMARK  1 active torsions:
REMARK  status: ('A' for Active; 'I' for Inactive)
REMARK    1  A    between atoms: C_4  and  C_5
REMARK                            x       y       z     vdW  Elec       q    Type
REMARK                         _______ _______ _______ _____ _____    ______ ____
ROOT
ATOM      1  C   UNL     1       3.319   6.385  17.797  0.00  0.00    +0.000 C 
ATOM      2  C   UNL     1       2.923   5.216  18.718  0.00  0.00    +0.000 C 
ATOM      3  N   UNL     1       1.787   5.355  19.575  0.00  0.00    +0.000 NA
ATOM      4  C   UNL     1       2.131   6.388  20.553  0.00  0.00    +0.000 C 
ATOM      5  C   UNL     1       2.005   7.665  19.855  0.00  0.00    +0.000 A 
ATOM      6  C   UNL     1       2.489   7.719  18.473  0.00  0.00    +0.000 A 
ATOM      7  C   UNL     1       1.832   8.801  17.777  0.00  0.00    +0.000 A 
ATOM      8  C   UNL     1       0.929   9.748  18.406  0.00  0.00    +0.000 A 
ATOM      9  C   UNL     1       0.644   9.697  19.789  0.00  0.00    +0.000 A 
ATOM     10  C   UNL     1      -0.224  10.625  20.466  0.00  0.00    +0.000 A 
ATOM     11  C   UNL     1      -0.467  10.506  21.842  0.00  0.00    +0.000 A 
ATOM     12  C   UNL     1       0.111   9.475  22.565  0.00  0.00    +0.000 A 
ATOM     13  C   UNL     1       0.917   8.562  21.917  0.00  0.00    +0.000 A 
ATOM     14  C   UNL     1       1.196   8.647  20.515  0.00  0.00    +0.000 A 
ATOM     15  H   UNL     1       0.931   5.570  19.007  0.00  0.00    +0.000 HD
ENDROOT
BRANCH   1  19
ATOM     16  C   UNL     1       7.522   4.512  16.953  0.00  0.00    +0.000 A 
ATOM     17  C   UNL     1       7.264   5.228  18.063  0.00  0.00    +0.000 A 
ATOM     18  C   UNL     1       6.028   5.818  18.251  0.00  0.00    +0.000 A 
ATOM     19  C   UNL     1       4.853   5.749  17.344  0.00  0.00    +0.000 A 
ATOM     20  C   UNL     1       5.195   4.959  16.178  0.00  0.00    +0.000 A 
ATOM     21  C   UNL     1       6.499   4.357  16.011  0.00  0.00    +0.000 A 
ENDBRANCH   1  19
TORSDOF 1
ENDMDL
MODEL 3
REMARK VINA RESULT:      -8.5      3.105      5.008
REMARK  Name = 
REMARK  1 active torsions:
REMARK  status: ('A' for Active; 'I' for Inactive)
REMARK    1  A    between atoms: C_4  and  C_5
REMARK                            x       y       z     vdW  Elec       q    Type
REMARK                         _______ _______ _______ _____ _____    ______ ____
ROOT
ATOM      1  C   UNL     1       5.764   3.604  15.920  0.00  0.00    +0.000 C 
ATOM      2  C   UNL     1       6.767   4.311  16.852  0.00  0.00    +0.000 C 
ATOM      3  N   UNL     1       6.450   4.457  18.238  0.00  0.00    +0.000 NA
ATOM      4  C   UNL     1       5.305   5.366  18.306  0.00  0.00    +0.000 C 
ATOM      5  C   UNL     1       4.137   4.576  17.922  0.00  0.00    +0.000 A 
ATOM      6  C   UNL     1       4.308   3.631  16.816  0.00  0.00    +0.000 A 
ATOM      7  C   UNL     1       3.306   2.594  16.913  0.00  0.00    +0.000 A 
ATOM      8  C   UNL     1       2.234   2.583  17.892  0.00  0.00    +0.000 A 
ATOM      9  C   UNL     1       2.071   3.629  18.828  0.00  0.00    +0.000 A 
ATOM     10  C   UNL     1       1.013   3.678  19.803  0.00  0.00    +0.000 A 
ATOM     11  C   UNL     1       0.921   4.747  20.707  0.00  0.00    +0.000 A 
ATOM     12  C   UNL     1       1.864   5.761  20.685  0.00  0.00    +0.000 A 
ATOM     13  C   UNL     1       2.899   5.705  19.776  0.00  0.00    +0.000 A 
ATOM     14  C   UNL     1       3.031   4.635  18.832  0.00  0.00    +0.000 A 
ATOM     15  H   UNL     1       6.277   3.516  18.670  0.00  0.00    +0.000 HD
ENDROOT
BRANCH   1  19
ATOM     16  C   UNL     1       7.482   4.812  11.740  0.00  0.00    +0.000 A 
ATOM     17  C   UNL     1       6.605   3.802  11.893  0.00  0.00    +0.000 A 
ATOM     18  C   UNL     1       6.165   3.434  13.149  0.00  0.00    +0.000 A 
ATOM     19  C   UNL     1       6.534   4.055  14.448  0.00  0.00    +0.000 A 
ATOM     20  C   UNL     1       7.469   5.137  14.212  0.00  0.00    +0.000 A 
ATOM     21  C   UNL     1       7.912   5.495  12.883  0.00  0.00    +0.000 A 
ENDBRANCH   1  19
TORSDOF 1
ENDMDL
MODEL 4
REMARK VINA RESULT:      -8.2      1.877      3.553
REMARK  Name = 
REMARK  1 active torsions:
REMARK  status: ('A' for Active; 'I' for Inactive)
REMARK    1  A    between atoms: C_4  and  C_5
REMARK                            x       y       z     vdW  Elec       q    Type
REMARK                         _______ _______ _______ _____ _____    ______ ____
ROOT
ATOM      1  C   UNL     1       2.279   7.695  19.052  0.00  0.00    +0.000 C 
ATOM      2  C   UNL     1       2.350   8.571  17.787  0.00  0.00    +0.000 C 
ATOM      3  N   UNL     1       1.947   9.940  17.860  0.00  0.00    +0.000 NA
ATOM      4  C   UNL     1       0.507   9.933  18.123  0.00  0.00    +0.000 C 
ATOM      5  C   UNL     1       0.356   9.610  19.540  0.00  0.00    +0.000 A 
ATOM      6  C   UNL     1       1.245   8.583  20.087  0.00  0.00    +0.000 A 
ATOM      7  C   UNL     1       1.359   8.760  21.517  0.00  0.00    +0.000 A 
ATOM      8  C   UNL     1       0.602   9.733  22.282  0.00  0.00    +0.000 A 
ATOM      9  C   UNL     1      -0.348  10.582  21.671  0.00  0.00    +0.000 A 
ATOM     10  C   UNL     1      -1.141  11.548  22.387  0.00  0.00    +0.000 A 
ATOM     11  C   UNL     1      -2.060  12.364  21.710  0.00  0.00    +0.000 A 
ATOM     12  C   UNL     1      -2.200  12.264  20.335  0.00  0.00    +0.000 A 
ATOM     13  C   UNL     1      -1.420  11.365  19.639  0.00  0.00    +0.000 A 
ATOM     14  C   UNL     1      -0.472  10.509  20.288  0.00  0.00    +0.000 A 
ATOM     15  H   UNL     1       2.512  10.446  18.585  0.00  0.00    +0.000 HD
ENDROOT
BRANCH   1  19
ATOM     16  C   UNL     1       3.342   3.588  17.082  0.00  0.00    +0.000 A 
ATOM     17  C   UNL     1       4.238   4.586  17.194  0.00  0.00    +0.000 A 
ATOM     18  C   UNL     1       3.873   5.807  17.727  0.00  0.00    +0.000 A 
ATOM     19  C   UNL     1       2.538   6.194  18.251  0.00  0.00    +0.000 A 
ATOM     20  C   UNL     1       1.626   5.076  18.111  0.00  0.00    +0.000 A 
ATOM     21  C   UNL     1       2.040   3.811  17.546  0.00  0.00    +0.000 A 
ENDBRANCH   1  19
TORSDOF 1
ENDMDL
MODEL 5
REMARK VINA RESULT:      -8.1      3.406      5.439
REMARK  Name = 
REMARK  1 active torsions:
REMARK  status: ('A' for Active; 'I' for Inactive)
REMARK    1  A    between atoms: C_4  and  C_5
REMARK                            x       y       z     vdW  Elec       q    Type
REMARK                         _______ _______ _______ _____ _____    ______ ____
ROOT
ATOM      1  C   UNL     1       5.777   3.800  15.991  0.00  0.00    +0.000 C 
ATOM      2  C   UNL     1       6.248   5.148  16.571  0.00  0.00    +0.000 C 
ATOM      3  N   UNL     1       5.878   5.503  17.905  0.00  0.00    +0.000 NA
ATOM      4  C   UNL     1       4.426   5.686  17.896  0.00  0.00    +0.000 C 
ATOM      5  C   UNL     1       3.848   4.344  17.885  0.00  0.00    +0.000 A 
ATOM      6  C   UNL     1       4.505   3.344  17.040  0.00  0.00    +0.000 A 
ATOM      7  C   UNL     1       4.189   2.022  17.530  0.00  0.00    +0.000 A 
ATOM      8  C   UNL     1       3.265   1.752  18.616  0.00  0.00    +0.000 A 
ATOM      9  C   UNL     1       2.565   2.790  19.271  0.00  0.00    +0.000 A 
ATOM     10  C   UNL     1       1.620   2.575  20.336  0.00  0.00    +0.000 A 
ATOM     11  C   UNL     1       0.969   3.658  20.945  0.00  0.00    +0.000 A 
ATOM     12  C   UNL     1       1.245   4.954  20.541  0.00  0.00    +0.000 A 
ATOM     13  C   UNL     1       2.173   5.170  19.544  0.00  0.00    +0.000 A 
ATOM     14  C   UNL     1       2.859   4.095  18.892  0.00  0.00    +0.000 A 
ATOM     15  H   UNL     1       6.214   4.773  18.580  0.00  0.00    +0.000 HD
ENDROOT
BRANCH   1  19
ATOM     16  C   UNL     1       7.386   4.670  11.686  0.00  0.00    +0.000 A 
ATOM     17  C   UNL     1       7.916   5.245  12.781  0.00  0.00    +0.000 A 
ATOM     18  C   UNL     1       7.377   5.012  14.032  0.00  0.00    +0.000 A 
ATOM     19  C   UNL     1       6.223   4.135  14.363  0.00  0.00    +0.000 A 
ATOM     20  C   UNL     1       5.708   3.543  13.145  0.00  0.00    +0.000 A 
ATOM     21  C   UNL     1       6.295   3.810  11.850  0.00  0.00    +0.000 A 
ENDBRANCH   1  19
TORSDOF 1
ENDMDL
MODEL 6
REMARK VINA RESULT:      -8.0      1.961      6.807
REMARK  Name = 
REMARK  1 active torsions:
REMARK  status: ('A' for Active; 'I' for Inactive)
REMARK    1  A    between atoms: C_4  and  C_5
REMARK                            x       y       z     vdW  Elec       q    Type
REMARK                         _______ _______ _______ _____ _____    ______ ____
ROOT
ATOM      1  C   UNL     1       1.471   9.167  18.906  0.00  0.00    +0.000 C 
ATOM      2  C   UNL     1       1.113   9.068  20.402  0.00  0.00    +0.000 C 
ATOM      3  N   UNL     1       1.799   8.122  21.224  0.00  0.00    +0.000 NA
ATOM      4  C   UNL     1       1.405   6.796  20.746  0.00  0.00    +0.000 C 
ATOM      5  C   UNL     1       2.159   6.568  19.516  0.00  0.00    +0.000 A 
ATOM      6  C   UNL     1       2.306   7.705  18.605  0.00  0.00    +0.000 A 
ATOM      7  C   UNL     1       3.467   7.502  17.769  0.00  0.00    +0.000 A 
ATOM      8  C   UNL     1       4.273   6.294  17.768  0.00  0.00    +0.000 A 
ATOM      9  C   UNL     1       3.953   5.188  18.587  0.00  0.00    +0.000 A 
ATOM     10  C   UNL     1       4.704   3.959  18.608  0.00  0.00    +0.000 A 
ATOM     11  C   UNL     1       4.331   2.906  19.455  0.00  0.00    +0.000 A 
ATOM     12  C   UNL     1       3.243   3.044  20.302  0.00  0.00    +0.000 A 
ATOM     13  C   UNL     1       2.539   4.230  20.312  0.00  0.00    +0.000 A 
ATOM     14  C   UNL     1       2.881   5.331  19.461  0.00  0.00    +0.000 A 
ATOM     15  H   UNL     1       2.833   8.299  21.193  0.00  0.00    +0.000 HD
ENDROOT
BRANCH   1  19
ATOM     16  C   UNL     1      -2.403  11.526  17.765  0.00  0.00    +0.000 A 
ATOM     17  C   UNL     1      -2.152  10.288  17.301  0.00  0.00    +0.000 A 
ATOM     18  C   UNL     1      -0.970   9.644  17.610  0.00  0.00    +0.000 A 
ATOM     19  C   UNL     1       0.135  10.156  18.462  0.00  0.00    +0.000 A 
ATOM     20  C   UNL     1      -0.202  11.484  18.935  0.00  0.00    +0.000 A 
ATOM     21  C   UNL     1      -1.449  12.131  18.590  0.00  0.00    +0.000 A 
ENDBRANCH   1  19
TORSDOF 1
ENDMDL
MODEL 7
REMARK VINA RESULT:      -8.0      1.921      6.797
REMARK  Name = 
REMARK  1 active torsions:
REMARK  status: ('A' for Active; 'I' for Inactive)
REMARK    1  A    between atoms: C_4  and  C_5
REMARK                            x       y       z     vdW  Elec       q    Type
REMARK                         _______ _______ _______ _____ _____    ______ ____
ROOT
ATOM      1  C   UNL     1       2.042   8.550  18.850  0.00  0.00    +0.000 C 
ATOM      2  C   UNL     1       1.593   8.243  20.291  0.00  0.00    +0.000 C 
ATOM      3  N   UNL     1       2.013   7.025  20.910  0.00  0.00    +0.000 NA
ATOM      4  C   UNL     1       1.365   5.941  20.169  0.00  0.00    +0.000 C 
ATOM      5  C   UNL     1       2.116   5.795  18.925  0.00  0.00    +0.000 A 
ATOM      6  C   UNL     1       2.554   7.027  18.264  0.00  0.00    +0.000 A 
ATOM      7  C   UNL     1       3.685   6.737  17.413  0.00  0.00    +0.000 A 
ATOM      8  C   UNL     1       4.208   5.405  17.174  0.00  0.00    +0.000 A 
ATOM      9  C   UNL     1       3.613   4.259  17.749  0.00  0.00    +0.000 A 
ATOM     10  C   UNL     1       4.077   2.914  17.525  0.00  0.00    +0.000 A 
ATOM     11  C   UNL     1       3.440   1.826  18.139  0.00  0.00    +0.000 A 
ATOM     12  C   UNL     1       2.365   2.035  18.988  0.00  0.00    +0.000 A 
ATOM     13  C   UNL     1       1.936   3.322  19.233  0.00  0.00    +0.000 A 
ATOM     14  C   UNL     1       2.554   4.464  18.626  0.00  0.00    +0.000 A 
ATOM     15  H   UNL     1       3.060   6.969  20.923  0.00  0.00    +0.000 HD
ENDROOT
BRANCH   1  19
ATOM     16  C   UNL     1      -1.157  11.921  18.322  0.00  0.00    +0.000 A 
ATOM     17  C   UNL     1      -1.369  10.658  17.910  0.00  0.00    +0.000 A 
ATOM     18  C   UNL     1      -0.380   9.701  18.027  0.00  0.00    +0.000 A 
ATOM     19  C   UNL     1       0.978   9.880  18.605  0.00  0.00    +0.000 A 
ATOM     20  C   UNL     1       1.136  11.255  19.036  0.00  0.00    +0.000 A 
ATOM     21  C   UNL     1       0.080  12.233  18.897  0.00  0.00    +0.000 A 
ENDBRANCH   1  19
TORSDOF 1
ENDMDL
MODEL 8
REMARK VINA RESULT:      -8.0      2.366      4.598
REMARK  Name = 
REMARK  1 active torsions:
REMARK  status: ('A' for Active; 'I' for Inactive)
REMARK    1  A    between atoms: C_4  and  C_5
REMARK                            x       y       z     vdW  Elec       q    Type
REMARK                         _______ _______ _______ _____ _____    ______ ____
ROOT
ATOM      1  C   UNL     1       5.934   4.363  16.118  0.00  0.00    +0.000 C 
ATOM      2  C   UNL     1       6.705   5.655  16.451  0.00  0.00    +0.000 C 
ATOM      3  N   UNL     1       6.429   6.339  17.675  0.00  0.00    +0.000 NA
ATOM      4  C   UNL     1       5.058   6.841  17.568  0.00  0.00    +0.000 C 
ATOM      5  C   UNL     1       4.186   5.690  17.787  0.00  0.00    +0.000 A 
ATOM      6  C   UNL     1       4.593   4.422  17.179  0.00  0.00    +0.000 A 
ATOM      7  C   UNL     1       3.981   3.327  17.897  0.00  0.00    +0.000 A 
ATOM      8  C   UNL     1       3.021   3.492  18.973  0.00  0.00    +0.000 A 
ATOM      9  C   UNL     1       2.581   4.769  19.387  0.00  0.00    +0.000 A 
ATOM     10  C   UNL     1       1.613   4.987  20.431  0.00  0.00    +0.000 A 
ATOM     11  C   UNL     1       1.231   6.287  20.794  0.00  0.00    +0.000 A 
ATOM     12  C   UNL     1       1.798   7.382  20.162  0.00  0.00    +0.000 A 
ATOM     13  C   UNL     1       2.749   7.182  19.184  0.00  0.00    +0.000 A 
ATOM     14  C   UNL     1       3.168   5.873  18.779  0.00  0.00    +0.000 A 
ATOM     15  H   UNL     1       6.588   5.698  18.490  0.00  0.00    +0.000 HD
ENDROOT
BRANCH   1  19
ATOM     16  C   UNL     1       6.916   4.091  11.553  0.00  0.00    +0.000 A 
ATOM     17  C   UNL     1       5.972   3.327  12.132  0.00  0.00    +0.000 A 
ATOM     18  C   UNL     1       5.749   3.391  13.494  0.00  0.00    +0.000 A 
ATOM     19  C   UNL     1       6.443   4.263  14.477  0.00  0.00    +0.000 A 
ATOM     20  C   UNL     1       7.437   5.063  13.789  0.00  0.00    +0.000 A 
ATOM     21  C   UNL     1       7.646   4.971  12.361  0.00  0.00    +0.000 A 
ENDBRANCH   1  19
TORSDOF 1
ENDMDL
MODEL 9
REMARK VINA RESULT:      -8.0      2.601      4.845
REMARK  Name = 
REMARK  1 active torsions:
REMARK  status: ('A' for Active; 'I' for Inactive)
REMARK    1  A    between atoms: C_4  and  C_5
REMARK                            x       y       z     vdW  Elec       q    Type
REMARK                         _______ _______ _______ _____ _____    ______ ____
ROOT
ATOM      1  C   UNL     1       5.598   3.982  15.878  0.00  0.00    +0.000 C 
ATOM      2  C   UNL     1       6.530   5.069  16.447  0.00  0.00    +0.000 C 
ATOM      3  N   UNL     1       6.324   5.539  17.781  0.00  0.00    +0.000 NA
ATOM      4  C   UNL     1       5.037   6.236  17.779  0.00  0.00    +0.000 C 
ATOM      5  C   UNL     1       4.012   5.195  17.779  0.00  0.00    +0.000 A 
ATOM      6  C   UNL     1       4.255   4.021  16.938  0.00  0.00    +0.000 A 
ATOM      7  C   UNL     1       3.486   2.905  17.438  0.00  0.00    +0.000 A 
ATOM      8  C   UNL     1       2.535   2.992  18.530  0.00  0.00    +0.000 A 
ATOM      9  C   UNL     1       2.263   4.216  19.183  0.00  0.00    +0.000 A 
ATOM     10  C   UNL     1       1.313   4.362  20.255  0.00  0.00    +0.000 A 
ATOM     11  C   UNL     1       1.103   5.610  20.861  0.00  0.00    +0.000 A 
ATOM     12  C   UNL     1       1.827   6.717  20.447  0.00  0.00    +0.000 A 
ATOM     13  C   UNL     1       2.762   6.578  19.443  0.00  0.00    +0.000 A 
ATOM     14  C   UNL     1       3.007   5.324  18.794  0.00  0.00    +0.000 A 
ATOM     15  H   UNL     1       6.377   4.739  18.458  0.00  0.00    +0.000 HD
ENDROOT
BRANCH   1  19
ATOM     16  C   UNL     1       7.413   4.383  11.586  0.00  0.00    +0.000 A 
ATOM     17  C   UNL     1       7.827   5.145  12.616  0.00  0.00    +0.000 A 
ATOM     18  C   UNL     1       7.227   5.042  13.856  0.00  0.00    +0.000 A 
ATOM     19  C   UNL     1       6.123   4.125  14.246  0.00  0.00    +0.000 A 
ATOM     20  C   UNL     1       5.734   3.330  13.098  0.00  0.00    +0.000 A 
ATOM     21  C   UNL     1       6.382   3.465  11.812  0.00  0.00    +0.000 A 
ENDBRANCH   1  19
TORSDOF 1
ENDMDL
