MODEL 1
REMARK VINA RESULT:      -7.5      0.000      0.000
REMARK  Name = 
REMARK  12 active torsions:
REMARK  status: ('A' for Active; 'I' for Inactive)
REMARK    1  A    between atoms: C_1  and  O_2
REMARK    2  A    between atoms: O_2  and  C_3
REMARK    3  A    between atoms: C_7  and  C_8
REMARK    4  A    between atoms: C_8  and  S_9
REMARK    5  A    between atoms: S_9  and  C_11
REMARK    6  A    between atoms: C_14  and  C_15
REMARK    7  A    between atoms: C_17  and  O_18
REMARK    8  A    between atoms: O_18  and  C_19
REMARK    9  A    between atoms: C_20  and  O_21
REMARK   10  A    between atoms: O_21  and  C_22
REMARK   11  A    between atoms: C_23  and  O_24
REMARK   12  A    between atoms: O_24  and  C_25
REMARK                            x       y       z     vdW  Elec       q    Type
REMARK                         _______ _______ _______ _____ _____    ______ ____
ROOT
ATOM      1  C   UNL     1       1.454   9.870  18.579  0.00  0.00    +0.000 A 
ATOM      2  N   UNL     1       2.133  10.025  17.459  0.00  0.00    +0.000 NA
ATOM      3  N   UNL     1       2.808   8.836  17.241  0.00  0.00    +0.000 NA
ATOM      4  C   UNL     1       2.506   8.043  18.249  0.00  0.00    +0.000 A 
ATOM      5  O   UNL     1       1.655   8.637  19.138  0.00  0.00    +0.000 OA
ENDROOT
BRANCH   4   6
ATOM      6  C   UNL     1       2.907   6.674  18.547  0.00  0.00    +0.000 A 
ATOM      7  C   UNL     1       4.073   6.145  17.989  0.00  0.00    +0.000 A 
ATOM      8  C   UNL     1       4.449   4.821  18.243  0.00  0.00    +0.000 A 
ATOM      9  C   UNL     1       3.633   3.988  19.043  0.00  0.00    +0.000 A 
ATOM     10  C   UNL     1       2.457   4.513  19.614  0.00  0.00    +0.000 A 
ATOM     11  C   UNL     1       2.126   5.856  19.374  0.00  0.00    +0.000 A 
BRANCH   8  12
ATOM     12  O   UNL     1       5.585   4.250  17.710  0.00  0.00    +0.000 OA
ATOM     13  C   UNL     1       6.817   4.890  18.025  0.00  0.00    +0.000 C 
ENDBRANCH   8  12
BRANCH   9  14
ATOM     14  O   UNL     1       4.051   2.680  19.131  0.00  0.00    +0.000 OA
ATOM     15  C   UNL     1       3.443   1.728  18.267  0.00  0.00    +0.000 C 
ENDBRANCH   9  14
BRANCH  10  16
ATOM     16  O   UNL     1       1.660   3.681  20.356  0.00  0.00    +0.000 OA
ATOM     17  C   UNL     1       2.041   3.400  21.699  0.00  0.00    +0.000 C 
ENDBRANCH  10  16
ENDBRANCH   4   6
BRANCH   1  18
ATOM     18  S   UNL     1       0.450  11.073  19.326  0.00  0.00    +0.000 S 
ATOM     19  O   UNL     1       1.068  11.350  20.747  0.00  0.00    +0.000 OA
BRANCH  18  20
ATOM     20  C   UNL     1      -1.075  10.103  19.473  0.00  0.00    +0.000 C 
BRANCH  20  25
ATOM     21  C   UNL     1      -2.722  10.229  16.028  0.00  0.00    +0.000 A 
ATOM     22  C   UNL     1      -3.750  11.144  16.263  0.00  0.00    +0.000 A 
ATOM     23  C   UNL     1      -3.926  11.707  17.526  0.00  0.00    +0.000 A 
ATOM     24  C   UNL     1      -3.068  11.358  18.567  0.00  0.00    +0.000 A 
ATOM     25  C   UNL     1      -2.036  10.433  18.356  0.00  0.00    +0.000 A 
ATOM     26  C   UNL     1      -1.871   9.872  17.078  0.00  0.00    +0.000 A 
BRANCH  21  28
ATOM     27  C   UNL     1      -3.758  10.042  13.895  0.00  0.00    +0.000 C 
ATOM     28  O   UNL     1      -2.648   9.774  14.740  0.00  0.00    +0.000 OA
ENDBRANCH  21  28
ENDBRANCH  20  25
ENDBRANCH  18  20
ENDBRANCH   1  18
TORSDOF 8
ENDMDL
MODEL 2
REMARK VINA RESULT:      -7.5      6.119      9.402
REMARK  Name = 
REMARK  12 active torsions:
REMARK  status: ('A' for Active; 'I' for Inactive)
REMARK    1  A    between atoms: C_1  and  O_2
REMARK    2  A    between atoms: O_2  and  C_3
REMARK    3  A    between atoms: C_7  and  C_8
REMARK    4  A    between atoms: C_8  and  S_9
REMARK    5  A    between atoms: S_9  and  C_11
REMARK    6  A    between atoms: C_14  and  C_15
REMARK    7  A    between atoms: C_17  and  O_18
REMARK    8  A    between atoms: O_18  and  C_19
REMARK    9  A    between atoms: C_20  and  O_21
REMARK   10  A    between atoms: O_21  and  C_22
REMARK   11  A    between atoms: C_23  and  O_24
REMARK   12  A    between atoms: O_24  and  C_25
REMARK                            x       y       z     vdW  Elec       q    Type
REMARK                         _______ _______ _______ _____ _____    ______ ____
ROOT
ATOM      1  C   UNL     1       7.590   6.852  18.067  0.00  0.00    +0.000 A 
ATOM      2  N   UNL     1       7.066   7.471  17.028  0.00  0.00    +0.000 NA
ATOM      3  N   UNL     1       7.546   8.769  17.060  0.00  0.00    +0.000 NA
ATOM      4  C   UNL     1       8.317   8.858  18.125  0.00  0.00    +0.000 A 
ATOM      5  O   UNL     1       8.386   7.679  18.813  0.00  0.00    +0.000 OA
ENDROOT
BRANCH   4   6
ATOM      6  C   UNL     1       9.095   9.968  18.657  0.00  0.00    +0.000 A 
ATOM      7  C   UNL     1      10.038  10.616  17.854  0.00  0.00    +0.000 A 
ATOM      8  C   UNL     1      10.813  11.662  18.366  0.00  0.00    +0.000 A 
ATOM      9  C   UNL     1      10.677  12.056  19.718  0.00  0.00    +0.000 A 
ATOM     10  C   UNL     1       9.726  11.413  20.535  0.00  0.00    +0.000 A 
ATOM     11  C   UNL     1       8.935  10.394  19.983  0.00  0.00    +0.000 A 
BRANCH   8  12
ATOM     12  O   UNL     1      11.761  12.327  17.618  0.00  0.00    +0.000 OA
ATOM     13  C   UNL     1      11.271  13.313  16.715  0.00  0.00    +0.000 C 
ENDBRANCH   8  12
BRANCH   9  14
ATOM     14  O   UNL     1      11.568  13.020  20.132  0.00  0.00    +0.000 OA
ATOM     15  C   UNL     1      11.083  14.346  20.302  0.00  0.00    +0.000 C 
ENDBRANCH   9  14
BRANCH  10  16
ATOM     16  O   UNL     1       9.635  11.784  21.851  0.00  0.00    +0.000 OA
ATOM     17  C   UNL     1       8.344  11.839  22.449  0.00  0.00    +0.000 C 
ENDBRANCH  10  16
ENDBRANCH   4   6
BRANCH   1  18
ATOM     18  S   UNL     1       7.298   5.200  18.513  0.00  0.00    +0.000 S 
ATOM     19  O   UNL     1       8.458   4.352  17.874  0.00  0.00    +0.000 OA
BRANCH  18  20
ATOM     20  C   UNL     1       5.747   4.943  17.609  0.00  0.00    +0.000 C 
BRANCH  20  25
ATOM     21  C   UNL     1       3.124   4.036  20.234  0.00  0.00    +0.000 A 
ATOM     22  C   UNL     1       2.287   5.151  20.165  0.00  0.00    +0.000 A 
ATOM     23  C   UNL     1       2.572   6.199  19.292  0.00  0.00    +0.000 A 
ATOM     24  C   UNL     1       3.700   6.137  18.475  0.00  0.00    +0.000 A 
ATOM     25  C   UNL     1       4.558   5.031  18.537  0.00  0.00    +0.000 A 
ATOM     26  C   UNL     1       4.261   3.981  19.424  0.00  0.00    +0.000 A 
BRANCH  21  28
ATOM     27  C   UNL     1       1.319   2.818  21.193  0.00  0.00    +0.000 C 
ATOM     28  O   UNL     1       2.715   3.071  21.114  0.00  0.00    +0.000 OA
ENDBRANCH  21  28
ENDBRANCH  20  25
ENDBRANCH  18  20
ENDBRANCH   1  18
TORSDOF 8
ENDMDL
MODEL 3
REMARK VINA RESULT:      -7.4      0.872      2.475
REMARK  Name = 
REMARK  12 active torsions:
REMARK  status: ('A' for Active; 'I' for Inactive)
REMARK    1  A    between atoms: C_1  and  O_2
REMARK    2  A    between atoms: O_2  and  C_3
REMARK    3  A    between atoms: C_7  and  C_8
REMARK    4  A    between atoms: C_8  and  S_9
REMARK    5  A    between atoms: S_9  and  C_11
REMARK    6  A    between atoms: C_14  and  C_15
REMARK    7  A    between atoms: C_17  and  O_18
REMARK    8  A    between atoms: O_18  and  C_19
REMARK    9  A    between atoms: C_20  and  O_21
REMARK   10  A    between atoms: O_21  and  C_22
REMARK   11  A    between atoms: C_23  and  O_24
REMARK   12  A    between atoms: O_24  and  C_25
REMARK                            x       y       z     vdW  Elec       q    Type
REMARK                         _______ _______ _______ _____ _____    ______ ____
ROOT
ATOM      1  C   UNL     1       1.389   9.580  19.095  0.00  0.00    +0.000 A 
ATOM      2  N   UNL     1       1.814   9.834  17.873  0.00  0.00    +0.000 NA
ATOM      3  N   UNL     1       2.431   8.680  17.422  0.00  0.00    +0.000 NA
ATOM      4  C   UNL     1       2.355   7.806  18.405  0.00  0.00    +0.000 A 
ATOM      5  O   UNL     1       1.711   8.311  19.499  0.00  0.00    +0.000 OA
ENDROOT
BRANCH   4   6
ATOM      6  C   UNL     1       2.816   6.427  18.502  0.00  0.00    +0.000 A 
ATOM      7  C   UNL     1       2.151   5.519  19.331  0.00  0.00    +0.000 A 
ATOM      8  C   UNL     1       2.606   4.202  19.456  0.00  0.00    +0.000 A 
ATOM      9  C   UNL     1       3.769   3.780  18.769  0.00  0.00    +0.000 A 
ATOM     10  C   UNL     1       4.444   4.686  17.928  0.00  0.00    +0.000 A 
ATOM     11  C   UNL     1       3.942   5.990  17.792  0.00  0.00    +0.000 A 
BRANCH   8  12
ATOM     12  O   UNL     1       1.991   3.271  20.266  0.00  0.00    +0.000 OA
ATOM     13  C   UNL     1       2.102   3.488  21.669  0.00  0.00    +0.000 C 
ENDBRANCH   8  12
BRANCH   9  14
ATOM     14  O   UNL     1       4.177   2.497  19.056  0.00  0.00    +0.000 OA
ATOM     15  C   UNL     1       3.681   1.443  18.242  0.00  0.00    +0.000 C 
ENDBRANCH   9  14
BRANCH  10  16
ATOM     16  O   UNL     1       5.589   4.270  17.300  0.00  0.00    +0.000 OA
ATOM     17  C   UNL     1       6.782   5.018  17.504  0.00  0.00    +0.000 C 
ENDBRANCH  10  16
ENDBRANCH   4   6
BRANCH   1  18
ATOM     18  S   UNL     1       0.563  10.700  20.132  0.00  0.00    +0.000 S 
ATOM     19  O   UNL     1      -0.632   9.908  20.783  0.00  0.00    +0.000 OA
BRANCH  18  20
ATOM     20  C   UNL     1      -0.047  11.846  18.866  0.00  0.00    +0.000 C 
BRANCH  20  25
ATOM     21  C   UNL     1      -2.985  10.381  16.913  0.00  0.00    +0.000 A 
ATOM     22  C   UNL     1      -4.062  10.937  17.605  0.00  0.00    +0.000 A 
ATOM     23  C   UNL     1      -3.849  11.767  18.704  0.00  0.00    +0.000 A 
ATOM     24  C   UNL     1      -2.549  12.048  19.121  0.00  0.00    +0.000 A 
ATOM     25  C   UNL     1      -1.454  11.491  18.447  0.00  0.00    +0.000 A 
ATOM     26  C   UNL     1      -1.683  10.655  17.340  0.00  0.00    +0.000 A 
BRANCH  21  28
ATOM     27  C   UNL     1      -3.011  10.106  14.550  0.00  0.00    +0.000 C 
ATOM     28  O   UNL     1      -3.335   9.607  15.841  0.00  0.00    +0.000 OA
ENDBRANCH  21  28
ENDBRANCH  20  25
ENDBRANCH  18  20
ENDBRANCH   1  18
TORSDOF 8
ENDMDL
MODEL 4
REMARK VINA RESULT:      -7.4      1.582      3.050
REMARK  Name = 
REMARK  12 active torsions:
REMARK  status: ('A' for Active; 'I' for Inactive)
REMARK    1  A    between atoms: C_1  and  O_2
REMARK    2  A    between atoms: O_2  and  C_3
REMARK    3  A    between atoms: C_7  and  C_8
REMARK    4  A    between atoms: C_8  and  S_9
REMARK    5  A    between atoms: S_9  and  C_11
REMARK    6  A    between atoms: C_14  and  C_15
REMARK    7  A    between atoms: C_17  and  O_18
REMARK    8  A    between atoms: O_18  and  C_19
REMARK    9  A    between atoms: C_20  and  O_21
REMARK   10  A    between atoms: O_21  and  C_22
REMARK   11  A    between atoms: C_23  and  O_24
REMARK   12  A    between atoms: O_24  and  C_25
REMARK                            x       y       z     vdW  Elec       q    Type
REMARK                         _______ _______ _______ _____ _____    ______ ____
ROOT
ATOM      1  C   UNL     1       1.520   9.377  19.023  0.00  0.00    +0.000 A 
ATOM      2  N   UNL     1       1.991   9.540  17.802  0.00  0.00    +0.000 NA
ATOM      3  N   UNL     1       2.608   8.350  17.457  0.00  0.00    +0.000 NA
ATOM      4  C   UNL     1       2.485   7.548  18.496  0.00  0.00    +0.000 A 
ATOM      5  O   UNL     1       1.810   8.138  19.527  0.00  0.00    +0.000 OA
ENDROOT
BRANCH   4   6
ATOM      6  C   UNL     1       2.924   6.175  18.707  0.00  0.00    +0.000 A 
ATOM      7  C   UNL     1       2.012   5.201  19.121  0.00  0.00    +0.000 A 
ATOM      8  C   UNL     1       2.431   3.887  19.358  0.00  0.00    +0.000 A 
ATOM      9  C   UNL     1       3.793   3.534  19.214  0.00  0.00    +0.000 A 
ATOM     10  C   UNL     1       4.720   4.508  18.792  0.00  0.00    +0.000 A 
ATOM     11  C   UNL     1       4.264   5.808  18.524  0.00  0.00    +0.000 A 
BRANCH   8  12
ATOM     12  O   UNL     1       1.573   2.891  19.776  0.00  0.00    +0.000 OA
ATOM     13  C   UNL     1       0.673   2.385  18.795  0.00  0.00    +0.000 C 
ENDBRANCH   8  12
BRANCH   9  14
ATOM     14  O   UNL     1       4.099   2.242  19.579  0.00  0.00    +0.000 OA
ATOM     15  C   UNL     1       4.038   1.236  18.577  0.00  0.00    +0.000 C 
ENDBRANCH   9  14
BRANCH  10  16
ATOM     16  O   UNL     1       6.041   4.157  18.694  0.00  0.00    +0.000 OA
ATOM     17  C   UNL     1       6.751   4.523  17.516  0.00  0.00    +0.000 C 
ENDBRANCH  10  16
ENDBRANCH   4   6
BRANCH   1  18
ATOM     18  S   UNL     1       0.672  10.577  19.948  0.00  0.00    +0.000 S 
ATOM     19  O   UNL     1      -0.507   9.830  20.675  0.00  0.00    +0.000 OA
BRANCH  18  20
ATOM     20  C   UNL     1       0.040  11.583  18.577  0.00  0.00    +0.000 C 
BRANCH  20  25
ATOM     21  C   UNL     1      -3.780  11.559  18.542  0.00  0.00    +0.000 A 
ATOM     22  C   UNL     1      -4.027  10.451  17.730  0.00  0.00    +0.000 A 
ATOM     23  C   UNL     1      -2.973   9.722  17.182  0.00  0.00    +0.000 A 
ATOM     24  C   UNL     1      -1.657  10.098  17.445  0.00  0.00    +0.000 A 
ATOM     25  C   UNL     1      -1.387  11.214  18.249  0.00  0.00    +0.000 A 
ATOM     26  C   UNL     1      -2.460  11.942  18.795  0.00  0.00    +0.000 A 
BRANCH  21  28
ATOM     27  C   UNL     1      -6.093  11.391  19.071  0.00  0.00    +0.000 C 
ATOM     28  O   UNL     1      -4.903  12.166  19.034  0.00  0.00    +0.000 OA
ENDBRANCH  21  28
ENDBRANCH  20  25
ENDBRANCH  18  20
ENDBRANCH   1  18
TORSDOF 8
ENDMDL
MODEL 5
REMARK VINA RESULT:      -7.3      6.507      9.812
REMARK  Name = 
REMARK  12 active torsions:
REMARK  status: ('A' for Active; 'I' for Inactive)
REMARK    1  A    between atoms: C_1  and  O_2
REMARK    2  A    between atoms: O_2  and  C_3
REMARK    3  A    between atoms: C_7  and  C_8
REMARK    4  A    between atoms: C_8  and  S_9
REMARK    5  A    between atoms: S_9  and  C_11
REMARK    6  A    between atoms: C_14  and  C_15
REMARK    7  A    between atoms: C_17  and  O_18
REMARK    8  A    between atoms: O_18  and  C_19
REMARK    9  A    between atoms: C_20  and  O_21
REMARK   10  A    between atoms: O_21  and  C_22
REMARK   11  A    between atoms: C_23  and  O_24
REMARK   12  A    between atoms: O_24  and  C_25
REMARK                            x       y       z     vdW  Elec       q    Type
REMARK                         _______ _______ _______ _____ _____    ______ ____
ROOT
ATOM      1  C   UNL     1       7.940   7.164  18.204  0.00  0.00    +0.000 A 
ATOM      2  N   UNL     1       7.232   7.781  17.279  0.00  0.00    +0.000 NA
ATOM      3  N   UNL     1       7.608   9.113  17.318  0.00  0.00    +0.000 NA
ATOM      4  C   UNL     1       8.508   9.221  18.274  0.00  0.00    +0.000 A 
ATOM      5  O   UNL     1       8.763   8.024  18.882  0.00  0.00    +0.000 OA
ENDROOT
BRANCH   4   6
ATOM      6  C   UNL     1       9.262  10.369  18.758  0.00  0.00    +0.000 A 
ATOM      7  C   UNL     1      10.224  10.974  17.944  0.00  0.00    +0.000 A 
ATOM      8  C   UNL     1      10.976  12.057  18.411  0.00  0.00    +0.000 A 
ATOM      9  C   UNL     1      10.797  12.533  19.731  0.00  0.00    +0.000 A 
ATOM     10  C   UNL     1       9.828  11.934  20.559  0.00  0.00    +0.000 A 
ATOM     11  C   UNL     1       9.061  10.875  20.049  0.00  0.00    +0.000 A 
BRANCH   8  12
ATOM     12  O   UNL     1      11.941  12.682  17.651  0.00  0.00    +0.000 OA
ATOM     13  C   UNL     1      11.472  13.453  16.550  0.00  0.00    +0.000 C 
ENDBRANCH   8  12
BRANCH   9  14
ATOM     14  O   UNL     1      11.669  13.530  20.110  0.00  0.00    +0.000 OA
ATOM     15  C   UNL     1      11.179  14.864  20.147  0.00  0.00    +0.000 C 
ENDBRANCH   9  14
BRANCH  10  16
ATOM     16  O   UNL     1       9.694  12.386  21.846  0.00  0.00    +0.000 OA
ATOM     17  C   UNL     1       8.590  11.922  22.614  0.00  0.00    +0.000 C 
ENDBRANCH  10  16
ENDBRANCH   4   6
BRANCH   1  18
ATOM     18  S   UNL     1       7.842   5.476  18.595  0.00  0.00    +0.000 S 
ATOM     19  O   UNL     1       7.713   4.708  17.228  0.00  0.00    +0.000 OA
BRANCH  18  20
ATOM     20  C   UNL     1       6.254   5.490  19.471  0.00  0.00    +0.000 C 
BRANCH  20  25
ATOM     21  C   UNL     1       3.651   2.867  18.499  0.00  0.00    +0.000 A 
ATOM     22  C   UNL     1       3.340   3.275  17.201  0.00  0.00    +0.000 A 
ATOM     23  C   UNL     1       3.949   4.398  16.644  0.00  0.00    +0.000 A 
ATOM     24  C   UNL     1       4.882   5.122  17.385  0.00  0.00    +0.000 A 
ATOM     25  C   UNL     1       5.201   4.735  18.694  0.00  0.00    +0.000 A 
ATOM     26  C   UNL     1       4.577   3.602  19.245  0.00  0.00    +0.000 A 
BRANCH  21  28
ATOM     27  C   UNL     1       1.617   1.863  19.217  0.00  0.00    +0.000 C 
ATOM     28  O   UNL     1       2.999   1.737  18.912  0.00  0.00    +0.000 OA
ENDBRANCH  21  28
ENDBRANCH  20  25
ENDBRANCH  18  20
ENDBRANCH   1  18
TORSDOF 8
ENDMDL
MODEL 6
REMARK VINA RESULT:      -7.3      1.785      3.099
REMARK  Name = 
REMARK  12 active torsions:
REMARK  status: ('A' for Active; 'I' for Inactive)
REMARK    1  A    between atoms: C_1  and  O_2
REMARK    2  A    between atoms: O_2  and  C_3
REMARK    3  A    between atoms: C_7  and  C_8
REMARK    4  A    between atoms: C_8  and  S_9
REMARK    5  A    between atoms: S_9  and  C_11
REMARK    6  A    between atoms: C_14  and  C_15
REMARK    7  A    between atoms: C_17  and  O_18
REMARK    8  A    between atoms: O_18  and  C_19
REMARK    9  A    between atoms: C_20  and  O_21
REMARK   10  A    between atoms: O_21  and  C_22
REMARK   11  A    between atoms: C_23  and  O_24
REMARK   12  A    between atoms: O_24  and  C_25
REMARK                            x       y       z     vdW  Elec       q    Type
REMARK                         _______ _______ _______ _____ _____    ______ ____
ROOT
ATOM      1  C   UNL     1       0.927  10.016  19.917  0.00  0.00    +0.000 A 
ATOM      2  N   UNL     1       0.844   9.772  21.210  0.00  0.00    +0.000 NA
ATOM      3  N   UNL     1       1.323   8.487  21.400  0.00  0.00    +0.000 NA
ATOM      4  C   UNL     1       1.651   8.029  20.209  0.00  0.00    +0.000 A 
ATOM      5  O   UNL     1       1.422   8.945  19.221  0.00  0.00    +0.000 OA
ENDROOT
BRANCH   4   6
ATOM      6  C   UNL     1       2.217   6.753  19.793  0.00  0.00    +0.000 A 
ATOM      7  C   UNL     1       2.130   5.638  20.632  0.00  0.00    +0.000 A 
ATOM      8  C   UNL     1       2.700   4.417  20.256  0.00  0.00    +0.000 A 
ATOM      9  C   UNL     1       3.403   4.302  19.034  0.00  0.00    +0.000 A 
ATOM     10  C   UNL     1       3.493   5.419  18.180  0.00  0.00    +0.000 A 
ATOM     11  C   UNL     1       2.878   6.620  18.565  0.00  0.00    +0.000 A 
BRANCH   8  12
ATOM     12  O   UNL     1       2.648   3.291  21.051  0.00  0.00    +0.000 OA
ATOM     13  C   UNL     1       1.351   2.766  21.314  0.00  0.00    +0.000 C 
ENDBRANCH   8  12
BRANCH   9  14
ATOM     14  O   UNL     1       4.009   3.084  18.827  0.00  0.00    +0.000 OA
ATOM     15  C   UNL     1       3.356   2.152  17.974  0.00  0.00    +0.000 C 
ENDBRANCH   9  14
BRANCH  10  16
ATOM     16  O   UNL     1       4.209   5.299  17.018  0.00  0.00    +0.000 OA
ATOM     17  C   UNL     1       5.547   5.785  16.995  0.00  0.00    +0.000 C 
ENDBRANCH  10  16
ENDBRANCH   4   6
BRANCH   1  18
ATOM     18  S   UNL     1       0.435  11.483  19.130  0.00  0.00    +0.000 S 
ATOM     19  O   UNL     1       1.227  12.651  19.826  0.00  0.00    +0.000 OA
BRANCH  18  20
ATOM     20  C   UNL     1      -1.304  11.498  19.644  0.00  0.00    +0.000 C 
BRANCH  20  25
ATOM     21  C   UNL     1      -4.440  11.277  17.472  0.00  0.00    +0.000 A 
ATOM     22  C   UNL     1      -3.926  10.653  16.334  0.00  0.00    +0.000 A 
ATOM     23  C   UNL     1      -2.575  10.319  16.255  0.00  0.00    +0.000 A 
ATOM     24  C   UNL     1      -1.725  10.606  17.321  0.00  0.00    +0.000 A 
ATOM     25  C   UNL     1      -2.218  11.242  18.469  0.00  0.00    +0.000 A 
ATOM     26  C   UNL     1      -3.583  11.575  18.535  0.00  0.00    +0.000 A 
BRANCH  21  28
ATOM     27  C   UNL     1      -6.185  12.861  17.150  0.00  0.00    +0.000 C 
ATOM     28  O   UNL     1      -5.784  11.526  17.427  0.00  0.00    +0.000 OA
ENDBRANCH  21  28
ENDBRANCH  20  25
ENDBRANCH  18  20
ENDBRANCH   1  18
TORSDOF 8
ENDMDL
MODEL 7
REMARK VINA RESULT:      -7.3      1.305      1.804
REMARK  Name = 
REMARK  12 active torsions:
REMARK  status: ('A' for Active; 'I' for Inactive)
REMARK    1  A    between atoms: C_1  and  O_2
REMARK    2  A    between atoms: O_2  and  C_3
REMARK    3  A    between atoms: C_7  and  C_8
REMARK    4  A    between atoms: C_8  and  S_9
REMARK    5  A    between atoms: S_9  and  C_11
REMARK    6  A    between atoms: C_14  and  C_15
REMARK    7  A    between atoms: C_17  and  O_18
REMARK    8  A    between atoms: O_18  and  C_19
REMARK    9  A    between atoms: C_20  and  O_21
REMARK   10  A    between atoms: O_21  and  C_22
REMARK   11  A    between atoms: C_23  and  O_24
REMARK   12  A    between atoms: O_24  and  C_25
REMARK                            x       y       z     vdW  Elec       q    Type
REMARK                         _______ _______ _______ _____ _____    ______ ____
ROOT
ATOM      1  C   UNL     1       1.537   9.551  18.626  0.00  0.00    +0.000 A 
ATOM      2  N   UNL     1       2.089   9.623  17.431  0.00  0.00    +0.000 NA
ATOM      3  N   UNL     1       2.750   8.423  17.229  0.00  0.00    +0.000 NA
ATOM      4  C   UNL     1       2.568   7.707  18.321  0.00  0.00    +0.000 A 
ATOM      5  O   UNL     1       1.812   8.364  19.251  0.00  0.00    +0.000 OA
ENDROOT
BRANCH   4   6
ATOM      6  C   UNL     1       3.014   6.367  18.676  0.00  0.00    +0.000 A 
ATOM      7  C   UNL     1       4.360   6.015  18.541  0.00  0.00    +0.000 A 
ATOM      8  C   UNL     1       4.793   4.720  18.848  0.00  0.00    +0.000 A 
ATOM      9  C   UNL     1       3.865   3.737  19.266  0.00  0.00    +0.000 A 
ATOM     10  C   UNL     1       2.507   4.083  19.409  0.00  0.00    +0.000 A 
ATOM     11  C   UNL     1       2.109   5.400  19.132  0.00  0.00    +0.000 A 
BRANCH   8  12
ATOM     12  O   UNL     1       6.107   4.321  18.724  0.00  0.00    +0.000 OA
ATOM     13  C   UNL     1       6.757   4.667  17.506  0.00  0.00    +0.000 C 
ENDBRANCH   8  12
BRANCH   9  14
ATOM     14  O   UNL     1       4.393   2.477  19.433  0.00  0.00    +0.000 OA
ATOM     15  C   UNL     1       4.523   1.980  20.758  0.00  0.00    +0.000 C 
ENDBRANCH   9  14
BRANCH  10  16
ATOM     16  O   UNL     1       1.618   3.108  19.779  0.00  0.00    +0.000 OA
ATOM     17  C   UNL     1       0.885   2.438  18.759  0.00  0.00    +0.000 C 
ENDBRANCH  10  16
ENDBRANCH   4   6
BRANCH   1  18
ATOM     18  S   UNL     1       0.607  10.804  19.387  0.00  0.00    +0.000 S 
ATOM     19  O   UNL     1       1.227  11.015  20.817  0.00  0.00    +0.000 OA
BRANCH  18  20
ATOM     20  C   UNL     1      -0.980   9.934  19.503  0.00  0.00    +0.000 C 
BRANCH  20  25
ATOM     21  C   UNL     1      -3.907  11.603  17.702  0.00  0.00    +0.000 A 
ATOM     22  C   UNL     1      -3.736  11.108  16.408  0.00  0.00    +0.000 A 
ATOM     23  C   UNL     1      -2.675  10.254  16.109  0.00  0.00    +0.000 A 
ATOM     24  C   UNL     1      -1.776   9.886  17.108  0.00  0.00    +0.000 A 
ATOM     25  C   UNL     1      -1.924  10.381  18.411  0.00  0.00    +0.000 A 
ATOM     26  C   UNL     1      -2.997  11.243  18.699  0.00  0.00    +0.000 A 
BRANCH  21  28
ATOM     27  C   UNL     1      -6.242  11.919  17.377  0.00  0.00    +0.000 C 
ATOM     28  O   UNL     1      -5.000  12.410  17.862  0.00  0.00    +0.000 OA
ENDBRANCH  21  28
ENDBRANCH  20  25
ENDBRANCH  18  20
ENDBRANCH   1  18
TORSDOF 8
ENDMDL
MODEL 8
REMARK VINA RESULT:      -7.3      6.179      9.426
REMARK  Name = 
REMARK  12 active torsions:
REMARK  status: ('A' for Active; 'I' for Inactive)
REMARK    1  A    between atoms: C_1  and  O_2
REMARK    2  A    between atoms: O_2  and  C_3
REMARK    3  A    between atoms: C_7  and  C_8
REMARK    4  A    between atoms: C_8  and  S_9
REMARK    5  A    between atoms: S_9  and  C_11
REMARK    6  A    between atoms: C_14  and  C_15
REMARK    7  A    between atoms: C_17  and  O_18
REMARK    8  A    between atoms: O_18  and  C_19
REMARK    9  A    between atoms: C_20  and  O_21
REMARK   10  A    between atoms: O_21  and  C_22
REMARK   11  A    between atoms: C_23  and  O_24
REMARK   12  A    between atoms: O_24  and  C_25
REMARK                            x       y       z     vdW  Elec       q    Type
REMARK                         _______ _______ _______ _____ _____    ______ ____
ROOT
ATOM      1  C   UNL     1       7.575   7.014  18.115  0.00  0.00    +0.000 A 
ATOM      2  N   UNL     1       7.114   7.648  17.055  0.00  0.00    +0.000 NA
ATOM      3  N   UNL     1       7.665   8.918  17.085  0.00  0.00    +0.000 NA
ATOM      4  C   UNL     1       8.413   8.976  18.169  0.00  0.00    +0.000 A 
ATOM      5  O   UNL     1       8.397   7.805  18.873  0.00  0.00    +0.000 OA
ENDROOT
BRANCH   4   6
ATOM      6  C   UNL     1       9.238  10.048  18.709  0.00  0.00    +0.000 A 
ATOM      7  C   UNL     1       9.075  10.463  20.034  0.00  0.00    +0.000 A 
ATOM      8  C   UNL     1       9.840  11.514  20.552  0.00  0.00    +0.000 A 
ATOM      9  C   UNL     1      10.768  12.194  19.729  0.00  0.00    +0.000 A 
ATOM     10  C   UNL     1      10.944  11.781  18.394  0.00  0.00    +0.000 A 
ATOM     11  C   UNL     1      10.190  10.699  17.913  0.00  0.00    +0.000 A 
BRANCH   8  12
ATOM     12  O   UNL     1       9.711  11.966  21.848  0.00  0.00    +0.000 OA
ATOM     13  C   UNL     1       8.382  12.066  22.349  0.00  0.00    +0.000 C 
ENDBRANCH   8  12
BRANCH   9  14
ATOM     14  O   UNL     1      11.381  13.277  20.320  0.00  0.00    +0.000 OA
ATOM     15  C   UNL     1      10.792  14.557  20.134  0.00  0.00    +0.000 C 
ENDBRANCH   9  14
BRANCH  10  16
ATOM     16  O   UNL     1      11.820  12.476  17.603  0.00  0.00    +0.000 OA
ATOM     17  C   UNL     1      11.291  13.390  16.649  0.00  0.00    +0.000 C 
ENDBRANCH  10  16
ENDBRANCH   4   6
BRANCH   1  18
ATOM     18  S   UNL     1       7.178   5.387  18.572  0.00  0.00    +0.000 S 
ATOM     19  O   UNL     1       8.324   4.471  18.002  0.00  0.00    +0.000 OA
BRANCH  18  20
ATOM     20  C   UNL     1       5.661   5.191  17.598  0.00  0.00    +0.000 C 
BRANCH  20  25
ATOM     21  C   UNL     1       2.622   6.704  19.349  0.00  0.00    +0.000 A 
ATOM     22  C   UNL     1       2.240   5.644  20.173  0.00  0.00    +0.000 A 
ATOM     23  C   UNL     1       2.945   4.442  20.157  0.00  0.00    +0.000 A 
ATOM     24  C   UNL     1       4.043   4.292  19.312  0.00  0.00    +0.000 A 
ATOM     25  C   UNL     1       4.436   5.340  18.468  0.00  0.00    +0.000 A 
ATOM     26  C   UNL     1       3.716   6.547  18.494  0.00  0.00    +0.000 A 
BRANCH  21  28
ATOM     27  C   UNL     1       1.431   8.171  20.795  0.00  0.00    +0.000 C 
ATOM     28  O   UNL     1       1.859   7.832  19.483  0.00  0.00    +0.000 OA
ENDBRANCH  21  28
ENDBRANCH  20  25
ENDBRANCH  18  20
ENDBRANCH   1  18
TORSDOF 8
ENDMDL
MODEL 9
REMARK VINA RESULT:      -7.2      1.492      2.653
REMARK  Name = 
REMARK  12 active torsions:
REMARK  status: ('A' for Active; 'I' for Inactive)
REMARK    1  A    between atoms: C_1  and  O_2
REMARK    2  A    between atoms: O_2  and  C_3
REMARK    3  A    between atoms: C_7  and  C_8
REMARK    4  A    between atoms: C_8  and  S_9
REMARK    5  A    between atoms: S_9  and  C_11
REMARK    6  A    between atoms: C_14  and  C_15
REMARK    7  A    between atoms: C_17  and  O_18
REMARK    8  A    between atoms: O_18  and  C_19
REMARK    9  A    between atoms: C_20  and  O_21
REMARK   10  A    between atoms: O_21  and  C_22
REMARK   11  A    between atoms: C_23  and  O_24
REMARK   12  A    between atoms: O_24  and  C_25
REMARK                            x       y       z     vdW  Elec       q    Type
REMARK                         _______ _______ _______ _____ _____    ______ ____
ROOT
ATOM      1  C   UNL     1       1.343   9.483  19.176  0.00  0.00    +0.000 A 
ATOM      2  N   UNL     1       1.613   9.796  17.924  0.00  0.00    +0.000 NA
ATOM      3  N   UNL     1       2.245   8.695  17.371  0.00  0.00    +0.000 NA
ATOM      4  C   UNL     1       2.331   7.792  18.328  0.00  0.00    +0.000 A 
ATOM      5  O   UNL     1       1.783   8.227  19.501  0.00  0.00    +0.000 OA
ENDROOT
BRANCH   4   6
ATOM      6  C   UNL     1       2.882   6.444  18.328  0.00  0.00    +0.000 A 
ATOM      7  C   UNL     1       2.068   5.350  18.021  0.00  0.00    +0.000 A 
ATOM      8  C   UNL     1       2.580   4.049  18.051  0.00  0.00    +0.000 A 
ATOM      9  C   UNL     1       3.924   3.818  18.427  0.00  0.00    +0.000 A 
ATOM     10  C   UNL     1       4.755   4.914  18.734  0.00  0.00    +0.000 A 
ATOM     11  C   UNL     1       4.224   6.211  18.657  0.00  0.00    +0.000 A 
BRANCH   8  12
ATOM     12  O   UNL     1       1.816   2.937  17.765  0.00  0.00    +0.000 OA
ATOM     13  C   UNL     1       0.836   2.581  18.735  0.00  0.00    +0.000 C 
ENDBRANCH   8  12
BRANCH   9  14
ATOM     14  O   UNL     1       4.279   2.492  18.524  0.00  0.00    +0.000 OA
ATOM     15  C   UNL     1       4.384   1.924  19.823  0.00  0.00    +0.000 C 
ENDBRANCH   9  14
BRANCH  10  16
ATOM     16  O   UNL     1       6.043   4.668  19.131  0.00  0.00    +0.000 OA
ATOM     17  C   UNL     1       7.084   5.466  18.578  0.00  0.00    +0.000 C 
ENDBRANCH  10  16
ENDBRANCH   4   6
BRANCH   1  18
ATOM     18  S   UNL     1       0.571  10.521  20.334  0.00  0.00    +0.000 S 
ATOM     19  O   UNL     1      -0.655   9.717  20.907  0.00  0.00    +0.000 OA
BRANCH  18  20
ATOM     20  C   UNL     1       0.009  11.822  19.203  0.00  0.00    +0.000 C 
BRANCH  20  25
ATOM     21  C   UNL     1      -3.539  11.295  17.888  0.00  0.00    +0.000 A 
ATOM     22  C   UNL     1      -4.281  11.971  18.858  0.00  0.00    +0.000 A 
ATOM     23  C   UNL     1      -3.648  12.580  19.940  0.00  0.00    +0.000 A 
ATOM     24  C   UNL     1      -2.261  12.519  20.058  0.00  0.00    +0.000 A 
ATOM     25  C   UNL     1      -1.498  11.836  19.101  0.00  0.00    +0.000 A 
ATOM     26  C   UNL     1      -2.150  11.224  18.015  0.00  0.00    +0.000 A 
BRANCH  21  28
ATOM     27  C   UNL     1      -3.689  10.741  15.579  0.00  0.00    +0.000 C 
ATOM     28  O   UNL     1      -4.284  10.765  16.870  0.00  0.00    +0.000 OA
ENDBRANCH  21  28
ENDBRANCH  20  25
ENDBRANCH  18  20
ENDBRANCH   1  18
TORSDOF 8
ENDMDL
