MODEL 1
REMARK VINA RESULT:      -7.5      0.000      0.000
REMARK  Name = 
REMARK  5 active torsions:
REMARK  status: ('A' for Active; 'I' for Inactive)
REMARK    1  A    between atoms: C_1  and  C_2
REMARK    2  A    between atoms: C_5  and  S_6
REMARK    3  A    between atoms: S_6  and  N_9
REMARK    4  A    between atoms: C_21  and  C_22
REMARK    5  A    between atoms: C_25  and  C_26
REMARK                            x       y       z     vdW  Elec       q    Type
REMARK                         _______ _______ _______ _____ _____    ______ ____
ROOT
ATOM      1  N   UNL     1      -0.738  11.748  18.771  0.00  0.00    +0.000 NA
ATOM      2  C   UNL     1      -0.842  13.210  18.430  0.00  0.00    +0.000 C 
ATOM      3  C   UNL     1      -0.156  14.082  19.533  0.00  0.00    +0.000 C 
ATOM      4  C   UNL     1       1.320  13.735  19.545  0.00  0.00    +0.000 A 
ATOM      5  C   UNL     1       1.654  12.517  18.939  0.00  0.00    +0.000 A 
ATOM      6  N   UNL     1       2.409  13.010  17.835  0.00  0.00    +0.000 N 
ATOM      7  C   UNL     1       2.747  14.356  18.050  0.00  0.00    +0.000 A 
ATOM      8  C   UNL     1       3.257  15.391  17.222  0.00  0.00    +0.000 A 
ATOM      9  C   UNL     1       3.553  16.636  17.824  0.00  0.00    +0.000 A 
ATOM     10  C   UNL     1       3.400  16.842  19.192  0.00  0.00    +0.000 A 
ATOM     11  C   UNL     1       2.766  15.865  19.961  0.00  0.00    +0.000 A 
ATOM     12  C   UNL     1       2.385  14.641  19.360  0.00  0.00    +0.000 A 
ATOM     13  C   UNL     1       0.666  11.319  19.141  0.00  0.00    +0.000 C 
ATOM     14  H   UNL     1       2.477  12.542  16.944  0.00  0.00    +0.000 HD
ENDROOT
BRANCH  13  15
ATOM     15  C   UNL     1       1.038   9.823  19.201  0.00  0.00    +0.000 A 
ATOM     16  C   UNL     1       1.641   9.230  18.050  0.00  0.00    +0.000 A 
ATOM     17  C   UNL     1       2.259   7.967  18.074  0.00  0.00    +0.000 A 
ATOM     18  C   UNL     1       2.292   7.240  19.253  0.00  0.00    +0.000 A 
ATOM     19  C   UNL     1       1.663   7.770  20.394  0.00  0.00    +0.000 A 
ATOM     20  C   UNL     1       1.041   9.047  20.365  0.00  0.00    +0.000 A 
BRANCH  18  21
ATOM     21  C   UNL     1       3.026   5.950  19.307  0.00  0.00    +0.000 C 
ATOM     22  O   UNL     1       2.816   5.109  20.170  0.00  0.00    +0.000 OA
ENDBRANCH  18  21
ENDBRANCH  13  15
BRANCH   1  23
ATOM     23  S   UNL     1      -1.836  10.727  17.981  0.00  0.00    +0.000 S 
ATOM     24  O   UNL     1      -1.985   9.464  18.664  0.00  0.00    +0.000 OA
ATOM     25  O   UNL     1      -1.514  10.777  16.569  0.00  0.00    +0.000 OA
BRANCH  23  30
ATOM     26  C   UNL     1      -7.236  13.484  18.824  0.00  0.00    +0.000 C 
ATOM     27  C   UNL     1      -5.928  12.767  18.613  0.00  0.00    +0.000 A 
ATOM     28  C   UNL     1      -5.612  12.185  17.378  0.00  0.00    +0.000 A 
ATOM     29  C   UNL     1      -4.365  11.574  17.172  0.00  0.00    +0.000 A 
ATOM     30  C   UNL     1      -3.423  11.544  18.206  0.00  0.00    +0.000 A 
ATOM     31  C   UNL     1      -3.753  12.068  19.461  0.00  0.00    +0.000 A 
ATOM     32  C   UNL     1      -4.999  12.680  19.659  0.00  0.00    +0.000 A 
ENDBRANCH  23  30
ENDBRANCH   1  23
TORSDOF 4
ENDMDL
MODEL 2
REMARK VINA RESULT:      -7.1      2.047      6.289
REMARK  Name = 
REMARK  5 active torsions:
REMARK  status: ('A' for Active; 'I' for Inactive)
REMARK    1  A    between atoms: C_1  and  C_2
REMARK    2  A    between atoms: C_5  and  S_6
REMARK    3  A    between atoms: S_6  and  N_9
REMARK    4  A    between atoms: C_21  and  C_22
REMARK    5  A    between atoms: C_25  and  C_26
REMARK                            x       y       z     vdW  Elec       q    Type
REMARK                         _______ _______ _______ _____ _____    ______ ____
ROOT
ATOM      1  N   UNL     1       0.489  11.862  19.760  0.00  0.00    +0.000 NA
ATOM      2  C   UNL     1       1.633  12.721  20.227  0.00  0.00    +0.000 C 
ATOM      3  C   UNL     1       2.065  13.721  19.104  0.00  0.00    +0.000 C 
ATOM      4  C   UNL     1       0.896  14.649  18.838  0.00  0.00    +0.000 A 
ATOM      5  C   UNL     1      -0.349  14.189  19.288  0.00  0.00    +0.000 A 
ATOM      6  N   UNL     1      -0.601  15.163  20.298  0.00  0.00    +0.000 N 
ATOM      7  C   UNL     1       0.270  16.252  20.140  0.00  0.00    +0.000 A 
ATOM      8  C   UNL     1       0.631  17.355  20.958  0.00  0.00    +0.000 A 
ATOM      9  C   UNL     1       1.512  18.322  20.418  0.00  0.00    +0.000 A 
ATOM     10  C   UNL     1       1.980  18.234  19.110  0.00  0.00    +0.000 A 
ATOM     11  C   UNL     1       1.730  17.076  18.373  0.00  0.00    +0.000 A 
ATOM     12  C   UNL     1       0.918  16.057  18.928  0.00  0.00    +0.000 A 
ATOM     13  C   UNL     1      -0.643  12.658  19.147  0.00  0.00    +0.000 C 
ATOM     14  H   UNL     1      -1.146  14.986  21.128  0.00  0.00    +0.000 HD
ENDROOT
BRANCH  13  15
ATOM     15  C   UNL     1      -2.022  12.007  18.913  0.00  0.00    +0.000 A 
ATOM     16  C   UNL     1      -3.112  12.417  19.738  0.00  0.00    +0.000 A 
ATOM     17  C   UNL     1      -4.452  12.100  19.452  0.00  0.00    +0.000 A 
ATOM     18  C   UNL     1      -4.755  11.349  18.327  0.00  0.00    +0.000 A 
ATOM     19  C   UNL     1      -3.703  10.883  17.519  0.00  0.00    +0.000 A 
ATOM     20  C   UNL     1      -2.351  11.208  17.812  0.00  0.00    +0.000 A 
BRANCH  18  21
ATOM     21  C   UNL     1      -6.174  11.093  17.970  0.00  0.00    +0.000 C 
ATOM     22  O   UNL     1      -6.944  10.503  18.716  0.00  0.00    +0.000 OA
ENDBRANCH  18  21
ENDBRANCH  13  15
BRANCH   1  23
ATOM     23  S   UNL     1       0.244  10.427  20.626  0.00  0.00    +0.000 S 
ATOM     24  O   UNL     1      -1.107   9.936  20.485  0.00  0.00    +0.000 OA
ATOM     25  O   UNL     1       0.832  10.622  21.937  0.00  0.00    +0.000 OA
BRANCH  23  30
ATOM     26  C   UNL     1       3.632   6.335  17.586  0.00  0.00    +0.000 C 
ATOM     27  C   UNL     1       2.766   7.313  18.334  0.00  0.00    +0.000 A 
ATOM     28  C   UNL     1       2.365   7.066  19.654  0.00  0.00    +0.000 A 
ATOM     29  C   UNL     1       1.610   8.012  20.364  0.00  0.00    +0.000 A 
ATOM     30  C   UNL     1       1.250   9.218  19.753  0.00  0.00    +0.000 A 
ATOM     31  C   UNL     1       1.591   9.448  18.416  0.00  0.00    +0.000 A 
ATOM     32  C   UNL     1       2.349   8.500  17.713  0.00  0.00    +0.000 A 
ENDBRANCH  23  30
ENDBRANCH   1  23
TORSDOF 4
ENDMDL
MODEL 3
REMARK VINA RESULT:      -6.9      3.053      7.700
REMARK  Name = 
REMARK  5 active torsions:
REMARK  status: ('A' for Active; 'I' for Inactive)
REMARK    1  A    between atoms: C_1  and  C_2
REMARK    2  A    between atoms: C_5  and  S_6
REMARK    3  A    between atoms: S_6  and  N_9
REMARK    4  A    between atoms: C_21  and  C_22
REMARK    5  A    between atoms: C_25  and  C_26
REMARK                            x       y       z     vdW  Elec       q    Type
REMARK                         _______ _______ _______ _____ _____    ______ ____
ROOT
ATOM      1  N   UNL     1      -2.030  12.780  21.274  0.00  0.00    +0.000 NA
ATOM      2  C   UNL     1      -2.500  13.254  22.623  0.00  0.00    +0.000 C 
ATOM      3  C   UNL     1      -3.418  14.513  22.475  0.00  0.00    +0.000 C 
ATOM      4  C   UNL     1      -4.651  14.096  21.698  0.00  0.00    +0.000 A 
ATOM      5  C   UNL     1      -4.525  12.908  20.966  0.00  0.00    +0.000 A 
ATOM      6  N   UNL     1      -5.457  12.099  21.682  0.00  0.00    +0.000 N 
ATOM      7  C   UNL     1      -6.269  12.908  22.492  0.00  0.00    +0.000 A 
ATOM      8  C   UNL     1      -7.166  12.649  23.562  0.00  0.00    +0.000 A 
ATOM      9  C   UNL     1      -7.884  13.742  24.103  0.00  0.00    +0.000 A 
ATOM     10  C   UNL     1      -7.763  15.026  23.583  0.00  0.00    +0.000 A 
ATOM     11  C   UNL     1      -6.776  15.286  22.631  0.00  0.00    +0.000 A 
ATOM     12  C   UNL     1      -5.987  14.220  22.136  0.00  0.00    +0.000 A 
ATOM     13  C   UNL     1      -3.151  12.636  20.268  0.00  0.00    +0.000 C 
ATOM     14  H   UNL     1      -5.380  11.097  21.773  0.00  0.00    +0.000 HD
ENDROOT
BRANCH  13  15
ATOM     15  C   UNL     1      -2.928  11.862  18.952  0.00  0.00    +0.000 A 
ATOM     16  C   UNL     1      -3.961  10.985  18.501  0.00  0.00    +0.000 A 
ATOM     17  C   UNL     1      -3.990  10.439  17.205  0.00  0.00    +0.000 A 
ATOM     18  C   UNL     1      -2.978  10.744  16.307  0.00  0.00    +0.000 A 
ATOM     19  C   UNL     1      -1.918  11.562  16.734  0.00  0.00    +0.000 A 
ATOM     20  C   UNL     1      -1.893  12.113  18.044  0.00  0.00    +0.000 A 
BRANCH  18  21
ATOM     21  C   UNL     1      -3.055  10.247  14.910  0.00  0.00    +0.000 C 
ATOM     22  O   UNL     1      -4.119  10.009  14.354  0.00  0.00    +0.000 OA
ENDBRANCH  18  21
ENDBRANCH  13  15
BRANCH   1  23
ATOM     23  S   UNL     1      -0.662  11.781  21.281  0.00  0.00    +0.000 S 
ATOM     24  O   UNL     1      -0.892  10.548  20.566  0.00  0.00    +0.000 OA
ATOM     25  O   UNL     1      -0.156  11.770  22.639  0.00  0.00    +0.000 OA
BRANCH  23  30
ATOM     26  C   UNL     1       3.434  14.740  17.826  0.00  0.00    +0.000 C 
ATOM     27  C   UNL     1       2.450  14.022  18.711  0.00  0.00    +0.000 A 
ATOM     28  C   UNL     1       1.649  14.723  19.623  0.00  0.00    +0.000 A 
ATOM     29  C   UNL     1       0.691  14.052  20.400  0.00  0.00    +0.000 A 
ATOM     30  C   UNL     1       0.528  12.670  20.265  0.00  0.00    +0.000 A 
ATOM     31  C   UNL     1       1.364  11.952  19.403  0.00  0.00    +0.000 A 
ATOM     32  C   UNL     1       2.317  12.628  18.628  0.00  0.00    +0.000 A 
ENDBRANCH  23  30
ENDBRANCH   1  23
TORSDOF 4
ENDMDL
MODEL 4
REMARK VINA RESULT:      -6.9      2.561      6.486
REMARK  Name = 
REMARK  5 active torsions:
REMARK  status: ('A' for Active; 'I' for Inactive)
REMARK    1  A    between atoms: C_1  and  C_2
REMARK    2  A    between atoms: C_5  and  S_6
REMARK    3  A    between atoms: S_6  and  N_9
REMARK    4  A    between atoms: C_21  and  C_22
REMARK    5  A    between atoms: C_25  and  C_26
REMARK                            x       y       z     vdW  Elec       q    Type
REMARK                         _______ _______ _______ _____ _____    ______ ____
ROOT
ATOM      1  N   UNL     1       0.637  11.348  19.958  0.00  0.00    +0.000 NA
ATOM      2  C   UNL     1       2.019  11.680  19.465  0.00  0.00    +0.000 C 
ATOM      3  C   UNL     1       1.958  12.775  18.349  0.00  0.00    +0.000 C 
ATOM      4  C   UNL     1       1.395  14.038  18.972  0.00  0.00    +0.000 A 
ATOM      5  C   UNL     1       0.705  13.855  20.177  0.00  0.00    +0.000 A 
ATOM      6  N   UNL     1       1.586  14.553  21.053  0.00  0.00    +0.000 N 
ATOM      7  C   UNL     1       2.475  15.344  20.308  0.00  0.00    +0.000 A 
ATOM      8  C   UNL     1       3.679  16.033  20.613  0.00  0.00    +0.000 A 
ATOM      9  C   UNL     1       4.275  16.810  19.592  0.00  0.00    +0.000 A 
ATOM     10  C   UNL     1       3.687  16.944  18.338  0.00  0.00    +0.000 A 
ATOM     11  C   UNL     1       2.587  16.150  18.012  0.00  0.00    +0.000 A 
ATOM     12  C   UNL     1       2.024  15.300  18.995  0.00  0.00    +0.000 A 
ATOM     13  C   UNL     1      -0.181  12.572  20.311  0.00  0.00    +0.000 C 
ATOM     14  H   UNL     1       1.708  14.326  22.029  0.00  0.00    +0.000 HD
ENDROOT
BRANCH  13  15
ATOM     15  C   UNL     1      -1.481  12.435  21.130  0.00  0.00    +0.000 A 
ATOM     16  C   UNL     1      -1.377  12.349  22.552  0.00  0.00    +0.000 A 
ATOM     17  C   UNL     1      -2.483  12.490  23.410  0.00  0.00    +0.000 A 
ATOM     18  C   UNL     1      -3.743  12.715  22.878  0.00  0.00    +0.000 A 
ATOM     19  C   UNL     1      -3.891  12.753  21.480  0.00  0.00    +0.000 A 
ATOM     20  C   UNL     1      -2.771  12.613  20.617  0.00  0.00    +0.000 A 
BRANCH  18  21
ATOM     21  C   UNL     1      -4.895  12.958  23.783  0.00  0.00    +0.000 C 
ATOM     22  O   UNL     1      -5.287  12.123  24.588  0.00  0.00    +0.000 OA
ENDBRANCH  18  21
ENDBRANCH  13  15
BRANCH   1  23
ATOM     23  S   UNL     1       0.480   9.868  20.768  0.00  0.00    +0.000 S 
ATOM     24  O   UNL     1      -0.862   9.342  20.674  0.00  0.00    +0.000 OA
ATOM     25  O   UNL     1       1.130  10.022  22.054  0.00  0.00    +0.000 OA
BRANCH  23  30
ATOM     26  C   UNL     1       3.816   6.023  17.370  0.00  0.00    +0.000 C 
ATOM     27  C   UNL     1       2.964   6.939  18.207  0.00  0.00    +0.000 A 
ATOM     28  C   UNL     1       2.672   6.637  19.544  0.00  0.00    +0.000 A 
ATOM     29  C   UNL     1       1.928   7.527  20.335  0.00  0.00    +0.000 A 
ATOM     30  C   UNL     1       1.473   8.732  19.789  0.00  0.00    +0.000 A 
ATOM     31  C   UNL     1       1.705   9.014  18.438  0.00  0.00    +0.000 A 
ATOM     32  C   UNL     1       2.451   8.122  17.655  0.00  0.00    +0.000 A 
ENDBRANCH  23  30
ENDBRANCH   1  23
TORSDOF 4
ENDMDL
MODEL 5
REMARK VINA RESULT:      -6.8      2.301      5.980
REMARK  Name = 
REMARK  5 active torsions:
REMARK  status: ('A' for Active; 'I' for Inactive)
REMARK    1  A    between atoms: C_1  and  C_2
REMARK    2  A    between atoms: C_5  and  S_6
REMARK    3  A    between atoms: S_6  and  N_9
REMARK    4  A    between atoms: C_21  and  C_22
REMARK    5  A    between atoms: C_25  and  C_26
REMARK                            x       y       z     vdW  Elec       q    Type
REMARK                         _______ _______ _______ _____ _____    ______ ____
ROOT
ATOM      1  N   UNL     1       0.782  11.641  19.995  0.00  0.00    +0.000 NA
ATOM      2  C   UNL     1       1.495  12.682  20.815  0.00  0.00    +0.000 C 
ATOM      3  C   UNL     1       2.212  13.718  19.888  0.00  0.00    +0.000 C 
ATOM      4  C   UNL     1       1.145  14.440  19.090  0.00  0.00    +0.000 A 
ATOM      5  C   UNL     1      -0.097  13.794  19.028  0.00  0.00    +0.000 A 
ATOM      6  N   UNL     1      -0.880  14.733  19.760  0.00  0.00    +0.000 N 
ATOM      7  C   UNL     1      -0.183  15.945  19.882  0.00  0.00    +0.000 A 
ATOM      8  C   UNL     1      -0.354  17.107  20.681  0.00  0.00    +0.000 A 
ATOM      9  C   UNL     1       0.529  18.192  20.469  0.00  0.00    +0.000 A 
ATOM     10  C   UNL     1       1.507  18.157  19.480  0.00  0.00    +0.000 A 
ATOM     11  C   UNL     1       1.751  16.961  18.805  0.00  0.00    +0.000 A 
ATOM     12  C   UNL     1       0.932  15.834  19.063  0.00  0.00    +0.000 A 
ATOM     13  C   UNL     1      -0.090  12.233  18.908  0.00  0.00    +0.000 C 
ATOM     14  H   UNL     1      -1.692  14.485  20.307  0.00  0.00    +0.000 HD
ENDROOT
BRANCH  13  15
ATOM     15  C   UNL     1      -1.139  11.363  18.186  0.00  0.00    +0.000 A 
ATOM     16  C   UNL     1      -2.471  11.866  18.075  0.00  0.00    +0.000 A 
ATOM     17  C   UNL     1      -3.435  11.298  17.222  0.00  0.00    +0.000 A 
ATOM     18  C   UNL     1      -3.106  10.196  16.448  0.00  0.00    +0.000 A 
ATOM     19  C   UNL     1      -1.819   9.643  16.571  0.00  0.00    +0.000 A 
ATOM     20  C   UNL     1      -0.848  10.221  17.432  0.00  0.00    +0.000 A 
BRANCH  18  21
ATOM     21  C   UNL     1      -4.090   9.654  15.477  0.00  0.00    +0.000 C 
ATOM     22  O   UNL     1      -4.104   9.987  14.299  0.00  0.00    +0.000 OA
ENDBRANCH  18  21
ENDBRANCH  13  15
BRANCH   1  23
ATOM     23  S   UNL     1       0.400  10.202  20.803  0.00  0.00    +0.000 S 
ATOM     24  O   UNL     1      -0.986   9.836  20.625  0.00  0.00    +0.000 OA
ATOM     25  O   UNL     1       0.981  10.296  22.127  0.00  0.00    +0.000 OA
BRANCH  23  30
ATOM     26  C   UNL     1       3.531   5.890  17.791  0.00  0.00    +0.000 C 
ATOM     27  C   UNL     1       2.797   6.974  18.535  0.00  0.00    +0.000 A 
ATOM     28  C   UNL     1       2.595   8.238  17.963  0.00  0.00    +0.000 A 
ATOM     29  C   UNL     1       1.856   9.221  18.638  0.00  0.00    +0.000 A 
ATOM     30  C   UNL     1       1.312   8.943  19.897  0.00  0.00    +0.000 A 
ATOM     31  C   UNL     1       1.560   7.707  20.504  0.00  0.00    +0.000 A 
ATOM     32  C   UNL     1       2.296   6.728  19.822  0.00  0.00    +0.000 A 
ENDBRANCH  23  30
ENDBRANCH   1  23
TORSDOF 4
ENDMDL
MODEL 6
REMARK VINA RESULT:      -6.8      7.195      9.292
REMARK  Name = 
REMARK  5 active torsions:
REMARK  status: ('A' for Active; 'I' for Inactive)
REMARK    1  A    between atoms: C_1  and  C_2
REMARK    2  A    between atoms: C_5  and  S_6
REMARK    3  A    between atoms: S_6  and  N_9
REMARK    4  A    between atoms: C_21  and  C_22
REMARK    5  A    between atoms: C_25  and  C_26
REMARK                            x       y       z     vdW  Elec       q    Type
REMARK                         _______ _______ _______ _____ _____    ______ ____
ROOT
ATOM      1  N   UNL     1       6.998  14.290  22.211  0.00  0.00    +0.000 NA
ATOM      2  C   UNL     1       7.385  14.483  20.769  0.00  0.00    +0.000 C 
ATOM      3  C   UNL     1       8.909  14.817  20.649  0.00  0.00    +0.000 C 
ATOM      4  C   UNL     1       9.686  13.620  21.159  0.00  0.00    +0.000 A 
ATOM      5  C   UNL     1       8.959  12.731  21.962  0.00  0.00    +0.000 A 
ATOM      6  N   UNL     1       8.965  11.592  21.104  0.00  0.00    +0.000 N 
ATOM      7  C   UNL     1       9.927  11.758  20.095  0.00  0.00    +0.000 A 
ATOM      8  C   UNL     1      10.199  11.092  18.870  0.00  0.00    +0.000 A 
ATOM      9  C   UNL     1      11.333  11.504  18.130  0.00  0.00    +0.000 A 
ATOM     10  C   UNL     1      12.191  12.495  18.598  0.00  0.00    +0.000 A 
ATOM     11  C   UNL     1      11.831  13.232  19.726  0.00  0.00    +0.000 A 
ATOM     12  C   UNL     1      10.654  12.891  20.436  0.00  0.00    +0.000 A 
ATOM     13  C   UNL     1       7.918  13.346  22.955  0.00  0.00    +0.000 C 
ATOM     14  H   UNL     1       8.233  10.898  21.083  0.00  0.00    +0.000 HD
ENDROOT
BRANCH  13  15
ATOM     15  C   UNL     1       7.507  12.771  24.326  0.00  0.00    +0.000 A 
ATOM     16  C   UNL     1       7.480  13.653  25.448  0.00  0.00    +0.000 A 
ATOM     17  C   UNL     1       6.876  13.317  26.674  0.00  0.00    +0.000 A 
ATOM     18  C   UNL     1       6.279  12.076  26.828  0.00  0.00    +0.000 A 
ATOM     19  C   UNL     1       6.332  11.161  25.761  0.00  0.00    +0.000 A 
ATOM     20  C   UNL     1       6.942  11.506  24.525  0.00  0.00    +0.000 A 
BRANCH  18  21
ATOM     21  C   UNL     1       5.558  11.753  28.085  0.00  0.00    +0.000 C 
ATOM     22  O   UNL     1       4.476  11.181  28.095  0.00  0.00    +0.000 OA
ENDBRANCH  18  21
ENDBRANCH  13  15
BRANCH   1  23
ATOM     23  S   UNL     1       5.344  14.428  22.553  0.00  0.00    +0.000 S 
ATOM     24  O   UNL     1       5.084  15.435  23.555  0.00  0.00    +0.000 OA
ATOM     25  O   UNL     1       4.832  13.080  22.702  0.00  0.00    +0.000 OA
BRANCH  23  30
ATOM     26  C   UNL     1       2.958  16.825  17.452  0.00  0.00    +0.000 C 
ATOM     27  C   UNL     1       3.504  16.230  18.723  0.00  0.00    +0.000 A 
ATOM     28  C   UNL     1       3.310  14.877  19.032  0.00  0.00    +0.000 A 
ATOM     29  C   UNL     1       3.876  14.316  20.187  0.00  0.00    +0.000 A 
ATOM     30  C   UNL     1       4.646  15.112  21.043  0.00  0.00    +0.000 A 
ATOM     31  C   UNL     1       4.794  16.477  20.777  0.00  0.00    +0.000 A 
ATOM     32  C   UNL     1       4.228  17.030  19.619  0.00  0.00    +0.000 A 
ENDBRANCH  23  30
ENDBRANCH   1  23
TORSDOF 4
ENDMDL
MODEL 7
REMARK VINA RESULT:      -6.8      2.524      6.324
REMARK  Name = 
REMARK  5 active torsions:
REMARK  status: ('A' for Active; 'I' for Inactive)
REMARK    1  A    between atoms: C_1  and  C_2
REMARK    2  A    between atoms: C_5  and  S_6
REMARK    3  A    between atoms: S_6  and  N_9
REMARK    4  A    between atoms: C_21  and  C_22
REMARK    5  A    between atoms: C_25  and  C_26
REMARK                            x       y       z     vdW  Elec       q    Type
REMARK                         _______ _______ _______ _____ _____    ______ ____
ROOT
ATOM      1  N   UNL     1       0.610  11.962  19.955  0.00  0.00    +0.000 NA
ATOM      2  C   UNL     1       2.003  11.998  19.386  0.00  0.00    +0.000 C 
ATOM      3  C   UNL     1       2.140  13.149  18.336  0.00  0.00    +0.000 C 
ATOM      4  C   UNL     1       1.925  14.463  19.061  0.00  0.00    +0.000 A 
ATOM      5  C   UNL     1       1.278  14.365  20.300  0.00  0.00    +0.000 A 
ATOM      6  N   UNL     1       2.346  14.779  21.149  0.00  0.00    +0.000 N 
ATOM      7  C   UNL     1       3.354  15.391  20.386  0.00  0.00    +0.000 A 
ATOM      8  C   UNL     1       4.701  15.761  20.644  0.00  0.00    +0.000 A 
ATOM      9  C   UNL     1       5.406  16.445  19.626  0.00  0.00    +0.000 A 
ATOM     10  C   UNL     1       4.798  16.796  18.424  0.00  0.00    +0.000 A 
ATOM     11  C   UNL     1       3.526  16.302  18.134  0.00  0.00    +0.000 A 
ATOM     12  C   UNL     1       2.834  15.541  19.108  0.00  0.00    +0.000 A 
ATOM     13  C   UNL     1       0.124  13.316  20.427  0.00  0.00    +0.000 C 
ATOM     14  H   UNL     1       2.464  14.465  22.100  0.00  0.00    +0.000 HD
ENDROOT
BRANCH  13  15
ATOM     15  C   UNL     1      -1.125  13.429  21.325  0.00  0.00    +0.000 A 
ATOM     16  C   UNL     1      -2.410  13.303  20.716  0.00  0.00    +0.000 A 
ATOM     17  C   UNL     1      -3.594  13.124  21.453  0.00  0.00    +0.000 A 
ATOM     18  C   UNL     1      -3.540  13.072  22.838  0.00  0.00    +0.000 A 
ATOM     19  C   UNL     1      -2.298  13.245  23.474  0.00  0.00    +0.000 A 
ATOM     20  C   UNL     1      -1.105  13.424  22.725  0.00  0.00    +0.000 A 
BRANCH  18  21
ATOM     21  C   UNL     1      -4.773  12.788  23.615  0.00  0.00    +0.000 C 
ATOM     22  O   UNL     1      -4.781  12.043  24.586  0.00  0.00    +0.000 OA
ENDBRANCH  18  21
ENDBRANCH  13  15
BRANCH   1  23
ATOM     23  S   UNL     1       0.154  10.508  20.695  0.00  0.00    +0.000 S 
ATOM     24  O   UNL     1      -1.218  10.163  20.405  0.00  0.00    +0.000 OA
ATOM     25  O   UNL     1       0.634  10.564  22.062  0.00  0.00    +0.000 OA
BRANCH  23  30
ATOM     26  C   UNL     1       3.396   6.278  17.685  0.00  0.00    +0.000 C 
ATOM     27  C   UNL     1       2.567   7.289  18.431  0.00  0.00    +0.000 A 
ATOM     28  C   UNL     1       2.322   7.154  19.805  0.00  0.00    +0.000 A 
ATOM     29  C   UNL     1       1.601   8.134  20.505  0.00  0.00    +0.000 A 
ATOM     30  C   UNL     1       1.120   9.261  19.830  0.00  0.00    +0.000 A 
ATOM     31  C   UNL     1       1.304   9.375  18.448  0.00  0.00    +0.000 A 
ATOM     32  C   UNL     1       2.029   8.394  17.755  0.00  0.00    +0.000 A 
ENDBRANCH  23  30
ENDBRANCH   1  23
TORSDOF 4
ENDMDL
MODEL 8
REMARK VINA RESULT:      -6.7      3.289      6.610
REMARK  Name = 
REMARK  5 active torsions:
REMARK  status: ('A' for Active; 'I' for Inactive)
REMARK    1  A    between atoms: C_1  and  C_2
REMARK    2  A    between atoms: C_5  and  S_6
REMARK    3  A    between atoms: S_6  and  N_9
REMARK    4  A    between atoms: C_21  and  C_22
REMARK    5  A    between atoms: C_25  and  C_26
REMARK                            x       y       z     vdW  Elec       q    Type
REMARK                         _______ _______ _______ _____ _____    ______ ____
ROOT
ATOM      1  N   UNL     1       0.086  12.346  20.336  0.00  0.00    +0.000 NA
ATOM      2  C   UNL     1       1.496  11.838  20.474  0.00  0.00    +0.000 C 
ATOM      3  C   UNL     1       1.505  10.408  21.109  0.00  0.00    +0.000 C 
ATOM      4  C   UNL     1       0.791   9.474  20.153  0.00  0.00    +0.000 A 
ATOM      5  C   UNL     1      -0.032  10.099  19.207  0.00  0.00    +0.000 A 
ATOM      6  N   UNL     1       0.687   9.765  18.022  0.00  0.00    +0.000 N 
ATOM      7  C   UNL     1       1.610   8.744  18.294  0.00  0.00    +0.000 A 
ATOM      8  C   UNL     1       2.720   8.203  17.593  0.00  0.00    +0.000 A 
ATOM      9  C   UNL     1       3.389   7.095  18.165  0.00  0.00    +0.000 A 
ATOM     10  C   UNL     1       2.956   6.512  19.352  0.00  0.00    +0.000 A 
ATOM     11  C   UNL     1       1.958   7.142  20.096  0.00  0.00    +0.000 A 
ATOM     12  C   UNL     1       1.331   8.302  19.581  0.00  0.00    +0.000 A 
ATOM     13  C   UNL     1      -0.846  11.351  19.678  0.00  0.00    +0.000 C 
ATOM     14  H   UNL     1       0.699  10.337  17.191  0.00  0.00    +0.000 HD
ENDROOT
BRANCH  13  15
ATOM     15  C   UNL     1      -2.227  11.797  19.156  0.00  0.00    +0.000 A 
ATOM     16  C   UNL     1      -2.570  11.489  17.804  0.00  0.00    +0.000 A 
ATOM     17  C   UNL     1      -3.878  11.603  17.301  0.00  0.00    +0.000 A 
ATOM     18  C   UNL     1      -4.899  12.040  18.131  0.00  0.00    +0.000 A 
ATOM     19  C   UNL     1      -4.588  12.402  19.454  0.00  0.00    +0.000 A 
ATOM     20  C   UNL     1      -3.265  12.283  19.958  0.00  0.00    +0.000 A 
BRANCH  18  21
ATOM     21  C   UNL     1      -6.297  12.071  17.631  0.00  0.00    +0.000 C 
ATOM     22  O   UNL     1      -7.193  11.413  18.142  0.00  0.00    +0.000 OA
ENDBRANCH  18  21
ENDBRANCH  13  15
BRANCH   1  23
ATOM     23  S   UNL     1      -0.078  14.023  20.154  0.00  0.00    +0.000 S 
ATOM     24  O   UNL     1      -0.828  14.365  18.969  0.00  0.00    +0.000 OA
ATOM     25  O   UNL     1       1.227  14.602  20.403  0.00  0.00    +0.000 OA
BRANCH  23  30
ATOM     26  C   UNL     1      -3.738  15.728  24.755  0.00  0.00    +0.000 C 
ATOM     27  C   UNL     1      -2.803  15.324  23.646  0.00  0.00    +0.000 A 
ATOM     28  C   UNL     1      -1.871  14.292  23.823  0.00  0.00    +0.000 A 
ATOM     29  C   UNL     1      -1.047  13.881  22.764  0.00  0.00    +0.000 A 
ATOM     30  C   UNL     1      -1.154  14.501  21.515  0.00  0.00    +0.000 A 
ATOM     31  C   UNL     1      -2.038  15.573  21.345  0.00  0.00    +0.000 A 
ATOM     32  C   UNL     1      -2.860  15.977  22.406  0.00  0.00    +0.000 A 
ENDBRANCH  23  30
ENDBRANCH   1  23
TORSDOF 4
ENDMDL
MODEL 9
REMARK VINA RESULT:      -6.7      2.730      7.365
REMARK  Name = 
REMARK  5 active torsions:
REMARK  status: ('A' for Active; 'I' for Inactive)
REMARK    1  A    between atoms: C_1  and  C_2
REMARK    2  A    between atoms: C_5  and  S_6
REMARK    3  A    between atoms: S_6  and  N_9
REMARK    4  A    between atoms: C_21  and  C_22
REMARK    5  A    between atoms: C_25  and  C_26
REMARK                            x       y       z     vdW  Elec       q    Type
REMARK                         _______ _______ _______ _____ _____    ______ ____
ROOT
ATOM      1  N   UNL     1      -0.298  12.751  20.171  0.00  0.00    +0.000 NA
ATOM      2  C   UNL     1       1.137  12.307  20.258  0.00  0.00    +0.000 C 
ATOM      3  C   UNL     1       1.245  10.938  21.008  0.00  0.00    +0.000 C 
ATOM      4  C   UNL     1       0.510   9.900  20.182  0.00  0.00    +0.000 A 
ATOM      5  C   UNL     1      -0.396  10.412  19.244  0.00  0.00    +0.000 A 
ATOM      6  N   UNL     1       0.261  10.003  18.046  0.00  0.00    +0.000 N 
ATOM      7  C   UNL     1       1.240   9.042  18.342  0.00  0.00    +0.000 A 
ATOM      8  C   UNL     1       2.325   8.482  17.616  0.00  0.00    +0.000 A 
ATOM      9  C   UNL     1       3.074   7.452  18.234  0.00  0.00    +0.000 A 
ATOM     10  C   UNL     1       2.740   6.958  19.491  0.00  0.00    +0.000 A 
ATOM     11  C   UNL     1       1.766   7.614  20.244  0.00  0.00    +0.000 A 
ATOM     12  C   UNL     1       1.061   8.704  19.676  0.00  0.00    +0.000 A 
ATOM     13  C   UNL     1      -1.228  11.670  19.661  0.00  0.00    +0.000 C 
ATOM     14  H   UNL     1       0.198  10.501  17.171  0.00  0.00    +0.000 HD
ENDROOT
BRANCH  13  15
ATOM     15  C   UNL     1      -2.656  12.021  19.195  0.00  0.00    +0.000 A 
ATOM     16  C   UNL     1      -3.056  11.622  17.884  0.00  0.00    +0.000 A 
ATOM     17  C   UNL     1      -4.394  11.646  17.450  0.00  0.00    +0.000 A 
ATOM     18  C   UNL     1      -5.389  12.079  18.313  0.00  0.00    +0.000 A 
ATOM     19  C   UNL     1      -5.025  12.529  19.594  0.00  0.00    +0.000 A 
ATOM     20  C   UNL     1      -3.673  12.501  20.029  0.00  0.00    +0.000 A 
BRANCH  18  21
ATOM     21  C   UNL     1      -6.811  12.016  17.892  0.00  0.00    +0.000 C 
ATOM     22  O   UNL     1      -7.680  12.709  18.404  0.00  0.00    +0.000 OA
ENDBRANCH  18  21
ENDBRANCH  13  15
BRANCH   1  23
ATOM     23  S   UNL     1      -0.542  14.399  19.860  0.00  0.00    +0.000 S 
ATOM     24  O   UNL     1      -1.615  14.944  20.657  0.00  0.00    +0.000 OA
ATOM     25  O   UNL     1      -0.528  14.561  18.420  0.00  0.00    +0.000 OA
BRANCH  23  30
ATOM     26  C   UNL     1       4.456  17.100  22.137  0.00  0.00    +0.000 C 
ATOM     27  C   UNL     1       3.215  16.474  21.559  0.00  0.00    +0.000 A 
ATOM     28  C   UNL     1       3.047  16.338  20.175  0.00  0.00    +0.000 A 
ATOM     29  C   UNL     1       1.915  15.697  19.649  0.00  0.00    +0.000 A 
ATOM     30  C   UNL     1       0.940  15.184  20.511  0.00  0.00    +0.000 A 
ATOM     31  C   UNL     1       1.067  15.370  21.892  0.00  0.00    +0.000 A 
ATOM     32  C   UNL     1       2.202  16.009  22.411  0.00  0.00    +0.000 A 
ENDBRANCH  23  30
ENDBRANCH   1  23
TORSDOF 4
ENDMDL
