MODEL 1
REMARK VINA RESULT:      -7.8      0.000      0.000
REMARK  Name = 
REMARK  6 active torsions:
REMARK  status: ('A' for Active; 'I' for Inactive)
REMARK    1  A    between atoms: C_2  and  C_3
REMARK    2  A    between atoms: C_3  and  N_4
REMARK    3  A    between atoms: N_4  and  C_5
REMARK    4  A    between atoms: N_4  and  C_21
REMARK    5  A    between atoms: C_5  and  C_6
REMARK    6  A    between atoms: C_9  and  C_10
REMARK                            x       y       z     vdW  Elec       q    Type
REMARK                         _______ _______ _______ _____ _____    ______ ____
ROOT
ATOM      1  C   UNL     1       2.658   7.443  18.761  0.00  0.00    +0.000 A 
ATOM      2  C   UNL     1       2.727   8.259  17.659  0.00  0.00    +0.000 A 
ATOM      3  O   UNL     1       1.898   9.318  17.860  0.00  0.00    +0.000 OA
ATOM      4  C   UNL     1       1.363   9.103  19.110  0.00  0.00    +0.000 A 
ATOM      5  N   UNL     1       1.804   8.006  19.690  0.00  0.00    +0.000 NA
ENDROOT
BRANCH   4   6
ATOM      6  C   UNL     1       0.434  10.127  19.595  0.00  0.00    +0.000 A 
ATOM      7  C   UNL     1       0.759  10.770  20.806  0.00  0.00    +0.000 A 
ATOM      8  C   UNL     1      -0.077  11.731  21.360  0.00  0.00    +0.000 A 
ATOM      9  C   UNL     1      -1.257  12.069  20.709  0.00  0.00    +0.000 A 
ATOM     10  C   UNL     1      -1.615  11.460  19.498  0.00  0.00    +0.000 A 
ATOM     11  C   UNL     1      -2.814  11.838  18.870  0.00  0.00    +0.000 A 
ATOM     12  C   UNL     1      -3.203  11.265  17.663  0.00  0.00    +0.000 A 
ATOM     13  C   UNL     1      -2.397  10.309  17.065  0.00  0.00    +0.000 A 
ATOM     14  C   UNL     1      -1.202   9.921  17.678  0.00  0.00    +0.000 A 
ATOM     15  C   UNL     1      -0.772  10.477  18.914  0.00  0.00    +0.000 A 
ENDBRANCH   4   6
BRANCH   1  16
ATOM     16  C   UNL     1       3.324   6.129  19.003  0.00  0.00    +0.000 C 
BRANCH  16  17
ATOM     17  N   UNL     1       3.859   5.504  17.766  0.00  0.00    +0.000 NA
BRANCH  17  18
ATOM     18  C   UNL     1       5.342   5.425  17.791  0.00  0.00    +0.000 C 
ATOM     19  C   UNL     1       6.054   6.687  17.290  0.00  0.00    +0.000 C 
ATOM     20  C   UNL     1       7.481   6.545  17.801  0.00  0.00    +0.000 C 
ATOM     21  C   UNL     1       7.386   5.756  19.098  0.00  0.00    +0.000 C 
ATOM     22  C   UNL     1       5.948   5.260  19.197  0.00  0.00    +0.000 C 
ENDBRANCH  17  18
BRANCH  17  23
ATOM     23  C   UNL     1       3.266   4.183  17.493  0.00  0.00    +0.000 C 
BRANCH  23  25
ATOM     24  C   UNL     1       1.188   3.091  18.515  0.00  0.00    +0.000 C 
ATOM     25  C   UNL     1       1.789   4.006  17.742  0.00  0.00    +0.000 C 
ENDBRANCH  23  25
ENDBRANCH  17  23
ENDBRANCH  16  17
ENDBRANCH   1  16
TORSDOF 6
ENDMDL
MODEL 2
REMARK VINA RESULT:      -7.7      1.316      8.092
REMARK  Name = 
REMARK  6 active torsions:
REMARK  status: ('A' for Active; 'I' for Inactive)
REMARK    1  A    between atoms: C_2  and  C_3
REMARK    2  A    between atoms: C_3  and  N_4
REMARK    3  A    between atoms: N_4  and  C_5
REMARK    4  A    between atoms: N_4  and  C_21
REMARK    5  A    between atoms: C_5  and  C_6
REMARK    6  A    between atoms: C_9  and  C_10
REMARK                            x       y       z     vdW  Elec       q    Type
REMARK                         _______ _______ _______ _____ _____    ______ ____
ROOT
ATOM      1  C   UNL     1       1.431   9.050  19.020  0.00  0.00    +0.000 A 
ATOM      2  C   UNL     1       1.848   9.550  17.812  0.00  0.00    +0.000 A 
ATOM      3  O   UNL     1       2.696   8.649  17.248  0.00  0.00    +0.000 OA
ATOM      4  C   UNL     1       2.743   7.611  18.150  0.00  0.00    +0.000 A 
ATOM      5  N   UNL     1       1.989   7.801  19.212  0.00  0.00    +0.000 NA
ENDROOT
BRANCH   4   6
ATOM      6  C   UNL     1       3.583   6.471  17.773  0.00  0.00    +0.000 A 
ATOM      7  C   UNL     1       4.889   6.752  17.326  0.00  0.00    +0.000 A 
ATOM      8  C   UNL     1       5.746   5.738  16.918  0.00  0.00    +0.000 A 
ATOM      9  C   UNL     1       5.312   4.419  16.952  0.00  0.00    +0.000 A 
ATOM     10  C   UNL     1       4.023   4.093  17.397  0.00  0.00    +0.000 A 
ATOM     11  C   UNL     1       3.628   2.745  17.422  0.00  0.00    +0.000 A 
ATOM     12  C   UNL     1       2.361   2.377  17.865  0.00  0.00    +0.000 A 
ATOM     13  C   UNL     1       1.473   3.351  18.293  0.00  0.00    +0.000 A 
ATOM     14  C   UNL     1       1.850   4.698  18.272  0.00  0.00    +0.000 A 
ATOM     15  C   UNL     1       3.132   5.115  17.821  0.00  0.00    +0.000 A 
ENDBRANCH   4   6
BRANCH   1  16
ATOM     16  C   UNL     1       0.552   9.683  20.048  0.00  0.00    +0.000 C 
BRANCH  16  17
ATOM     17  N   UNL     1      -0.114  10.923  19.571  0.00  0.00    +0.000 NA
BRANCH  17  18
ATOM     18  C   UNL     1      -1.505  10.658  19.121  0.00  0.00    +0.000 C 
ATOM     19  C   UNL     1      -2.398  11.902  19.057  0.00  0.00    +0.000 C 
ATOM     20  C   UNL     1      -3.577  11.477  18.193  0.00  0.00    +0.000 C 
ATOM     21  C   UNL     1      -3.034  10.439  17.221  0.00  0.00    +0.000 C 
ATOM     22  C   UNL     1      -1.618  10.115  17.686  0.00  0.00    +0.000 C 
ENDBRANCH  17  18
BRANCH  17  23
ATOM     23  C   UNL     1      -0.080  12.007  20.568  0.00  0.00    +0.000 C 
BRANCH  23  25
ATOM     24  C   UNL     1      -1.381  11.681  22.749  0.00  0.00    +0.000 C 
ATOM     25  C   UNL     1      -0.258  11.638  22.019  0.00  0.00    +0.000 C 
ENDBRANCH  23  25
ENDBRANCH  17  23
ENDBRANCH  16  17
ENDBRANCH   1  16
TORSDOF 6
ENDMDL
MODEL 3
REMARK VINA RESULT:      -7.7      1.558      8.132
REMARK  Name = 
REMARK  6 active torsions:
REMARK  status: ('A' for Active; 'I' for Inactive)
REMARK    1  A    between atoms: C_2  and  C_3
REMARK    2  A    between atoms: C_3  and  N_4
REMARK    3  A    between atoms: N_4  and  C_5
REMARK    4  A    between atoms: N_4  and  C_21
REMARK    5  A    between atoms: C_5  and  C_6
REMARK    6  A    between atoms: C_9  and  C_10
REMARK                            x       y       z     vdW  Elec       q    Type
REMARK                         _______ _______ _______ _____ _____    ______ ____
ROOT
ATOM      1  C   UNL     1       1.624   8.875  19.115  0.00  0.00    +0.000 A 
ATOM      2  C   UNL     1       1.750   8.141  20.269  0.00  0.00    +0.000 A 
ATOM      3  O   UNL     1       2.243   6.917  19.942  0.00  0.00    +0.000 OA
ATOM      4  C   UNL     1       2.415   6.968  18.578  0.00  0.00    +0.000 A 
ATOM      5  N   UNL     1       2.075   8.124  18.047  0.00  0.00    +0.000 NA
ENDROOT
BRANCH   4   6
ATOM      6  C   UNL     1       2.968   5.763  17.955  0.00  0.00    +0.000 A 
ATOM      7  C   UNL     1       2.117   4.645  17.846  0.00  0.00    +0.000 A 
ATOM      8  C   UNL     1       2.562   3.450  17.298  0.00  0.00    +0.000 A 
ATOM      9  C   UNL     1       3.873   3.349  16.845  0.00  0.00    +0.000 A 
ATOM     10  C   UNL     1       4.751   4.439  16.928  0.00  0.00    +0.000 A 
ATOM     11  C   UNL     1       6.065   4.296  16.451  0.00  0.00    +0.000 A 
ATOM     12  C   UNL     1       6.967   5.354  16.505  0.00  0.00    +0.000 A 
ATOM     13  C   UNL     1       6.566   6.572  17.033  0.00  0.00    +0.000 A 
ATOM     14  C   UNL     1       5.263   6.730  17.513  0.00  0.00    +0.000 A 
ATOM     15  C   UNL     1       4.313   5.671  17.482  0.00  0.00    +0.000 A 
ENDBRANCH   4   6
BRANCH   1  16
ATOM     16  C   UNL     1       1.070  10.249  18.929  0.00  0.00    +0.000 C 
BRANCH  16  17
ATOM     17  N   UNL     1      -0.340  10.382  19.381  0.00  0.00    +0.000 NA
BRANCH  17  18
ATOM     18  C   UNL     1      -0.447  11.234  20.592  0.00  0.00    +0.000 C 
ATOM     19  C   UNL     1      -1.715  12.095  20.652  0.00  0.00    +0.000 C 
ATOM     20  C   UNL     1      -1.815  12.521  22.110  0.00  0.00    +0.000 C 
ATOM     21  C   UNL     1      -1.188  11.396  22.920  0.00  0.00    +0.000 C 
ATOM     22  C   UNL     1      -0.535  10.453  21.916  0.00  0.00    +0.000 C 
ENDBRANCH  17  18
BRANCH  17  23
ATOM     23  C   UNL     1      -1.235  10.865  18.315  0.00  0.00    +0.000 C 
BRANCH  23  25
ATOM     24  C   UNL     1      -2.928  10.061  16.571  0.00  0.00    +0.000 C 
ATOM     25  C   UNL     1      -2.035   9.844  17.546  0.00  0.00    +0.000 C 
ENDBRANCH  23  25
ENDBRANCH  17  23
ENDBRANCH  16  17
ENDBRANCH   1  16
TORSDOF 6
ENDMDL
MODEL 4
REMARK VINA RESULT:      -7.7      2.030      3.306
REMARK  Name = 
REMARK  6 active torsions:
REMARK  status: ('A' for Active; 'I' for Inactive)
REMARK    1  A    between atoms: C_2  and  C_3
REMARK    2  A    between atoms: C_3  and  N_4
REMARK    3  A    between atoms: N_4  and  C_5
REMARK    4  A    between atoms: N_4  and  C_21
REMARK    5  A    between atoms: C_5  and  C_6
REMARK    6  A    between atoms: C_9  and  C_10
REMARK                            x       y       z     vdW  Elec       q    Type
REMARK                         _______ _______ _______ _____ _____    ______ ____
ROOT
ATOM      1  C   UNL     1       3.318   5.609  19.349  0.00  0.00    +0.000 A 
ATOM      2  C   UNL     1       2.430   5.370  20.368  0.00  0.00    +0.000 A 
ATOM      3  O   UNL     1       1.677   6.488  20.547  0.00  0.00    +0.000 OA
ATOM      4  C   UNL     1       2.138   7.370  19.597  0.00  0.00    +0.000 A 
ATOM      5  N   UNL     1       3.105   6.879  18.849  0.00  0.00    +0.000 NA
ENDROOT
BRANCH   4   6
ATOM      6  C   UNL     1       1.471   8.673  19.552  0.00  0.00    +0.000 A 
ATOM      7  C   UNL     1       1.522   9.382  18.335  0.00  0.00    +0.000 A 
ATOM      8  C   UNL     1       0.945  10.638  18.208  0.00  0.00    +0.000 A 
ATOM      9  C   UNL     1       0.301  11.212  19.298  0.00  0.00    +0.000 A 
ATOM     10  C   UNL     1       0.221  10.538  20.525  0.00  0.00    +0.000 A 
ATOM     11  C   UNL     1      -0.447  11.151  21.599  0.00  0.00    +0.000 A 
ATOM     12  C   UNL     1      -0.558  10.514  22.832  0.00  0.00    +0.000 A 
ATOM     13  C   UNL     1      -0.008   9.254  23.006  0.00  0.00    +0.000 A 
ATOM     14  C   UNL     1       0.660   8.631  21.947  0.00  0.00    +0.000 A 
ATOM     15  C   UNL     1       0.802   9.250  20.675  0.00  0.00    +0.000 A 
ENDBRANCH   4   6
BRANCH   1  16
ATOM     16  C   UNL     1       4.399   4.728  18.816  0.00  0.00    +0.000 C 
BRANCH  16  17
ATOM     17  N   UNL     1       4.861   5.119  17.459  0.00  0.00    +0.000 NA
BRANCH  17  18
ATOM     18  C   UNL     1       6.249   5.648  17.486  0.00  0.00    +0.000 C 
ATOM     19  C   UNL     1       6.362   7.148  17.194  0.00  0.00    +0.000 C 
ATOM     20  C   UNL     1       7.750   7.528  17.690  0.00  0.00    +0.000 C 
ATOM     21  C   UNL     1       8.053   6.588  18.848  0.00  0.00    +0.000 C 
ATOM     22  C   UNL     1       6.946   5.540  18.854  0.00  0.00    +0.000 C 
ENDBRANCH  17  18
BRANCH  17  23
ATOM     23  C   UNL     1       4.733   4.027  16.477  0.00  0.00    +0.000 C 
BRANCH  23  25
ATOM     24  C   UNL     1       5.902   4.041  14.200  0.00  0.00    +0.000 C 
ATOM     25  C   UNL     1       5.874   3.801  15.518  0.00  0.00    +0.000 C 
ENDBRANCH  23  25
ENDBRANCH  17  23
ENDBRANCH  16  17
ENDBRANCH   1  16
TORSDOF 6
ENDMDL
MODEL 5
REMARK VINA RESULT:      -7.6      1.817      2.861
REMARK  Name = 
REMARK  6 active torsions:
REMARK  status: ('A' for Active; 'I' for Inactive)
REMARK    1  A    between atoms: C_2  and  C_3
REMARK    2  A    between atoms: C_3  and  N_4
REMARK    3  A    between atoms: N_4  and  C_5
REMARK    4  A    between atoms: N_4  and  C_21
REMARK    5  A    between atoms: C_5  and  C_6
REMARK    6  A    between atoms: C_9  and  C_10
REMARK                            x       y       z     vdW  Elec       q    Type
REMARK                         _______ _______ _______ _____ _____    ______ ____
ROOT
ATOM      1  C   UNL     1       3.098   5.815  19.811  0.00  0.00    +0.000 A 
ATOM      2  C   UNL     1       2.037   5.503  20.623  0.00  0.00    +0.000 A 
ATOM      3  O   UNL     1       1.240   6.600  20.724  0.00  0.00    +0.000 OA
ATOM      4  C   UNL     1       1.857   7.546  19.937  0.00  0.00    +0.000 A 
ATOM      5  N   UNL     1       2.958   7.113  19.359  0.00  0.00    +0.000 NA
ENDROOT
BRANCH   4   6
ATOM      6  C   UNL     1       1.183   8.844  19.846  0.00  0.00    +0.000 A 
ATOM      7  C   UNL     1       1.227   9.507  18.603  0.00  0.00    +0.000 A 
ATOM      8  C   UNL     1       0.644  10.756  18.431  0.00  0.00    +0.000 A 
ATOM      9  C   UNL     1       0.002  11.366  19.501  0.00  0.00    +0.000 A 
ATOM     10  C   UNL     1      -0.072  10.738  20.753  0.00  0.00    +0.000 A 
ATOM     11  C   UNL     1      -0.739  11.388  21.806  0.00  0.00    +0.000 A 
ATOM     12  C   UNL     1      -0.843  10.796  23.062  0.00  0.00    +0.000 A 
ATOM     13  C   UNL     1      -0.287   9.546  23.281  0.00  0.00    +0.000 A 
ATOM     14  C   UNL     1       0.381   8.887  22.244  0.00  0.00    +0.000 A 
ATOM     15  C   UNL     1       0.515   9.459  20.949  0.00  0.00    +0.000 A 
ENDBRANCH   4   6
BRANCH   1  16
ATOM     16  C   UNL     1       4.279   4.979  19.441  0.00  0.00    +0.000 C 
BRANCH  16  17
ATOM     17  N   UNL     1       4.594   5.015  17.990  0.00  0.00    +0.000 NA
BRANCH  17  18
ATOM     18  C   UNL     1       5.980   5.487  17.743  0.00  0.00    +0.000 C 
ATOM     19  C   UNL     1       6.077   6.927  17.227  0.00  0.00    +0.000 C 
ATOM     20  C   UNL     1       7.530   7.316  17.461  0.00  0.00    +0.000 C 
ATOM     21  C   UNL     1       7.982   6.535  18.686  0.00  0.00    +0.000 C 
ATOM     22  C   UNL     1       6.868   5.543  18.999  0.00  0.00    +0.000 C 
ENDBRANCH  17  18
BRANCH  17  23
ATOM     23  C   UNL     1       4.351   3.723  17.323  0.00  0.00    +0.000 C 
BRANCH  23  25
ATOM     24  C   UNL     1       2.265   2.352  17.891  0.00  0.00    +0.000 C 
ATOM     25  C   UNL     1       2.923   3.267  17.165  0.00  0.00    +0.000 C 
ENDBRANCH  23  25
ENDBRANCH  17  23
ENDBRANCH  16  17
ENDBRANCH   1  16
TORSDOF 6
ENDMDL
MODEL 6
REMARK VINA RESULT:      -7.6      1.838      8.004
REMARK  Name = 
REMARK  6 active torsions:
REMARK  status: ('A' for Active; 'I' for Inactive)
REMARK    1  A    between atoms: C_2  and  C_3
REMARK    2  A    between atoms: C_3  and  N_4
REMARK    3  A    between atoms: N_4  and  C_5
REMARK    4  A    between atoms: N_4  and  C_21
REMARK    5  A    between atoms: C_5  and  C_6
REMARK    6  A    between atoms: C_9  and  C_10
REMARK                            x       y       z     vdW  Elec       q    Type
REMARK                         _______ _______ _______ _____ _____    ______ ____
ROOT
ATOM      1  C   UNL     1       1.188   9.037  20.115  0.00  0.00    +0.000 A 
ATOM      2  C   UNL     1       1.260   8.071  21.088  0.00  0.00    +0.000 A 
ATOM      3  O   UNL     1       1.871   6.978  20.559  0.00  0.00    +0.000 OA
ATOM      4  C   UNL     1       2.166   7.342  19.266  0.00  0.00    +0.000 A 
ATOM      5  N   UNL     1       1.793   8.568  18.965  0.00  0.00    +0.000 NA
ENDROOT
BRANCH   4   6
ATOM      6  C   UNL     1       2.864   6.337  18.459  0.00  0.00    +0.000 A 
ATOM      7  C   UNL     1       3.938   6.781  17.664  0.00  0.00    +0.000 A 
ATOM      8  C   UNL     1       4.638   5.906  16.843  0.00  0.00    +0.000 A 
ATOM      9  C   UNL     1       4.276   4.565  16.804  0.00  0.00    +0.000 A 
ATOM     10  C   UNL     1       3.218   4.079  17.585  0.00  0.00    +0.000 A 
ATOM     11  C   UNL     1       2.891   2.714  17.521  0.00  0.00    +0.000 A 
ATOM     12  C   UNL     1       1.854   2.188  18.286  0.00  0.00    +0.000 A 
ATOM     13  C   UNL     1       1.133   3.018  19.129  0.00  0.00    +0.000 A 
ATOM     14  C   UNL     1       1.445   4.380  19.203  0.00  0.00    +0.000 A 
ATOM     15  C   UNL     1       2.492   4.957  18.434  0.00  0.00    +0.000 A 
ENDBRANCH   4   6
BRANCH   1  16
ATOM     16  C   UNL     1       0.553  10.387  20.173  0.00  0.00    +0.000 C 
BRANCH  16  17
ATOM     17  N   UNL     1       0.059  10.862  18.855  0.00  0.00    +0.000 NA
BRANCH  17  18
ATOM     18  C   UNL     1      -1.375  10.529  18.657  0.00  0.00    +0.000 C 
ATOM     19  C   UNL     1      -2.311  11.743  18.633  0.00  0.00    +0.000 C 
ATOM     20  C   UNL     1      -3.596  11.218  18.007  0.00  0.00    +0.000 C 
ATOM     21  C   UNL     1      -3.175  10.111  17.050  0.00  0.00    +0.000 C 
ATOM     22  C   UNL     1      -1.694   9.860  17.308  0.00  0.00    +0.000 C 
ENDBRANCH  17  18
BRANCH  17  23
ATOM     23  C   UNL     1       0.299  12.300  18.642  0.00  0.00    +0.000 C 
BRANCH  23  25
ATOM     24  C   UNL     1       2.527  13.482  18.202  0.00  0.00    +0.000 C 
ATOM     25  C   UNL     1       1.656  12.851  19.001  0.00  0.00    +0.000 C 
ENDBRANCH  23  25
ENDBRANCH  17  23
ENDBRANCH  16  17
ENDBRANCH   1  16
TORSDOF 6
ENDMDL
MODEL 7
REMARK VINA RESULT:      -7.6      1.456      8.157
REMARK  Name = 
REMARK  6 active torsions:
REMARK  status: ('A' for Active; 'I' for Inactive)
REMARK    1  A    between atoms: C_2  and  C_3
REMARK    2  A    between atoms: C_3  and  N_4
REMARK    3  A    between atoms: N_4  and  C_5
REMARK    4  A    between atoms: N_4  and  C_21
REMARK    5  A    between atoms: C_5  and  C_6
REMARK    6  A    between atoms: C_9  and  C_10
REMARK                            x       y       z     vdW  Elec       q    Type
REMARK                         _______ _______ _______ _____ _____    ______ ____
ROOT
ATOM      1  C   UNL     1       1.608   8.998  18.891  0.00  0.00    +0.000 A 
ATOM      2  C   UNL     1       1.986   9.384  17.629  0.00  0.00    +0.000 A 
ATOM      3  O   UNL     1       2.796   8.421  17.114  0.00  0.00    +0.000 OA
ATOM      4  C   UNL     1       2.861   7.463  18.100  0.00  0.00    +0.000 A 
ATOM      5  N   UNL     1       2.152   7.760  19.169  0.00  0.00    +0.000 NA
ENDROOT
BRANCH   4   6
ATOM      6  C   UNL     1       3.666   6.278  17.792  0.00  0.00    +0.000 A 
ATOM      7  C   UNL     1       4.999   6.492  17.390  0.00  0.00    +0.000 A 
ATOM      8  C   UNL     1       5.828   5.432  17.048  0.00  0.00    +0.000 A 
ATOM      9  C   UNL     1       5.338   4.132  17.104  0.00  0.00    +0.000 A 
ATOM     10  C   UNL     1       4.020   3.874  17.506  0.00  0.00    +0.000 A 
ATOM     11  C   UNL     1       3.568   2.544  17.556  0.00  0.00    +0.000 A 
ATOM     12  C   UNL     1       2.270   2.243  17.958  0.00  0.00    +0.000 A 
ATOM     13  C   UNL     1       1.408   3.266  18.320  0.00  0.00    +0.000 A 
ATOM     14  C   UNL     1       1.842   4.594  18.274  0.00  0.00    +0.000 A 
ATOM     15  C   UNL     1       3.157   4.945  17.863  0.00  0.00    +0.000 A 
ENDBRANCH   4   6
BRANCH   1  16
ATOM     16  C   UNL     1       0.781   9.734  19.892  0.00  0.00    +0.000 C 
BRANCH  16  17
ATOM     17  N   UNL     1       0.114  10.940  19.334  0.00  0.00    +0.000 NA
BRANCH  17  18
ATOM     18  C   UNL     1      -1.343  10.721  19.146  0.00  0.00    +0.000 C 
ATOM     19  C   UNL     1      -2.189  11.998  19.206  0.00  0.00    +0.000 C 
ATOM     20  C   UNL     1      -3.517  11.601  18.576  0.00  0.00    +0.000 C 
ATOM     21  C   UNL     1      -3.192  10.522  17.553  0.00  0.00    +0.000 C 
ATOM     22  C   UNL     1      -1.729  10.152  17.769  0.00  0.00    +0.000 C 
ENDBRANCH  17  18
BRANCH  17  23
ATOM     23  C   UNL     1       0.366  12.151  20.134  0.00  0.00    +0.000 C 
BRANCH  23  25
ATOM     24  C   UNL     1       2.187  13.204  18.675  0.00  0.00    +0.000 C 
ATOM     25  C   UNL     1       1.629  12.929  19.862  0.00  0.00    +0.000 C 
ENDBRANCH  23  25
ENDBRANCH  17  23
ENDBRANCH  16  17
ENDBRANCH   1  16
TORSDOF 6
ENDMDL
MODEL 8
REMARK VINA RESULT:      -7.6      1.793      7.953
REMARK  Name = 
REMARK  6 active torsions:
REMARK  status: ('A' for Active; 'I' for Inactive)
REMARK    1  A    between atoms: C_2  and  C_3
REMARK    2  A    between atoms: C_3  and  N_4
REMARK    3  A    between atoms: N_4  and  C_5
REMARK    4  A    between atoms: N_4  and  C_21
REMARK    5  A    between atoms: C_5  and  C_6
REMARK    6  A    between atoms: C_9  and  C_10
REMARK                            x       y       z     vdW  Elec       q    Type
REMARK                         _______ _______ _______ _____ _____    ______ ____
ROOT
ATOM      1  C   UNL     1       1.604   9.037  18.787  0.00  0.00    +0.000 A 
ATOM      2  C   UNL     1       1.725   8.412  20.003  0.00  0.00    +0.000 A 
ATOM      3  O   UNL     1       2.301   7.197  19.802  0.00  0.00    +0.000 OA
ATOM      4  C   UNL     1       2.525   7.142  18.445  0.00  0.00    +0.000 A 
ATOM      5  N   UNL     1       2.141   8.227  17.805  0.00  0.00    +0.000 NA
ENDROOT
BRANCH   4   6
ATOM      6  C   UNL     1       3.171   5.925  17.949  0.00  0.00    +0.000 A 
ATOM      7  C   UNL     1       4.351   6.083  17.195  0.00  0.00    +0.000 A 
ATOM      8  C   UNL     1       5.015   4.988  16.657  0.00  0.00    +0.000 A 
ATOM      9  C   UNL     1       4.512   3.710  16.867  0.00  0.00    +0.000 A 
ATOM     10  C   UNL     1       3.345   3.507  17.617  0.00  0.00    +0.000 A 
ATOM     11  C   UNL     1       2.876   2.196  17.811  0.00  0.00    +0.000 A 
ATOM     12  C   UNL     1       1.727   1.949  18.557  0.00  0.00    +0.000 A 
ATOM     13  C   UNL     1       1.035   3.008  19.124  0.00  0.00    +0.000 A 
ATOM     14  C   UNL     1       1.488   4.318  18.939  0.00  0.00    +0.000 A 
ATOM     15  C   UNL     1       2.653   4.613  18.179  0.00  0.00    +0.000 A 
ENDBRANCH   4   6
BRANCH   1  16
ATOM     16  C   UNL     1       0.979  10.353  18.463  0.00  0.00    +0.000 C 
BRANCH  16  17
ATOM     17  N   UNL     1      -0.094  10.746  19.413  0.00  0.00    +0.000 NA
BRANCH  17  18
ATOM     18  C   UNL     1      -0.009  12.186  19.767  0.00  0.00    +0.000 C 
ATOM     19  C   UNL     1       0.360  13.107  18.598  0.00  0.00    +0.000 C 
ATOM     20  C   UNL     1      -0.030  14.499  19.075  0.00  0.00    +0.000 C 
ATOM     21  C   UNL     1      -1.211  14.305  20.016  0.00  0.00    +0.000 C 
ATOM     22  C   UNL     1      -1.335  12.803  20.247  0.00  0.00    +0.000 C 
ENDBRANCH  17  18
BRANCH  17  23
ATOM     23  C   UNL     1      -1.441  10.402  18.923  0.00  0.00    +0.000 C 
BRANCH  23  25
ATOM     24  C   UNL     1      -2.749   9.905  16.780  0.00  0.00    +0.000 C 
ATOM     25  C   UNL     1      -1.612  10.140  17.449  0.00  0.00    +0.000 C 
ENDBRANCH  23  25
ENDBRANCH  17  23
ENDBRANCH  16  17
ENDBRANCH   1  16
TORSDOF 6
ENDMDL
MODEL 9
REMARK VINA RESULT:      -7.6      1.626      3.396
REMARK  Name = 
REMARK  6 active torsions:
REMARK  status: ('A' for Active; 'I' for Inactive)
REMARK    1  A    between atoms: C_2  and  C_3
REMARK    2  A    between atoms: C_3  and  N_4
REMARK    3  A    between atoms: N_4  and  C_5
REMARK    4  A    between atoms: N_4  and  C_21
REMARK    5  A    between atoms: C_5  and  C_6
REMARK    6  A    between atoms: C_9  and  C_10
REMARK                            x       y       z     vdW  Elec       q    Type
REMARK                         _______ _______ _______ _____ _____    ______ ____
ROOT
ATOM      1  C   UNL     1       2.342   7.609  18.705  0.00  0.00    +0.000 A 
ATOM      2  C   UNL     1       2.195   8.786  18.015  0.00  0.00    +0.000 A 
ATOM      3  O   UNL     1       1.457   9.637  18.776  0.00  0.00    +0.000 OA
ATOM      4  C   UNL     1       1.197   8.931  19.928  0.00  0.00    +0.000 A 
ATOM      5  N   UNL     1       1.723   7.723  19.935  0.00  0.00    +0.000 NA
ENDROOT
BRANCH   4   6
ATOM      6  C   UNL     1       0.422   9.635  20.952  0.00  0.00    +0.000 A 
ATOM      7  C   UNL     1       0.539   9.176  22.279  0.00  0.00    +0.000 A 
ATOM      8  C   UNL     1      -0.181   9.761  23.311  0.00  0.00    +0.000 A 
ATOM      9  C   UNL     1      -1.036  10.823  23.036  0.00  0.00    +0.000 A 
ATOM     10  C   UNL     1      -1.177  11.316  21.731  0.00  0.00    +0.000 A 
ATOM     11  C   UNL     1      -2.046  12.396  21.498  0.00  0.00    +0.000 A 
ATOM     12  C   UNL     1      -2.209  12.922  20.220  0.00  0.00    +0.000 A 
ATOM     13  C   UNL     1      -1.503  12.379  19.158  0.00  0.00    +0.000 A 
ATOM     14  C   UNL     1      -0.636  11.304  19.373  0.00  0.00    +0.000 A 
ATOM     15  C   UNL     1      -0.446  10.733  20.661  0.00  0.00    +0.000 A 
ENDBRANCH   4   6
BRANCH   1  16
ATOM     16  C   UNL     1       3.009   6.343  18.278  0.00  0.00    +0.000 C 
BRANCH  16  17
ATOM     17  N   UNL     1       3.651   5.608  19.399  0.00  0.00    +0.000 NA
BRANCH  17  18
ATOM     18  C   UNL     1       2.942   4.337  19.695  0.00  0.00    +0.000 C 
ATOM     19  C   UNL     1       2.254   4.298  21.064  0.00  0.00    +0.000 C 
ATOM     20  C   UNL     1       1.276   3.135  20.964  0.00  0.00    +0.000 C 
ATOM     21  C   UNL     1       0.861   3.062  19.501  0.00  0.00    +0.000 C 
ATOM     22  C   UNL     1       1.772   4.023  18.746  0.00  0.00    +0.000 C 
ENDBRANCH  17  18
BRANCH  17  23
ATOM     23  C   UNL     1       5.088   5.371  19.175  0.00  0.00    +0.000 C 
BRANCH  23  25
ATOM     24  C   UNL     1       5.623   4.314  16.905  0.00  0.00    +0.000 C 
ATOM     25  C   UNL     1       5.483   4.258  18.237  0.00  0.00    +0.000 C 
ENDBRANCH  23  25
ENDBRANCH  17  23
ENDBRANCH  16  17
ENDBRANCH   1  16
TORSDOF 6
ENDMDL
