MODEL 1
REMARK VINA RESULT:      -7.8      0.000      0.000
REMARK  Name = 
REMARK  5 active torsions:
REMARK  status: ('A' for Active; 'I' for Inactive)
REMARK    1  A    between atoms: C_1  and  N_2
REMARK    2  A    between atoms: N_5  and  C_6
REMARK    3  A    between atoms: C_11  and  C_12
REMARK    4  A    between atoms: C_12  and  C_13
REMARK    5  A    between atoms: C_13  and  C_15
REMARK                            x       y       z     vdW  Elec       q    Type
REMARK                         _______ _______ _______ _____ _____    ______ ____
ROOT
ATOM      1  C   UNL     1       7.824   6.822  18.015  0.00  0.00    +0.000 C 
ATOM      2  N   UNL     1       6.853   5.829  17.584  0.00  0.00    +0.000 N 
ATOM      3  C   UNL     1       6.893   5.442  16.240  0.00  0.00    +0.000 A 
ATOM      4  O   UNL     1       7.711   5.915  15.450  0.00  0.00    +0.000 OA
ATOM      5  N   UNL     1       5.958   4.505  15.840  0.00  0.00    +0.000 N 
ATOM      6  C   UNL     1       5.920   4.043  14.461  0.00  0.00    +0.000 C 
ATOM      7  C   UNL     1       5.061   4.018  16.761  0.00  0.00    +0.000 A 
ATOM      8  N   UNL     1       4.114   3.147  16.512  0.00  0.00    +0.000 NA
ATOM      9  C   UNL     1       3.460   2.972  17.699  0.00  0.00    +0.000 A 
ATOM     10 CL   UNL     1       2.115   1.935  17.821  0.00  0.00    +0.000 Cl
ATOM     11  C   UNL     1       4.001   3.763  18.695  0.00  0.00    +0.000 A 
ATOM     12  N   UNL     1       5.057   4.432  18.070  0.00  0.00    +0.000 N 
ATOM     13  C   UNL     1       5.956   5.380  18.562  0.00  0.00    +0.000 A 
ATOM     14  O   UNL     1       5.885   5.741  19.725  0.00  0.00    +0.000 OA
ENDROOT
BRANCH  11  15
ATOM     15  C   UNL     1       3.550   3.931  20.121  0.00  0.00    +0.000 C 
BRANCH  15  16
ATOM     16  C   UNL     1       2.182   4.599  20.249  0.00  0.00    +0.000 C 
ATOM     17  O   UNL     1       1.196   4.010  20.691  0.00  0.00    +0.000 OA
BRANCH  16  18
ATOM     18  C   UNL     1       2.042   6.035  19.813  0.00  0.00    +0.000 A 
ATOM     19  C   UNL     1       2.345   6.461  18.512  0.00  0.00    +0.000 A 
ATOM     20  C   UNL     1       2.241   7.814  18.162  0.00  0.00    +0.000 A 
ATOM     21  C   UNL     1       1.828   8.755  19.102  0.00  0.00    +0.000 A 
ATOM     22  C   UNL     1       1.503   8.344  20.391  0.00  0.00    +0.000 A 
ATOM     23  C   UNL     1       1.604   6.992  20.744  0.00  0.00    +0.000 A 
ENDBRANCH  16  18
ENDBRANCH  15  16
ENDBRANCH  11  15
TORSDOF 3
ENDMDL
MODEL 2
REMARK VINA RESULT:      -7.7      0.097      1.009
REMARK  Name = 
REMARK  5 active torsions:
REMARK  status: ('A' for Active; 'I' for Inactive)
REMARK    1  A    between atoms: C_1  and  N_2
REMARK    2  A    between atoms: N_5  and  C_6
REMARK    3  A    between atoms: C_11  and  C_12
REMARK    4  A    between atoms: C_12  and  C_13
REMARK    5  A    between atoms: C_13  and  C_15
REMARK                            x       y       z     vdW  Elec       q    Type
REMARK                         _______ _______ _______ _____ _____    ______ ____
ROOT
ATOM      1  C   UNL     1       7.837   6.788  18.022  0.00  0.00    +0.000 C 
ATOM      2  N   UNL     1       6.841   5.815  17.600  0.00  0.00    +0.000 N 
ATOM      3  C   UNL     1       6.872   5.415  16.260  0.00  0.00    +0.000 A 
ATOM      4  O   UNL     1       7.701   5.861  15.465  0.00  0.00    +0.000 OA
ATOM      5  N   UNL     1       5.915   4.497  15.867  0.00  0.00    +0.000 N 
ATOM      6  C   UNL     1       5.865   4.024  14.493  0.00  0.00    +0.000 C 
ATOM      7  C   UNL     1       5.006   4.041  16.793  0.00  0.00    +0.000 A 
ATOM      8  N   UNL     1       4.038   3.190  16.553  0.00  0.00    +0.000 NA
ATOM      9  C   UNL     1       3.381   3.042  17.741  0.00  0.00    +0.000 A 
ATOM     10 CL   UNL     1       2.011   2.040  17.872  0.00  0.00    +0.000 Cl
ATOM     11  C   UNL     1       3.941   3.830  18.730  0.00  0.00    +0.000 A 
ATOM     12  N   UNL     1       5.012   4.467  18.099  0.00  0.00    +0.000 N 
ATOM     13  C   UNL     1       5.934   5.397  18.582  0.00  0.00    +0.000 A 
ATOM     14  O   UNL     1       5.873   5.771  19.741  0.00  0.00    +0.000 OA
ENDROOT
BRANCH  11  15
ATOM     15  C   UNL     1       3.494   4.021  20.154  0.00  0.00    +0.000 C 
BRANCH  15  16
ATOM     16  C   UNL     1       2.133   4.704  20.275  0.00  0.00    +0.000 C 
ATOM     17  O   UNL     1       1.130   4.116  20.679  0.00  0.00    +0.000 OA
BRANCH  16  18
ATOM     18  C   UNL     1       2.021   6.155  19.882  0.00  0.00    +0.000 A 
ATOM     19  C   UNL     1       1.564   7.142  20.767  0.00  0.00    +0.000 A 
ATOM     20  C   UNL     1       1.436   8.473  20.346  0.00  0.00    +0.000 A 
ATOM     21  C   UNL     1       1.769   8.835  19.043  0.00  0.00    +0.000 A 
ATOM     22  C   UNL     1       2.246   7.870  18.161  0.00  0.00    +0.000 A 
ATOM     23  C   UNL     1       2.376   6.539  18.578  0.00  0.00    +0.000 A 
ENDBRANCH  16  18
ENDBRANCH  15  16
ENDBRANCH  11  15
TORSDOF 3
ENDMDL
MODEL 3
REMARK VINA RESULT:      -7.3      2.497      6.485
REMARK  Name = 
REMARK  5 active torsions:
REMARK  status: ('A' for Active; 'I' for Inactive)
REMARK    1  A    between atoms: C_1  and  N_2
REMARK    2  A    between atoms: N_5  and  C_6
REMARK    3  A    between atoms: C_11  and  C_12
REMARK    4  A    between atoms: C_12  and  C_13
REMARK    5  A    between atoms: C_13  and  C_15
REMARK                            x       y       z     vdW  Elec       q    Type
REMARK                         _______ _______ _______ _____ _____    ______ ____
ROOT
ATOM      1  C   UNL     1       2.147   3.917  21.355  0.00  0.00    +0.000 C 
ATOM      2  N   UNL     1       2.533   4.860  20.318  0.00  0.00    +0.000 N 
ATOM      3  C   UNL     1       1.977   6.143  20.386  0.00  0.00    +0.000 A 
ATOM      4  O   UNL     1       1.194   6.466  21.281  0.00  0.00    +0.000 OA
ATOM      5  N   UNL     1       2.343   7.028  19.390  0.00  0.00    +0.000 N 
ATOM      6  C   UNL     1       1.813   8.383  19.374  0.00  0.00    +0.000 C 
ATOM      7  C   UNL     1       3.212   6.610  18.409  0.00  0.00    +0.000 A 
ATOM      8  N   UNL     1       3.624   7.337  17.399  0.00  0.00    +0.000 NA
ATOM      9  C   UNL     1       4.449   6.521  16.677  0.00  0.00    +0.000 A 
ATOM     10 CL   UNL     1       5.183   7.059  15.238  0.00  0.00    +0.000 Cl
ATOM     11  C   UNL     1       4.533   5.261  17.241  0.00  0.00    +0.000 A 
ATOM     12  N   UNL     1       3.729   5.338  18.381  0.00  0.00    +0.000 N 
ATOM     13  C   UNL     1       3.409   4.375  19.339  0.00  0.00    +0.000 A 
ATOM     14  O   UNL     1       3.866   3.248  19.247  0.00  0.00    +0.000 OA
ENDROOT
BRANCH  11  15
ATOM     15  C   UNL     1       5.268   4.047  16.740  0.00  0.00    +0.000 C 
BRANCH  15  16
ATOM     16  C   UNL     1       6.629   4.374  16.127  0.00  0.00    +0.000 C 
ATOM     17  O   UNL     1       7.613   4.659  16.809  0.00  0.00    +0.000 OA
BRANCH  16  18
ATOM     18  C   UNL     1       6.764   4.345  14.625  0.00  0.00    +0.000 A 
ATOM     19  C   UNL     1       7.719   5.110  13.940  0.00  0.00    +0.000 A 
ATOM     20  C   UNL     1       7.782   5.084  12.540  0.00  0.00    +0.000 A 
ATOM     21  C   UNL     1       6.899   4.293  11.809  0.00  0.00    +0.000 A 
ATOM     22  C   UNL     1       5.960   3.512  12.477  0.00  0.00    +0.000 A 
ATOM     23  C   UNL     1       5.895   3.534  13.876  0.00  0.00    +0.000 A 
ENDBRANCH  16  18
ENDBRANCH  15  16
ENDBRANCH  11  15
TORSDOF 3
ENDMDL
MODEL 4
REMARK VINA RESULT:      -7.3      3.269      5.956
REMARK  Name = 
REMARK  5 active torsions:
REMARK  status: ('A' for Active; 'I' for Inactive)
REMARK    1  A    between atoms: C_1  and  N_2
REMARK    2  A    between atoms: N_5  and  C_6
REMARK    3  A    between atoms: C_11  and  C_12
REMARK    4  A    between atoms: C_12  and  C_13
REMARK    5  A    between atoms: C_13  and  C_15
REMARK                            x       y       z     vdW  Elec       q    Type
REMARK                         _______ _______ _______ _____ _____    ______ ____
ROOT
ATOM      1  C   UNL     1       1.932  10.839  17.826  0.00  0.00    +0.000 C 
ATOM      2  N   UNL     1       1.803   9.698  18.718  0.00  0.00    +0.000 N 
ATOM      3  C   UNL     1       1.288   9.943  19.995  0.00  0.00    +0.000 A 
ATOM      4  O   UNL     1       0.956  11.073  20.357  0.00  0.00    +0.000 OA
ATOM      5  N   UNL     1       1.179   8.853  20.837  0.00  0.00    +0.000 N 
ATOM      6  C   UNL     1       0.658   9.011  22.186  0.00  0.00    +0.000 C 
ATOM      7  C   UNL     1       1.575   7.616  20.385  0.00  0.00    +0.000 A 
ATOM      8  N   UNL     1       1.546   6.507  21.083  0.00  0.00    +0.000 NA
ATOM      9  C   UNL     1       2.045   5.542  20.254  0.00  0.00    +0.000 A 
ATOM     10 CL   UNL     1       2.222   3.933  20.779  0.00  0.00    +0.000 Cl
ATOM     11  C   UNL     1       2.406   6.068  19.027  0.00  0.00    +0.000 A 
ATOM     12  N   UNL     1       2.081   7.424  19.123  0.00  0.00    +0.000 N 
ATOM     13  C   UNL     1       2.235   8.466  18.208  0.00  0.00    +0.000 A 
ATOM     14  O   UNL     1       2.724   8.249  17.113  0.00  0.00    +0.000 OA
ENDROOT
BRANCH  11  15
ATOM     15  C   UNL     1       3.052   5.380  17.855  0.00  0.00    +0.000 C 
BRANCH  15  16
ATOM     16  C   UNL     1       4.399   4.742  18.195  0.00  0.00    +0.000 C 
ATOM     17  O   UNL     1       4.517   3.548  18.468  0.00  0.00    +0.000 OA
BRANCH  16  18
ATOM     18  C   UNL     1       5.627   5.617  18.195  0.00  0.00    +0.000 A 
ATOM     19  C   UNL     1       5.788   6.689  17.305  0.00  0.00    +0.000 A 
ATOM     20  C   UNL     1       6.964   7.451  17.311  0.00  0.00    +0.000 A 
ATOM     21  C   UNL     1       7.989   7.157  18.208  0.00  0.00    +0.000 A 
ATOM     22  C   UNL     1       7.833   6.110  19.112  0.00  0.00    +0.000 A 
ATOM     23  C   UNL     1       6.658   5.348  19.110  0.00  0.00    +0.000 A 
ENDBRANCH  16  18
ENDBRANCH  15  16
ENDBRANCH  11  15
TORSDOF 3
ENDMDL
MODEL 5
REMARK VINA RESULT:      -7.0      2.548      6.465
REMARK  Name = 
REMARK  5 active torsions:
REMARK  status: ('A' for Active; 'I' for Inactive)
REMARK    1  A    between atoms: C_1  and  N_2
REMARK    2  A    between atoms: N_5  and  C_6
REMARK    3  A    between atoms: C_11  and  C_12
REMARK    4  A    between atoms: C_12  and  C_13
REMARK    5  A    between atoms: C_13  and  C_15
REMARK                            x       y       z     vdW  Elec       q    Type
REMARK                         _______ _______ _______ _____ _____    ______ ____
ROOT
ATOM      1  C   UNL     1       2.186   4.380  21.453  0.00  0.00    +0.000 C 
ATOM      2  N   UNL     1       2.556   5.233  20.335  0.00  0.00    +0.000 N 
ATOM      3  C   UNL     1       2.010   6.521  20.311  0.00  0.00    +0.000 A 
ATOM      4  O   UNL     1       1.249   6.923  21.193  0.00  0.00    +0.000 OA
ATOM      5  N   UNL     1       2.361   7.321  19.238  0.00  0.00    +0.000 N 
ATOM      6  C   UNL     1       1.840   8.674  19.124  0.00  0.00    +0.000 C 
ATOM      7  C   UNL     1       3.205   6.817  18.277  0.00  0.00    +0.000 A 
ATOM      8  N   UNL     1       3.600   7.456  17.202  0.00  0.00    +0.000 NA
ATOM      9  C   UNL     1       4.402   6.577  16.531  0.00  0.00    +0.000 A 
ATOM     10 CL   UNL     1       5.109   6.990  15.039  0.00  0.00    +0.000 Cl
ATOM     11  C   UNL     1       4.490   5.366  17.193  0.00  0.00    +0.000 A 
ATOM     12  N   UNL     1       3.713   5.542  18.341  0.00  0.00    +0.000 N 
ATOM     13  C   UNL     1       3.407   4.662  19.380  0.00  0.00    +0.000 A 
ATOM     14  O   UNL     1       3.854   3.528  19.370  0.00  0.00    +0.000 OA
ENDROOT
BRANCH  11  15
ATOM     15  C   UNL     1       5.206   4.109  16.777  0.00  0.00    +0.000 C 
BRANCH  15  16
ATOM     16  C   UNL     1       6.586   4.370  16.175  0.00  0.00    +0.000 C 
ATOM     17  O   UNL     1       7.581   4.586  16.865  0.00  0.00    +0.000 OA
BRANCH  16  18
ATOM     18  C   UNL     1       6.726   4.360  14.673  0.00  0.00    +0.000 A 
ATOM     19  C   UNL     1       5.919   3.563  13.847  0.00  0.00    +0.000 A 
ATOM     20  C   UNL     1       6.112   3.553  12.459  0.00  0.00    +0.000 A 
ATOM     21  C   UNL     1       7.104   4.341  11.879  0.00  0.00    +0.000 A 
ATOM     22  C   UNL     1       7.897   5.153  12.685  0.00  0.00    +0.000 A 
ATOM     23  C   UNL     1       7.706   5.167  14.073  0.00  0.00    +0.000 A 
ENDBRANCH  16  18
ENDBRANCH  15  16
ENDBRANCH  11  15
TORSDOF 3
ENDMDL
MODEL 6
REMARK VINA RESULT:      -7.0      3.879      6.731
REMARK  Name = 
REMARK  5 active torsions:
REMARK  status: ('A' for Active; 'I' for Inactive)
REMARK    1  A    between atoms: C_1  and  N_2
REMARK    2  A    between atoms: N_5  and  C_6
REMARK    3  A    between atoms: C_11  and  C_12
REMARK    4  A    between atoms: C_12  and  C_13
REMARK    5  A    between atoms: C_13  and  C_15
REMARK                            x       y       z     vdW  Elec       q    Type
REMARK                         _______ _______ _______ _____ _____    ______ ____
ROOT
ATOM      1  C   UNL     1       0.784  12.105  18.693  0.00  0.00    +0.000 C 
ATOM      2  N   UNL     1       0.967  10.834  19.376  0.00  0.00    +0.000 N 
ATOM      3  C   UNL     1       0.549  10.763  20.710  0.00  0.00    +0.000 A 
ATOM      4  O   UNL     1       0.048  11.729  21.288  0.00  0.00    +0.000 OA
ATOM      5  N   UNL     1       0.735   9.553  21.352  0.00  0.00    +0.000 N 
ATOM      6  C   UNL     1       0.336   9.384  22.740  0.00  0.00    +0.000 C 
ATOM      7  C   UNL     1       1.310   8.511  20.662  0.00  0.00    +0.000 A 
ATOM      8  N   UNL     1       1.563   7.322  21.154  0.00  0.00    +0.000 NA
ATOM      9  C   UNL     1       2.146   6.624  20.134  0.00  0.00    +0.000 A 
ATOM     10 CL   UNL     1       2.678   5.022  20.353  0.00  0.00    +0.000 Cl
ATOM     11  C   UNL     1       2.273   7.402  18.998  0.00  0.00    +0.000 A 
ATOM     12  N   UNL     1       1.709   8.629  19.354  0.00  0.00    +0.000 N 
ATOM     13  C   UNL     1       1.568   9.813  18.628  0.00  0.00    +0.000 A 
ATOM     14  O   UNL     1       1.974   9.877  17.481  0.00  0.00    +0.000 OA
ENDROOT
BRANCH  11  15
ATOM     15  C   UNL     1       2.913   7.055  17.681  0.00  0.00    +0.000 C 
BRANCH  15  16
ATOM     16  C   UNL     1       3.803   5.815  17.748  0.00  0.00    +0.000 C 
ATOM     17  O   UNL     1       3.376   4.680  17.538  0.00  0.00    +0.000 OA
BRANCH  16  18
ATOM     18  C   UNL     1       5.262   5.996  18.086  0.00  0.00    +0.000 A 
ATOM     19  C   UNL     1       5.875   5.332  19.159  0.00  0.00    +0.000 A 
ATOM     20  C   UNL     1       7.223   5.563  19.463  0.00  0.00    +0.000 A 
ATOM     21  C   UNL     1       7.976   6.451  18.698  0.00  0.00    +0.000 A 
ATOM     22  C   UNL     1       7.386   7.100  17.617  0.00  0.00    +0.000 A 
ATOM     23  C   UNL     1       6.039   6.871  17.309  0.00  0.00    +0.000 A 
ENDBRANCH  16  18
ENDBRANCH  15  16
ENDBRANCH  11  15
TORSDOF 3
ENDMDL
MODEL 7
REMARK VINA RESULT:      -6.9      2.519      6.680
REMARK  Name = 
REMARK  5 active torsions:
REMARK  status: ('A' for Active; 'I' for Inactive)
REMARK    1  A    between atoms: C_1  and  N_2
REMARK    2  A    between atoms: N_5  and  C_6
REMARK    3  A    between atoms: C_11  and  C_12
REMARK    4  A    between atoms: C_12  and  C_13
REMARK    5  A    between atoms: C_13  and  C_15
REMARK                            x       y       z     vdW  Elec       q    Type
REMARK                         _______ _______ _______ _____ _____    ______ ____
ROOT
ATOM      1  C   UNL     1       1.659   1.986  19.962  0.00  0.00    +0.000 C 
ATOM      2  N   UNL     1       2.254   3.224  19.484  0.00  0.00    +0.000 N 
ATOM      3  C   UNL     1       1.755   4.418  20.017  0.00  0.00    +0.000 A 
ATOM      4  O   UNL     1       0.851   4.429  20.854  0.00  0.00    +0.000 OA
ATOM      5  N   UNL     1       2.321   5.588  19.548  0.00  0.00    +0.000 N 
ATOM      6  C   UNL     1       1.865   6.879  20.041  0.00  0.00    +0.000 C 
ATOM      7  C   UNL     1       3.319   5.518  18.604  0.00  0.00    +0.000 A 
ATOM      8  N   UNL     1       3.926   6.545  18.061  0.00  0.00    +0.000 NA
ATOM      9  C   UNL     1       4.819   6.013  17.175  0.00  0.00    +0.000 A 
ATOM     10 CL   UNL     1       5.804   7.011  16.210  0.00  0.00    +0.000 Cl
ATOM     11  C   UNL     1       4.750   4.632  17.156  0.00  0.00    +0.000 A 
ATOM     12  N   UNL     1       3.774   4.321  18.106  0.00  0.00    +0.000 N 
ATOM     13  C   UNL     1       3.256   3.091  18.514  0.00  0.00    +0.000 A 
ATOM     14  O   UNL     1       3.669   2.059  18.012  0.00  0.00    +0.000 OA
ENDROOT
BRANCH  11  15
ATOM     15  C   UNL     1       5.501   3.659  16.287  0.00  0.00    +0.000 C 
BRANCH  15  16
ATOM     16  C   UNL     1       6.825   4.212  15.763  0.00  0.00    +0.000 C 
ATOM     17  O   UNL     1       7.757   4.517  16.507  0.00  0.00    +0.000 OA
BRANCH  16  18
ATOM     18  C   UNL     1       6.989   4.389  14.275  0.00  0.00    +0.000 A 
ATOM     19  C   UNL     1       7.865   5.333  13.720  0.00  0.00    +0.000 A 
ATOM     20  C   UNL     1       7.955   5.493  12.330  0.00  0.00    +0.000 A 
ATOM     21  C   UNL     1       7.179   4.708  11.480  0.00  0.00    +0.000 A 
ATOM     22  C   UNL     1       6.322   3.751  12.016  0.00  0.00    +0.000 A 
ATOM     23  C   UNL     1       6.231   3.588  13.404  0.00  0.00    +0.000 A 
ENDBRANCH  16  18
ENDBRANCH  15  16
ENDBRANCH  11  15
TORSDOF 3
ENDMDL
MODEL 8
REMARK VINA RESULT:      -6.8      2.547      6.695
REMARK  Name = 
REMARK  5 active torsions:
REMARK  status: ('A' for Active; 'I' for Inactive)
REMARK    1  A    between atoms: C_1  and  N_2
REMARK    2  A    between atoms: N_5  and  C_6
REMARK    3  A    between atoms: C_11  and  C_12
REMARK    4  A    between atoms: C_12  and  C_13
REMARK    5  A    between atoms: C_13  and  C_15
REMARK                            x       y       z     vdW  Elec       q    Type
REMARK                         _______ _______ _______ _____ _____    ______ ____
ROOT
ATOM      1  C   UNL     1       2.008   1.508  20.147  0.00  0.00    +0.000 C 
ATOM      2  N   UNL     1       2.434   2.815  19.672  0.00  0.00    +0.000 N 
ATOM      3  C   UNL     1       1.926   3.933  20.343  0.00  0.00    +0.000 A 
ATOM      4  O   UNL     1       1.152   3.824  21.295  0.00  0.00    +0.000 OA
ATOM      5  N   UNL     1       2.331   5.169  19.877  0.00  0.00    +0.000 N 
ATOM      6  C   UNL     1       1.852   6.389  20.508  0.00  0.00    +0.000 C 
ATOM      7  C   UNL     1       3.188   5.232  18.803  0.00  0.00    +0.000 A 
ATOM      8  N   UNL     1       3.632   6.334  18.249  0.00  0.00    +0.000 NA
ATOM      9  C   UNL     1       4.428   5.926  17.216  0.00  0.00    +0.000 A 
ATOM     10 CL   UNL     1       5.189   7.052  16.191  0.00  0.00    +0.000 Cl
ATOM     11  C   UNL     1       4.462   4.547  17.119  0.00  0.00    +0.000 A 
ATOM     12  N   UNL     1       3.657   4.106  18.172  0.00  0.00    +0.000 N 
ATOM     13  C   UNL     1       3.296   2.817  18.567  0.00  0.00    +0.000 A 
ATOM     14  O   UNL     1       3.711   1.851  17.949  0.00  0.00    +0.000 OA
ENDROOT
BRANCH  11  15
ATOM     15  C   UNL     1       5.153   3.687  16.095  0.00  0.00    +0.000 C 
BRANCH  15  16
ATOM     16  C   UNL     1       6.525   4.220  15.684  0.00  0.00    +0.000 C 
ATOM     17  O   UNL     1       7.397   4.510  16.503  0.00  0.00    +0.000 OA
BRANCH  16  18
ATOM     18  C   UNL     1       6.815   4.396  14.215  0.00  0.00    +0.000 A 
ATOM     19  C   UNL     1       6.234   3.583  13.230  0.00  0.00    +0.000 A 
ATOM     20  C   UNL     1       6.564   3.754  11.879  0.00  0.00    +0.000 A 
ATOM     21  C   UNL     1       7.469   4.740  11.494  0.00  0.00    +0.000 A 
ATOM     22  C   UNL     1       8.035   5.569  12.458  0.00  0.00    +0.000 A 
ATOM     23  C   UNL     1       7.707   5.402  13.810  0.00  0.00    +0.000 A 
ENDBRANCH  16  18
ENDBRANCH  15  16
ENDBRANCH  11  15
TORSDOF 3
ENDMDL
MODEL 9
REMARK VINA RESULT:      -6.8      2.563      6.712
REMARK  Name = 
REMARK  5 active torsions:
REMARK  status: ('A' for Active; 'I' for Inactive)
REMARK    1  A    between atoms: C_1  and  N_2
REMARK    2  A    between atoms: N_5  and  C_6
REMARK    3  A    between atoms: C_11  and  C_12
REMARK    4  A    between atoms: C_12  and  C_13
REMARK    5  A    between atoms: C_13  and  C_15
REMARK                            x       y       z     vdW  Elec       q    Type
REMARK                         _______ _______ _______ _____ _____    ______ ____
ROOT
ATOM      1  C   UNL     1       2.239   2.113  17.874  0.00  0.00    +0.000 C 
ATOM      2  N   UNL     1       2.968   3.369  17.949  0.00  0.00    +0.000 N 
ATOM      3  C   UNL     1       2.333   4.436  18.593  0.00  0.00    +0.000 A 
ATOM      4  O   UNL     1       1.205   4.326  19.078  0.00  0.00    +0.000 OA
ATOM      5  N   UNL     1       3.032   5.628  18.650  0.00  0.00    +0.000 N 
ATOM      6  C   UNL     1       2.451   6.794  19.297  0.00  0.00    +0.000 C 
ATOM      7  C   UNL     1       4.282   5.698  18.082  0.00  0.00    +0.000 A 
ATOM      8  N   UNL     1       5.041   6.766  18.047  0.00  0.00    +0.000 NA
ATOM      9  C   UNL     1       6.170   6.387  17.376  0.00  0.00    +0.000 A 
ATOM     10 CL   UNL     1       7.425   7.494  17.066  0.00  0.00    +0.000 Cl
ATOM     11  C   UNL     1       6.099   5.066  16.975  0.00  0.00    +0.000 A 
ATOM     12  N   UNL     1       4.864   4.624  17.455  0.00  0.00    +0.000 N 
ATOM     13  C   UNL     1       4.231   3.385  17.342  0.00  0.00    +0.000 A 
ATOM     14  O   UNL     1       4.776   2.475  16.742  0.00  0.00    +0.000 OA
ENDROOT
BRANCH  11  15
ATOM     15  C   UNL     1       7.084   4.270  16.160  0.00  0.00    +0.000 C 
BRANCH  15  16
ATOM     16  C   UNL     1       7.266   4.804  14.740  0.00  0.00    +0.000 C 
ATOM     17  O   UNL     1       8.003   5.755  14.479  0.00  0.00    +0.000 OA
BRANCH  16  18
ATOM     18  C   UNL     1       6.510   4.136  13.620  0.00  0.00    +0.000 A 
ATOM     19  C   UNL     1       5.110   4.060  13.597  0.00  0.00    +0.000 A 
ATOM     20  C   UNL     1       4.450   3.392  12.556  0.00  0.00    +0.000 A 
ATOM     21  C   UNL     1       5.176   2.799  11.527  0.00  0.00    +0.000 A 
ATOM     22  C   UNL     1       6.566   2.885  11.526  0.00  0.00    +0.000 A 
ATOM     23  C   UNL     1       7.229   3.553  12.563  0.00  0.00    +0.000 A 
ENDBRANCH  16  18
ENDBRANCH  15  16
ENDBRANCH  11  15
TORSDOF 3
ENDMDL
