MODEL 1
REMARK VINA RESULT:      -8.0      0.000      0.000
REMARK  Name = 
REMARK  13 active torsions:
REMARK  status: ('A' for Active; 'I' for Inactive)
REMARK    1  A    between atoms: C_1  and  O_2
REMARK    2  A    between atoms: O_2  and  C_3
REMARK    3  A    between atoms: C_7  and  C_8
REMARK    4  A    between atoms: C_7  and  C_13
REMARK    5  A    between atoms: C_8  and  C_9
REMARK    6  A    between atoms: C_10  and  C_11
REMARK    7  A    between atoms: C_10  and  C_12
REMARK    8  A    between atoms: C_13  and  C_14
REMARK    9  A    between atoms: C_15  and  C_16
REMARK   10  A    between atoms: C_15  and  C_17
REMARK   11  A    between atoms: C_21  and  N_22
REMARK   12  A    between atoms: C_21  and  C_23
REMARK   13  A    between atoms: C_24  and  C_25
REMARK                            x       y       z     vdW  Elec       q    Type
REMARK                         _______ _______ _______ _____ _____    ______ ____
ROOT
ATOM      1  C   UNL     1      -0.037  10.436  21.355  0.00  0.00    +0.000 C 
ATOM      2  C   UNL     1      -1.048  11.290  21.176  0.00  0.00    +0.000 C 
ATOM      3  C   UNL     1      -1.695  11.523  19.885  0.00  0.00    +0.000 C 
ATOM      4  O   UNL     1      -2.665  12.281  19.893  0.00  0.00    +0.000 OA
ATOM      5  C   UNL     1      -1.140  10.895  18.625  0.00  0.00    +0.000 C 
ATOM      6  C   UNL     1       0.089  10.004  18.845  0.00  0.00    +0.000 C 
ATOM      7  O   UNL     1       0.663   9.542  17.853  0.00  0.00    +0.000 OA
ATOM      8  C   UNL     1       0.550   9.644  20.254  0.00  0.00    +0.000 C 
ATOM      9  C   UNL     1       1.431   8.611  20.455  0.00  0.00    +0.000 C 
ENDROOT
BRANCH   9  10
ATOM     10  N   UNL     1       1.828   8.160  21.716  0.00  0.00    +0.000 N 
ATOM     11  H   UNL     1       1.550   7.191  21.871  0.00  0.00    +0.000 HD
ATOM     12  H   UNL     1       1.455   8.756  22.451  0.00  0.00    +0.000 HD
ENDBRANCH   9  10
BRANCH   1  14
ATOM     13  C   UNL     1      -0.212   9.671  23.632  0.00  0.00    +0.000 C 
ATOM     14  O   UNL     1       0.570  10.264  22.595  0.00  0.00    +0.000 OA
ENDBRANCH   1  14
BRANCH   9  15
ATOM     15  C   UNL     1       2.121   7.896  19.373  0.00  0.00    +0.000 C 
ATOM     16  C   UNL     1       2.617   6.646  19.438  0.00  0.00    +0.000 C 
BRANCH  16  17
ATOM     17  C   UNL     1       3.343   6.009  18.326  0.00  0.00    +0.000 A 
ATOM     18  C   UNL     1       4.168   6.792  17.509  0.00  0.00    +0.000 A 
ATOM     19  C   UNL     1       4.848   6.226  16.423  0.00  0.00    +0.000 A 
ATOM     20  C   UNL     1       4.721   4.866  16.151  0.00  0.00    +0.000 A 
ATOM     21  C   UNL     1       3.933   4.069  16.973  0.00  0.00    +0.000 A 
ATOM     22  C   UNL     1       3.255   4.630  18.059  0.00  0.00    +0.000 A 
ENDBRANCH  16  17
ENDBRANCH   9  15
BRANCH   5  23
ATOM     23  C   UNL     1      -0.725  12.094  17.711  0.00  0.00    +0.000 C 
BRANCH  23  24
ATOM     24  C   UNL     1      -0.117  13.287  18.408  0.00  0.00    +0.000 C 
ATOM     25  C   UNL     1       1.189  13.572  18.554  0.00  0.00    +0.000 C 
ATOM     26  C   UNL     1       2.322  12.666  18.160  0.00  0.00    +0.000 C 
ATOM     27  C   UNL     1       1.616  14.889  19.145  0.00  0.00    +0.000 C 
ENDBRANCH  23  24
ENDBRANCH   5  23
BRANCH   5  28
ATOM     28  C   UNL     1      -2.244   9.982  18.006  0.00  0.00    +0.000 C 
BRANCH  28  29
ATOM     29  C   UNL     1      -2.265   9.875  16.498  0.00  0.00    +0.000 C 
ATOM     30  C   UNL     1      -3.181  10.399  15.666  0.00  0.00    +0.000 C 
ATOM     31  C   UNL     1      -4.380  11.189  16.107  0.00  0.00    +0.000 C 
ATOM     32  C   UNL     1      -3.051  10.216  14.174  0.00  0.00    +0.000 C 
ENDBRANCH  28  29
ENDBRANCH   5  28
TORSDOF 8
ENDMDL
MODEL 2
REMARK VINA RESULT:      -7.6      1.012      1.671
REMARK  Name = 
REMARK  13 active torsions:
REMARK  status: ('A' for Active; 'I' for Inactive)
REMARK    1  A    between atoms: C_1  and  O_2
REMARK    2  A    between atoms: O_2  and  C_3
REMARK    3  A    between atoms: C_7  and  C_8
REMARK    4  A    between atoms: C_7  and  C_13
REMARK    5  A    between atoms: C_8  and  C_9
REMARK    6  A    between atoms: C_10  and  C_11
REMARK    7  A    between atoms: C_10  and  C_12
REMARK    8  A    between atoms: C_13  and  C_14
REMARK    9  A    between atoms: C_15  and  C_16
REMARK   10  A    between atoms: C_15  and  C_17
REMARK   11  A    between atoms: C_21  and  N_22
REMARK   12  A    between atoms: C_21  and  C_23
REMARK   13  A    between atoms: C_24  and  C_25
REMARK                            x       y       z     vdW  Elec       q    Type
REMARK                         _______ _______ _______ _____ _____    ______ ____
ROOT
ATOM      1  C   UNL     1       0.266   9.575  21.223  0.00  0.00    +0.000 C 
ATOM      2  C   UNL     1      -0.618  10.573  21.158  0.00  0.00    +0.000 C 
ATOM      3  C   UNL     1      -0.993  11.247  19.915  0.00  0.00    +0.000 C 
ATOM      4  O   UNL     1      -1.881  12.096  20.005  0.00  0.00    +0.000 OA
ATOM      5  C   UNL     1      -0.269  10.934  18.624  0.00  0.00    +0.000 C 
ATOM      6  C   UNL     1       0.818   9.859  18.749  0.00  0.00    +0.000 C 
ATOM      7  O   UNL     1       1.525   9.624  17.763  0.00  0.00    +0.000 OA
ATOM      8  C   UNL     1       0.978   9.056  20.036  0.00  0.00    +0.000 C 
ATOM      9  C   UNL     1       1.717   7.900  20.047  0.00  0.00    +0.000 C 
ENDROOT
BRANCH   9  10
ATOM     10  N   UNL     1       1.835   7.061  21.158  0.00  0.00    +0.000 N 
ATOM     11  H   UNL     1       1.279   7.400  21.943  0.00  0.00    +0.000 HD
ATOM     12  H   UNL     1       2.808   6.954  21.434  0.00  0.00    +0.000 HD
ENDBRANCH   9  10
BRANCH   1  14
ATOM     13  C   UNL     1       0.014   9.496  23.616  0.00  0.00    +0.000 C 
ATOM     14  O   UNL     1       0.617   8.979  22.430  0.00  0.00    +0.000 OA
ENDBRANCH   1  14
BRANCH   9  15
ATOM     15  C   UNL     1       2.533   7.433  18.917  0.00  0.00    +0.000 C 
ATOM     16  C   UNL     1       2.964   6.175  18.716  0.00  0.00    +0.000 C 
BRANCH  16  17
ATOM     17  C   UNL     1       3.823   5.789  17.583  0.00  0.00    +0.000 A 
ATOM     18  C   UNL     1       3.999   4.432  17.289  0.00  0.00    +0.000 A 
ATOM     19  C   UNL     1       4.835   4.027  16.240  0.00  0.00    +0.000 A 
ATOM     20  C   UNL     1       5.492   4.978  15.463  0.00  0.00    +0.000 A 
ATOM     21  C   UNL     1       5.300   6.331  15.721  0.00  0.00    +0.000 A 
ATOM     22  C   UNL     1       4.466   6.737  16.766  0.00  0.00    +0.000 A 
ENDBRANCH  16  17
ENDBRANCH   9  15
BRANCH   5  23
ATOM     23  C   UNL     1       0.406  12.274  18.190  0.00  0.00    +0.000 C 
BRANCH  23  24
ATOM     24  C   UNL     1       1.608  12.710  18.993  0.00  0.00    +0.000 C 
ATOM     25  C   UNL     1       1.674  13.709  19.891  0.00  0.00    +0.000 C 
ATOM     26  C   UNL     1       0.573  14.692  20.175  0.00  0.00    +0.000 C 
ATOM     27  C   UNL     1       2.919  13.906  20.715  0.00  0.00    +0.000 C 
ENDBRANCH  23  24
ENDBRANCH   5  23
BRANCH   5  28
ATOM     28  C   UNL     1      -1.312  10.391  17.599  0.00  0.00    +0.000 C 
BRANCH  28  29
ATOM     29  C   UNL     1      -2.687  11.021  17.635  0.00  0.00    +0.000 C 
ATOM     30  C   UNL     1      -3.550  11.130  16.611  0.00  0.00    +0.000 C 
ATOM     31  C   UNL     1      -3.282  10.644  15.215  0.00  0.00    +0.000 C 
ATOM     32  C   UNL     1      -4.899  11.774  16.814  0.00  0.00    +0.000 C 
ENDBRANCH  28  29
ENDBRANCH   5  28
TORSDOF 8
ENDMDL
MODEL 3
REMARK VINA RESULT:      -7.5      1.063      1.389
REMARK  Name = 
REMARK  13 active torsions:
REMARK  status: ('A' for Active; 'I' for Inactive)
REMARK    1  A    between atoms: C_1  and  O_2
REMARK    2  A    between atoms: O_2  and  C_3
REMARK    3  A    between atoms: C_7  and  C_8
REMARK    4  A    between atoms: C_7  and  C_13
REMARK    5  A    between atoms: C_8  and  C_9
REMARK    6  A    between atoms: C_10  and  C_11
REMARK    7  A    between atoms: C_10  and  C_12
REMARK    8  A    between atoms: C_13  and  C_14
REMARK    9  A    between atoms: C_15  and  C_16
REMARK   10  A    between atoms: C_15  and  C_17
REMARK   11  A    between atoms: C_21  and  N_22
REMARK   12  A    between atoms: C_21  and  C_23
REMARK   13  A    between atoms: C_24  and  C_25
REMARK                            x       y       z     vdW  Elec       q    Type
REMARK                         _______ _______ _______ _____ _____    ______ ____
ROOT
ATOM      1  C   UNL     1       0.271   9.507  21.255  0.00  0.00    +0.000 C 
ATOM      2  C   UNL     1      -0.589  10.526  21.191  0.00  0.00    +0.000 C 
ATOM      3  C   UNL     1      -0.891  11.258  19.961  0.00  0.00    +0.000 C 
ATOM      4  O   UNL     1      -1.764  12.122  20.045  0.00  0.00    +0.000 OA
ATOM      5  C   UNL     1      -0.112  10.982  18.694  0.00  0.00    +0.000 C 
ATOM      6  C   UNL     1       0.947   9.880  18.824  0.00  0.00    +0.000 C 
ATOM      7  O   UNL     1       1.696   9.671  17.863  0.00  0.00    +0.000 OA
ATOM      8  C   UNL     1       1.029   9.021  20.083  0.00  0.00    +0.000 C 
ATOM      9  C   UNL     1       1.744   7.850  20.079  0.00  0.00    +0.000 C 
ENDROOT
BRANCH   9  10
ATOM     10  N   UNL     1       1.791   6.964  21.158  0.00  0.00    +0.000 N 
ATOM     11  H   UNL     1       1.988   6.011  20.851  0.00  0.00    +0.000 HD
ATOM     12  H   UNL     1       0.926   6.991  21.692  0.00  0.00    +0.000 HD
ENDBRANCH   9  10
BRANCH   1  14
ATOM     13  C   UNL     1       0.064   9.451  23.653  0.00  0.00    +0.000 C 
ATOM     14  O   UNL     1       0.552   8.854  22.451  0.00  0.00    +0.000 OA
ENDBRANCH   1  14
BRANCH   9  15
ATOM     15  C   UNL     1       2.603   7.413  18.970  0.00  0.00    +0.000 C 
ATOM     16  C   UNL     1       2.908   6.140  18.656  0.00  0.00    +0.000 C 
BRANCH  16  17
ATOM     17  C   UNL     1       3.819   5.778  17.558  0.00  0.00    +0.000 A 
ATOM     18  C   UNL     1       4.477   6.791  16.851  0.00  0.00    +0.000 A 
ATOM     19  C   UNL     1       5.325   6.486  15.779  0.00  0.00    +0.000 A 
ATOM     20  C   UNL     1       5.537   5.158  15.413  0.00  0.00    +0.000 A 
ATOM     21  C   UNL     1       4.919   4.139  16.126  0.00  0.00    +0.000 A 
ATOM     22  C   UNL     1       4.073   4.441  17.197  0.00  0.00    +0.000 A 
ENDBRANCH  16  17
ENDBRANCH   9  15
BRANCH   5  23
ATOM     23  C   UNL     1       0.610  12.325  18.349  0.00  0.00    +0.000 C 
BRANCH  23  24
ATOM     24  C   UNL     1       1.610  12.827  19.362  0.00  0.00    +0.000 C 
ATOM     25  C   UNL     1       2.530  13.794  19.194  0.00  0.00    +0.000 C 
ATOM     26  C   UNL     1       2.836  14.481  17.893  0.00  0.00    +0.000 C 
ATOM     27  C   UNL     1       3.346  14.274  20.365  0.00  0.00    +0.000 C 
ENDBRANCH  23  24
ENDBRANCH   5  23
BRANCH   5  28
ATOM     28  C   UNL     1      -1.115  10.505  17.598  0.00  0.00    +0.000 C 
BRANCH  28  29
ATOM     29  C   UNL     1      -2.495  11.122  17.631  0.00  0.00    +0.000 C 
ATOM     30  C   UNL     1      -3.420  11.079  16.656  0.00  0.00    +0.000 C 
ATOM     31  C   UNL     1      -3.228  10.403  15.329  0.00  0.00    +0.000 C 
ATOM     32  C   UNL     1      -4.765  11.734  16.850  0.00  0.00    +0.000 C 
ENDBRANCH  28  29
ENDBRANCH   5  28
TORSDOF 8
ENDMDL
MODEL 4
REMARK VINA RESULT:      -7.5      3.508      9.091
REMARK  Name = 
REMARK  13 active torsions:
REMARK  status: ('A' for Active; 'I' for Inactive)
REMARK    1  A    between atoms: C_1  and  O_2
REMARK    2  A    between atoms: O_2  and  C_3
REMARK    3  A    between atoms: C_7  and  C_8
REMARK    4  A    between atoms: C_7  and  C_13
REMARK    5  A    between atoms: C_8  and  C_9
REMARK    6  A    between atoms: C_10  and  C_11
REMARK    7  A    between atoms: C_10  and  C_12
REMARK    8  A    between atoms: C_13  and  C_14
REMARK    9  A    between atoms: C_15  and  C_16
REMARK   10  A    between atoms: C_15  and  C_17
REMARK   11  A    between atoms: C_21  and  N_22
REMARK   12  A    between atoms: C_21  and  C_23
REMARK   13  A    between atoms: C_24  and  C_25
REMARK                            x       y       z     vdW  Elec       q    Type
REMARK                         _______ _______ _______ _____ _____    ______ ____
ROOT
ATOM      1  C   UNL     1       4.865   3.980  18.617  0.00  0.00    +0.000 C 
ATOM      2  C   UNL     1       6.058   3.687  18.093  0.00  0.00    +0.000 C 
ATOM      3  C   UNL     1       6.942   4.680  17.483  0.00  0.00    +0.000 C 
ATOM      4  O   UNL     1       8.044   4.271  17.113  0.00  0.00    +0.000 OA
ATOM      5  C   UNL     1       6.473   6.104  17.281  0.00  0.00    +0.000 C 
ATOM      6  C   UNL     1       5.056   6.386  17.795  0.00  0.00    +0.000 C 
ATOM      7  O   UNL     1       4.561   7.497  17.571  0.00  0.00    +0.000 OA
ATOM      8  C   UNL     1       4.302   5.346  18.619  0.00  0.00    +0.000 C 
ATOM      9  C   UNL     1       3.190   5.702  19.339  0.00  0.00    +0.000 C 
ENDROOT
BRANCH   9  10
ATOM     10  N   UNL     1       2.502   4.833  20.189  0.00  0.00    +0.000 N 
ATOM     11  H   UNL     1       3.039   4.631  21.032  0.00  0.00    +0.000 HD
ATOM     12  H   UNL     1       2.257   3.970  19.709  0.00  0.00    +0.000 HD
ENDBRANCH   9  10
BRANCH   1  14
ATOM     13  C   UNL     1       3.571   1.977  18.286  0.00  0.00    +0.000 C 
ATOM     14  O   UNL     1       4.041   3.001  19.163  0.00  0.00    +0.000 OA
ENDBRANCH   1  14
BRANCH   9  15
ATOM     15  C   UNL     1       2.542   7.018  19.256  0.00  0.00    +0.000 C 
ATOM     16  C   UNL     1       1.832   7.616  20.231  0.00  0.00    +0.000 C 
BRANCH  16  17
ATOM     17  C   UNL     1       1.167   8.919  20.060  0.00  0.00    +0.000 A 
ATOM     18  C   UNL     1       0.485   9.487  21.142  0.00  0.00    +0.000 A 
ATOM     19  C   UNL     1      -0.187  10.709  21.007  0.00  0.00    +0.000 A 
ATOM     20  C   UNL     1      -0.170  11.384  19.788  0.00  0.00    +0.000 A 
ATOM     21  C   UNL     1       0.531  10.849  18.713  0.00  0.00    +0.000 A 
ATOM     22  C   UNL     1       1.203   9.631  18.846  0.00  0.00    +0.000 A 
ENDBRANCH  16  17
ENDBRANCH   9  15
BRANCH   5  23
ATOM     23  C   UNL     1       6.494   6.334  15.735  0.00  0.00    +0.000 C 
BRANCH  23  24
ATOM     24  C   UNL     1       5.904   5.233  14.886  0.00  0.00    +0.000 C 
ATOM     25  C   UNL     1       6.441   4.667  13.791  0.00  0.00    +0.000 C 
ATOM     26  C   UNL     1       7.700   5.124  13.109  0.00  0.00    +0.000 C 
ATOM     27  C   UNL     1       5.782   3.472  13.155  0.00  0.00    +0.000 C 
ENDBRANCH  23  24
ENDBRANCH   5  23
BRANCH   5  28
ATOM     28  C   UNL     1       7.428   7.050  18.073  0.00  0.00    +0.000 C 
BRANCH  28  29
ATOM     29  C   UNL     1       7.568   8.462  17.548  0.00  0.00    +0.000 C 
ATOM     30  C   UNL     1       8.281   9.459  18.099  0.00  0.00    +0.000 C 
ATOM     31  C   UNL     1       9.071   9.339  19.371  0.00  0.00    +0.000 C 
ATOM     32  C   UNL     1       8.334  10.814  17.441  0.00  0.00    +0.000 C 
ENDBRANCH  28  29
ENDBRANCH   5  28
TORSDOF 8
ENDMDL
MODEL 5
REMARK VINA RESULT:      -7.4      1.151      1.979
REMARK  Name = 
REMARK  13 active torsions:
REMARK  status: ('A' for Active; 'I' for Inactive)
REMARK    1  A    between atoms: C_1  and  O_2
REMARK    2  A    between atoms: O_2  and  C_3
REMARK    3  A    between atoms: C_7  and  C_8
REMARK    4  A    between atoms: C_7  and  C_13
REMARK    5  A    between atoms: C_8  and  C_9
REMARK    6  A    between atoms: C_10  and  C_11
REMARK    7  A    between atoms: C_10  and  C_12
REMARK    8  A    between atoms: C_13  and  C_14
REMARK    9  A    between atoms: C_15  and  C_16
REMARK   10  A    between atoms: C_15  and  C_17
REMARK   11  A    between atoms: C_21  and  N_22
REMARK   12  A    between atoms: C_21  and  C_23
REMARK   13  A    between atoms: C_24  and  C_25
REMARK                            x       y       z     vdW  Elec       q    Type
REMARK                         _______ _______ _______ _____ _____    ______ ____
ROOT
ATOM      1  C   UNL     1       0.531  10.488  21.367  0.00  0.00    +0.000 C 
ATOM      2  C   UNL     1      -0.047  11.689  21.302  0.00  0.00    +0.000 C 
ATOM      3  C   UNL     1      -0.180  12.461  20.067  0.00  0.00    +0.000 C 
ATOM      4  O   UNL     1      -0.808  13.517  20.153  0.00  0.00    +0.000 OA
ATOM      5  C   UNL     1       0.478  11.985  18.791  0.00  0.00    +0.000 C 
ATOM      6  C   UNL     1       1.228  10.653  18.920  0.00  0.00    +0.000 C 
ATOM      7  O   UNL     1       1.881  10.252  17.950  0.00  0.00    +0.000 OA
ATOM      8  C   UNL     1       1.118   9.815  20.190  0.00  0.00    +0.000 C 
ATOM      9  C   UNL     1       1.516   8.502  20.192  0.00  0.00    +0.000 C 
ENDROOT
BRANCH   9  10
ATOM     10  N   UNL     1       1.362   7.643  21.284  0.00  0.00    +0.000 N 
ATOM     11  H   UNL     1       0.944   8.123  22.081  0.00  0.00    +0.000 HD
ATOM     12  H   UNL     1       2.251   7.226  21.549  0.00  0.00    +0.000 HD
ENDBRANCH   9  10
BRANCH   1  14
ATOM     13  C   UNL     1      -0.484   9.729  23.415  0.00  0.00    +0.000 C 
ATOM     14  O   UNL     1       0.664   9.798  22.569  0.00  0.00    +0.000 OA
ENDBRANCH   1  14
BRANCH   9  15
ATOM     15  C   UNL     1       2.215   7.851  19.076  0.00  0.00    +0.000 C 
ATOM     16  C   UNL     1       2.947   6.723  19.146  0.00  0.00    +0.000 C 
BRANCH  16  17
ATOM     17  C   UNL     1       3.663   6.154  17.992  0.00  0.00    +0.000 A 
ATOM     18  C   UNL     1       3.588   4.777  17.751  0.00  0.00    +0.000 A 
ATOM     19  C   UNL     1       4.283   4.196  16.683  0.00  0.00    +0.000 A 
ATOM     20  C   UNL     1       5.048   4.991  15.832  0.00  0.00    +0.000 A 
ATOM     21  C   UNL     1       5.104   6.364  16.038  0.00  0.00    +0.000 A 
ATOM     22  C   UNL     1       4.411   6.947  17.102  0.00  0.00    +0.000 A 
ENDBRANCH  16  17
ENDBRANCH   9  15
BRANCH   5  23
ATOM     23  C   UNL     1       1.506  13.099  18.412  0.00  0.00    +0.000 C 
BRANCH  23  24
ATOM     24  C   UNL     1       2.628  13.337  19.394  0.00  0.00    +0.000 C 
ATOM     25  C   UNL     1       2.865  14.448  20.113  0.00  0.00    +0.000 C 
ATOM     26  C   UNL     1       2.119  15.745  19.973  0.00  0.00    +0.000 C 
ATOM     27  C   UNL     1       3.945  14.456  21.163  0.00  0.00    +0.000 C 
ENDBRANCH  23  24
ENDBRANCH   5  23
BRANCH   5  28
ATOM     28  C   UNL     1      -0.636  11.763  17.720  0.00  0.00    +0.000 C 
BRANCH  28  29
ATOM     29  C   UNL     1      -1.756  10.819  18.096  0.00  0.00    +0.000 C 
ATOM     30  C   UNL     1      -2.633  10.237  17.260  0.00  0.00    +0.000 C 
ATOM     31  C   UNL     1      -2.656  10.441  15.772  0.00  0.00    +0.000 C 
ATOM     32  C   UNL     1      -3.689   9.300  17.793  0.00  0.00    +0.000 C 
ENDBRANCH  28  29
ENDBRANCH   5  28
TORSDOF 8
ENDMDL
MODEL 6
REMARK VINA RESULT:      -7.4      1.342      1.885
REMARK  Name = 
REMARK  13 active torsions:
REMARK  status: ('A' for Active; 'I' for Inactive)
REMARK    1  A    between atoms: C_1  and  O_2
REMARK    2  A    between atoms: O_2  and  C_3
REMARK    3  A    between atoms: C_7  and  C_8
REMARK    4  A    between atoms: C_7  and  C_13
REMARK    5  A    between atoms: C_8  and  C_9
REMARK    6  A    between atoms: C_10  and  C_11
REMARK    7  A    between atoms: C_10  and  C_12
REMARK    8  A    between atoms: C_13  and  C_14
REMARK    9  A    between atoms: C_15  and  C_16
REMARK   10  A    between atoms: C_15  and  C_17
REMARK   11  A    between atoms: C_21  and  N_22
REMARK   12  A    between atoms: C_21  and  C_23
REMARK   13  A    between atoms: C_24  and  C_25
REMARK                            x       y       z     vdW  Elec       q    Type
REMARK                         _______ _______ _______ _____ _____    ______ ____
ROOT
ATOM      1  C   UNL     1      -1.275  11.541  21.802  0.00  0.00    +0.000 C 
ATOM      2  C   UNL     1      -2.149  12.291  21.128  0.00  0.00    +0.000 C 
ATOM      3  C   UNL     1      -2.422  12.135  19.699  0.00  0.00    +0.000 C 
ATOM      4  O   UNL     1      -3.312  12.848  19.236  0.00  0.00    +0.000 OA
ATOM      5  C   UNL     1      -1.596  11.183  18.861  0.00  0.00    +0.000 C 
ATOM      6  C   UNL     1      -0.525  10.412  19.642  0.00  0.00    +0.000 C 
ATOM      7  O   UNL     1       0.260   9.697  19.009  0.00  0.00    +0.000 OA
ATOM      8  C   UNL     1      -0.470  10.477  21.165  0.00  0.00    +0.000 C 
ATOM      9  C   UNL     1       0.264   9.561  21.874  0.00  0.00    +0.000 C 
ENDROOT
BRANCH   9  10
ATOM     10  N   UNL     1       0.290   9.495  23.269  0.00  0.00    +0.000 N 
ATOM     11  H   UNL     1       0.406   8.536  23.597  0.00  0.00    +0.000 HD
ATOM     12  H   UNL     1      -0.549   9.907  23.671  0.00  0.00    +0.000 HD
ENDBRANCH   9  10
BRANCH   1  14
ATOM     13  C   UNL     1      -1.490  12.959  23.736  0.00  0.00    +0.000 C 
ATOM     14  O   UNL     1      -1.023  11.741  23.156  0.00  0.00    +0.000 OA
ENDBRANCH   1  14
BRANCH   9  15
ATOM     15  C   UNL     1       1.168   8.577  21.261  0.00  0.00    +0.000 C 
ATOM     16  C   UNL     1       0.908   7.270  21.071  0.00  0.00    +0.000 C 
BRANCH  16  17
ATOM     17  C   UNL     1       1.884   6.331  20.493  0.00  0.00    +0.000 A 
ATOM     18  C   UNL     1       2.729   6.767  19.467  0.00  0.00    +0.000 A 
ATOM     19  C   UNL     1       3.647   5.892  18.871  0.00  0.00    +0.000 A 
ATOM     20  C   UNL     1       3.738   4.573  19.308  0.00  0.00    +0.000 A 
ATOM     21  C   UNL     1       2.929   4.133  20.349  0.00  0.00    +0.000 A 
ATOM     22  C   UNL     1       2.014   5.005  20.946  0.00  0.00    +0.000 A 
ENDBRANCH  16  17
ENDBRANCH   9  15
BRANCH   5  23
ATOM     23  C   UNL     1      -0.886  12.078  17.795  0.00  0.00    +0.000 C 
BRANCH  23  24
ATOM     24  C   UNL     1      -0.243  13.345  18.304  0.00  0.00    +0.000 C 
ATOM     25  C   UNL     1       1.067  13.579  18.496  0.00  0.00    +0.000 C 
ATOM     26  C   UNL     1       2.158  12.554  18.364  0.00  0.00    +0.000 C 
ATOM     27  C   UNL     1       1.544  14.959  18.866  0.00  0.00    +0.000 C 
ENDBRANCH  23  24
ENDBRANCH   5  23
BRANCH   5  28
ATOM     28  C   UNL     1      -2.554  10.113  18.251  0.00  0.00    +0.000 C 
BRANCH  28  29
ATOM     29  C   UNL     1      -2.479   9.915  16.753  0.00  0.00    +0.000 C 
ATOM     30  C   UNL     1      -3.294  10.451  15.828  0.00  0.00    +0.000 C 
ATOM     31  C   UNL     1      -4.456  11.352  16.136  0.00  0.00    +0.000 C 
ATOM     32  C   UNL     1      -3.076  10.169  14.363  0.00  0.00    +0.000 C 
ENDBRANCH  28  29
ENDBRANCH   5  28
TORSDOF 8
ENDMDL
MODEL 7
REMARK VINA RESULT:      -7.1      0.969      1.596
REMARK  Name = 
REMARK  13 active torsions:
REMARK  status: ('A' for Active; 'I' for Inactive)
REMARK    1  A    between atoms: C_1  and  O_2
REMARK    2  A    between atoms: O_2  and  C_3
REMARK    3  A    between atoms: C_7  and  C_8
REMARK    4  A    between atoms: C_7  and  C_13
REMARK    5  A    between atoms: C_8  and  C_9
REMARK    6  A    between atoms: C_10  and  C_11
REMARK    7  A    between atoms: C_10  and  C_12
REMARK    8  A    between atoms: C_13  and  C_14
REMARK    9  A    between atoms: C_15  and  C_16
REMARK   10  A    between atoms: C_15  and  C_17
REMARK   11  A    between atoms: C_21  and  N_22
REMARK   12  A    between atoms: C_21  and  C_23
REMARK   13  A    between atoms: C_24  and  C_25
REMARK                            x       y       z     vdW  Elec       q    Type
REMARK                         _______ _______ _______ _____ _____    ______ ____
ROOT
ATOM      1  C   UNL     1       0.308   9.589  21.221  0.00  0.00    +0.000 C 
ATOM      2  C   UNL     1      -0.567  10.596  21.170  0.00  0.00    +0.000 C 
ATOM      3  C   UNL     1      -0.988  11.244  19.928  0.00  0.00    +0.000 C 
ATOM      4  O   UNL     1      -1.861  12.106  20.035  0.00  0.00    +0.000 OA
ATOM      5  C   UNL     1      -0.322  10.892  18.616  0.00  0.00    +0.000 C 
ATOM      6  C   UNL     1       0.758   9.808  18.720  0.00  0.00    +0.000 C 
ATOM      7  O   UNL     1       1.420   9.542  17.711  0.00  0.00    +0.000 OA
ATOM      8  C   UNL     1       0.964   9.033  20.019  0.00  0.00    +0.000 C 
ATOM      9  C   UNL     1       1.690   7.870  20.026  0.00  0.00    +0.000 C 
ENDROOT
BRANCH   9  10
ATOM     10  N   UNL     1       1.846   7.055  21.150  0.00  0.00    +0.000 N 
ATOM     11  H   UNL     1       2.090   6.100  20.889  0.00  0.00    +0.000 HD
ATOM     12  H   UNL     1       1.006   7.062  21.725  0.00  0.00    +0.000 HD
ENDBRANCH   9  10
BRANCH   1  14
ATOM     13  C   UNL     1       0.042   9.462  23.611  0.00  0.00    +0.000 C 
ATOM     14  O   UNL     1       0.704   9.017  22.426  0.00  0.00    +0.000 OA
ENDBRANCH   1  14
BRANCH   9  15
ATOM     15  C   UNL     1       2.452   7.367  18.874  0.00  0.00    +0.000 C 
ATOM     16  C   UNL     1       3.180   6.236  18.837  0.00  0.00    +0.000 C 
BRANCH  16  17
ATOM     17  C   UNL     1       3.961   5.819  17.659  0.00  0.00    +0.000 A 
ATOM     18  C   UNL     1       4.072   4.457  17.358  0.00  0.00    +0.000 A 
ATOM     19  C   UNL     1       4.833   4.022  16.266  0.00  0.00    +0.000 A 
ATOM     20  C   UNL     1       5.481   4.949  15.452  0.00  0.00    +0.000 A 
ATOM     21  C   UNL     1       5.352   6.307  15.718  0.00  0.00    +0.000 A 
ATOM     22  C   UNL     1       4.592   6.744  16.806  0.00  0.00    +0.000 A 
ENDBRANCH  16  17
ENDBRANCH   9  15
BRANCH   5  23
ATOM     23  C   UNL     1       0.348  12.214  18.122  0.00  0.00    +0.000 C 
BRANCH  23  24
ATOM     24  C   UNL     1      -0.322  13.502  18.537  0.00  0.00    +0.000 C 
ATOM     25  C   UNL     1       0.268  14.671  18.841  0.00  0.00    +0.000 C 
ATOM     26  C   UNL     1       1.751  14.888  18.958  0.00  0.00    +0.000 C 
ATOM     27  C   UNL     1      -0.567  15.900  19.086  0.00  0.00    +0.000 C 
ENDBRANCH  23  24
ENDBRANCH   5  23
BRANCH   5  28
ATOM     28  C   UNL     1      -1.413  10.338  17.648  0.00  0.00    +0.000 C 
BRANCH  28  29
ATOM     29  C   UNL     1      -2.776  10.990  17.721  0.00  0.00    +0.000 C 
ATOM     30  C   UNL     1      -3.629  11.191  16.702  0.00  0.00    +0.000 C 
ATOM     31  C   UNL     1      -3.358  10.803  15.276  0.00  0.00    +0.000 C 
ATOM     32  C   UNL     1      -4.966  11.845  16.943  0.00  0.00    +0.000 C 
ENDBRANCH  28  29
ENDBRANCH   5  28
TORSDOF 8
ENDMDL
MODEL 8
REMARK VINA RESULT:      -7.0      1.123      1.728
REMARK  Name = 
REMARK  13 active torsions:
REMARK  status: ('A' for Active; 'I' for Inactive)
REMARK    1  A    between atoms: C_1  and  O_2
REMARK    2  A    between atoms: O_2  and  C_3
REMARK    3  A    between atoms: C_7  and  C_8
REMARK    4  A    between atoms: C_7  and  C_13
REMARK    5  A    between atoms: C_8  and  C_9
REMARK    6  A    between atoms: C_10  and  C_11
REMARK    7  A    between atoms: C_10  and  C_12
REMARK    8  A    between atoms: C_13  and  C_14
REMARK    9  A    between atoms: C_15  and  C_16
REMARK   10  A    between atoms: C_15  and  C_17
REMARK   11  A    between atoms: C_21  and  N_22
REMARK   12  A    between atoms: C_21  and  C_23
REMARK   13  A    between atoms: C_24  and  C_25
REMARK                            x       y       z     vdW  Elec       q    Type
REMARK                         _______ _______ _______ _____ _____    ______ ____
ROOT
ATOM      1  C   UNL     1       0.717   9.810  21.329  0.00  0.00    +0.000 C 
ATOM      2  C   UNL     1       0.134  11.010  21.365  0.00  0.00    +0.000 C 
ATOM      3  C   UNL     1       0.036  11.901  20.209  0.00  0.00    +0.000 C 
ATOM      4  O   UNL     1      -0.600  12.942  20.379  0.00  0.00    +0.000 OA
ATOM      5  C   UNL     1       0.737  11.556  18.914  0.00  0.00    +0.000 C 
ATOM      6  C   UNL     1       1.490  10.220  18.934  0.00  0.00    +0.000 C 
ATOM      7  O   UNL     1       2.176   9.919  17.950  0.00  0.00    +0.000 OA
ATOM      8  C   UNL     1       1.345   9.259  20.110  0.00  0.00    +0.000 C 
ATOM      9  C   UNL     1       1.750   7.953  19.995  0.00  0.00    +0.000 C 
ENDROOT
BRANCH   9  10
ATOM     10  N   UNL     1       1.566   6.990  20.990  0.00  0.00    +0.000 N 
ATOM     11  H   UNL     1       2.452   6.572  21.274  0.00  0.00    +0.000 HD
ATOM     12  H   UNL     1       0.916   6.269  20.685  0.00  0.00    +0.000 HD
ENDBRANCH   9  10
BRANCH   1  14
ATOM     13  C   UNL     1       0.053   9.387  23.605  0.00  0.00    +0.000 C 
ATOM     14  O   UNL     1       0.815   9.004  22.459  0.00  0.00    +0.000 OA
ENDBRANCH   1  14
BRANCH   9  15
ATOM     15  C   UNL     1       2.488   7.418  18.842  0.00  0.00    +0.000 C 
ATOM     16  C   UNL     1       3.227   6.294  18.825  0.00  0.00    +0.000 C 
BRANCH  16  17
ATOM     17  C   UNL     1       3.983   5.844  17.643  0.00  0.00    +0.000 A 
ATOM     18  C   UNL     1       4.594   6.796  16.819  0.00  0.00    +0.000 A 
ATOM     19  C   UNL     1       5.293   6.407  15.669  0.00  0.00    +0.000 A 
ATOM     20  C   UNL     1       5.400   5.057  15.340  0.00  0.00    +0.000 A 
ATOM     21  C   UNL     1       4.827   4.098  16.167  0.00  0.00    +0.000 A 
ATOM     22  C   UNL     1       4.131   4.483  17.316  0.00  0.00    +0.000 A 
ENDBRANCH  16  17
ENDBRANCH   9  15
BRANCH   5  23
ATOM     23  C   UNL     1       1.771  12.705  18.682  0.00  0.00    +0.000 C 
BRANCH  23  24
ATOM     24  C   UNL     1       1.199  14.070  18.386  0.00  0.00    +0.000 C 
ATOM     25  C   UNL     1       1.501  15.233  18.991  0.00  0.00    +0.000 C 
ATOM     26  C   UNL     1       2.388  15.377  20.196  0.00  0.00    +0.000 C 
ATOM     27  C   UNL     1       0.946  16.529  18.462  0.00  0.00    +0.000 C 
ENDBRANCH  23  24
ENDBRANCH   5  23
BRANCH   5  28
ATOM     28  C   UNL     1      -0.340  11.439  17.791  0.00  0.00    +0.000 C 
BRANCH  28  29
ATOM     29  C   UNL     1      -1.551  10.587  18.102  0.00  0.00    +0.000 C 
ATOM     30  C   UNL     1      -2.558  10.282  17.265  0.00  0.00    +0.000 C 
ATOM     31  C   UNL     1      -2.659  10.760  15.845  0.00  0.00    +0.000 C 
ATOM     32  C   UNL     1      -3.692   9.401  17.725  0.00  0.00    +0.000 C 
ENDBRANCH  28  29
ENDBRANCH   5  28
TORSDOF 8
ENDMDL
MODEL 9
REMARK VINA RESULT:      -7.0      1.812      2.796
REMARK  Name = 
REMARK  13 active torsions:
REMARK  status: ('A' for Active; 'I' for Inactive)
REMARK    1  A    between atoms: C_1  and  O_2
REMARK    2  A    between atoms: O_2  and  C_3
REMARK    3  A    between atoms: C_7  and  C_8
REMARK    4  A    between atoms: C_7  and  C_13
REMARK    5  A    between atoms: C_8  and  C_9
REMARK    6  A    between atoms: C_10  and  C_11
REMARK    7  A    between atoms: C_10  and  C_12
REMARK    8  A    between atoms: C_13  and  C_14
REMARK    9  A    between atoms: C_15  and  C_16
REMARK   10  A    between atoms: C_15  and  C_17
REMARK   11  A    between atoms: C_21  and  N_22
REMARK   12  A    between atoms: C_21  and  C_23
REMARK   13  A    between atoms: C_24  and  C_25
REMARK                            x       y       z     vdW  Elec       q    Type
REMARK                         _______ _______ _______ _____ _____    ______ ____
ROOT
ATOM      1  C   UNL     1      -0.427  12.567  21.686  0.00  0.00    +0.000 C 
ATOM      2  C   UNL     1      -0.502  13.758  21.087  0.00  0.00    +0.000 C 
ATOM      3  C   UNL     1      -0.272  13.964  19.657  0.00  0.00    +0.000 C 
ATOM      4  O   UNL     1      -0.455  15.108  19.238  0.00  0.00    +0.000 OA
ATOM      5  C   UNL     1       0.218  12.827  18.787  0.00  0.00    +0.000 C 
ATOM      6  C   UNL     1       0.400  11.495  19.524  0.00  0.00    +0.000 C 
ATOM      7  O   UNL     1       0.899  10.547  18.907  0.00  0.00    +0.000 OA
ATOM      8  C   UNL     1      -0.082  11.325  20.962  0.00  0.00    +0.000 C 
ATOM      9  C   UNL     1      -0.212  10.073  21.508  0.00  0.00    +0.000 C 
ENDROOT
BRANCH   9  10
ATOM     10  N   UNL     1      -0.734   9.829  22.781  0.00  0.00    +0.000 N 
ATOM     11  H   UNL     1      -1.026   8.857  22.885  0.00  0.00    +0.000 HD
ATOM     12  H   UNL     1      -1.509  10.456  22.984  0.00  0.00    +0.000 HD
ENDBRANCH   9  10
BRANCH   1  14
ATOM     13  C   UNL     1      -1.571  13.285  23.679  0.00  0.00    +0.000 C 
ATOM     14  O   UNL     1      -0.625  12.417  23.055  0.00  0.00    +0.000 OA
ENDBRANCH   1  14
BRANCH   9  15
ATOM     15  C   UNL     1       0.242   8.838  20.855  0.00  0.00    +0.000 C 
ATOM     16  C   UNL     1       1.447   8.257  21.005  0.00  0.00    +0.000 C 
BRANCH  16  17
ATOM     17  C   UNL     1       1.852   7.042  20.277  0.00  0.00    +0.000 A 
ATOM     18  C   UNL     1       2.466   7.167  19.025  0.00  0.00    +0.000 A 
ATOM     19  C   UNL     1       2.834   6.033  18.289  0.00  0.00    +0.000 A 
ATOM     20  C   UNL     1       2.606   4.760  18.807  0.00  0.00    +0.000 A 
ATOM     21  C   UNL     1       2.028   4.621  20.064  0.00  0.00    +0.000 A 
ATOM     22  C   UNL     1       1.661   5.750  20.800  0.00  0.00    +0.000 A 
ENDBRANCH  16  17
ENDBRANCH   9  15
BRANCH   5  23
ATOM     23  C   UNL     1       1.609  13.289  18.246  0.00  0.00    +0.000 C 
BRANCH  23  24
ATOM     24  C   UNL     1       2.690  13.511  19.277  0.00  0.00    +0.000 C 
ATOM     25  C   UNL     1       3.308  14.666  19.578  0.00  0.00    +0.000 C 
ATOM     26  C   UNL     1       3.133  15.961  18.836  0.00  0.00    +0.000 C 
ATOM     27  C   UNL     1       4.257  14.735  20.746  0.00  0.00    +0.000 C 
ENDBRANCH  23  24
ENDBRANCH   5  23
BRANCH   5  28
ATOM     28  C   UNL     1      -0.842  12.574  17.671  0.00  0.00    +0.000 C 
BRANCH  28  29
ATOM     29  C   UNL     1      -2.113  11.872  18.093  0.00  0.00    +0.000 C 
ATOM     30  C   UNL     1      -2.936  11.156  17.308  0.00  0.00    +0.000 C 
ATOM     31  C   UNL     1      -2.733  10.937  15.836  0.00  0.00    +0.000 C 
ATOM     32  C   UNL     1      -4.164  10.499  17.887  0.00  0.00    +0.000 C 
ENDBRANCH  28  29
ENDBRANCH   5  28
TORSDOF 8
ENDMDL
