MODEL 1
REMARK VINA RESULT:      -7.7      0.000      0.000
REMARK  Name = 
REMARK  11 active torsions:
REMARK  status: ('A' for Active; 'I' for Inactive)
REMARK    1  A    between atoms: C_1  and  O_2
REMARK    2  A    between atoms: O_2  and  N_3
REMARK    3  A    between atoms: C_4  and  C_5
REMARK    4  A    between atoms: C_4  and  C_9
REMARK    5  A    between atoms: C_5  and  O_7
REMARK    6  A    between atoms: O_7  and  C_8
REMARK    7  A    between atoms: C_14  and  C_15
REMARK    8  A    between atoms: C_15  and  O_16
REMARK    9  A    between atoms: O_16  and  C_17
REMARK   10  A    between atoms: C_19  and  C_20
REMARK   11  A    between atoms: N_27  and  C_28
REMARK                            x       y       z     vdW  Elec       q    Type
REMARK                         _______ _______ _______ _____ _____    ______ ____
ROOT
ATOM      1  C   UNL     1       4.362   5.311  17.342  0.00  0.00    +0.000 A 
ATOM      2  C   UNL     1       4.438   3.915  17.564  0.00  0.00    +0.000 A 
ATOM      3  C   UNL     1       3.419   3.218  18.212  0.00  0.00    +0.000 A 
ATOM      4  C   UNL     1       2.289   3.897  18.637  0.00  0.00    +0.000 A 
ATOM      5  C   UNL     1       2.192   5.272  18.431  0.00  0.00    +0.000 A 
ATOM      6  C   UNL     1       3.212   6.016  17.791  0.00  0.00    +0.000 A 
ENDROOT
BRANCH   1   8
ATOM      7  N   UNL     1       5.930   5.911  15.443  0.00  0.00    +0.000 NA
ATOM      8  C   UNL     1       5.579   5.923  16.698  0.00  0.00    +0.000 C 
BRANCH   7  10
ATOM      9  C   UNL     1       6.043   4.023  14.177  0.00  0.00    +0.000 C 
ATOM     10  O   UNL     1       5.178   5.054  14.649  0.00  0.00    +0.000 OA
ENDBRANCH   7  10
BRANCH   8  11
ATOM     11  C   UNL     1       6.596   6.616  17.635  0.00  0.00    +0.000 C 
ATOM     12  O   UNL     1       7.064   6.084  18.631  0.00  0.00    +0.000 OA
BRANCH  11  13
ATOM     13  O   UNL     1       6.928   7.833  17.141  0.00  0.00    +0.000 OA
ATOM     14  C   UNL     1       7.948   8.528  17.858  0.00  0.00    +0.000 C 
ENDBRANCH  11  13
ENDBRANCH   8  11
ENDBRANCH   1   8
BRANCH   6  15
ATOM     15  C   UNL     1       3.042   7.532  17.710  0.00  0.00    +0.000 C 
BRANCH  15  16
ATOM     16  O   UNL     1       2.633   8.175  18.945  0.00  0.00    +0.000 OA
BRANCH  16  17
ATOM     17  C   UNL     1       1.480   8.862  18.900  0.00  0.00    +0.000 A 
ATOM     18  C   UNL     1       0.658   9.274  17.873  0.00  0.00    +0.000 A 
ATOM     19  C   UNL     1      -0.489   9.861  18.470  0.00  0.00    +0.000 A 
ATOM     20  N   UNL     1      -0.358   9.869  19.808  0.00  0.00    +0.000 NA
ATOM     21  N   UNL     1       0.826   9.264  20.043  0.00  0.00    +0.000 N 
ATOM     22  C   UNL     1       1.262   9.067  21.399  0.00  0.00    +0.000 C 
BRANCH  19  23
ATOM     23  C   UNL     1      -1.687  10.366  17.796  0.00  0.00    +0.000 A 
ATOM     24  C   UNL     1      -2.021   9.943  16.497  0.00  0.00    +0.000 A 
ATOM     25  C   UNL     1      -3.181  10.394  15.867  0.00  0.00    +0.000 A 
ATOM     26  C   UNL     1      -4.031  11.281  16.522  0.00  0.00    +0.000 A 
ATOM     27  C   UNL     1      -3.715  11.717  17.810  0.00  0.00    +0.000 A 
ATOM     28  C   UNL     1      -2.552  11.266  18.440  0.00  0.00    +0.000 A 
ENDBRANCH  19  23
ENDBRANCH  16  17
ENDBRANCH  15  16
ENDBRANCH   6  15
TORSDOF 8
ENDMDL
MODEL 2
REMARK VINA RESULT:      -7.4      2.867      8.468
REMARK  Name = 
REMARK  11 active torsions:
REMARK  status: ('A' for Active; 'I' for Inactive)
REMARK    1  A    between atoms: C_1  and  O_2
REMARK    2  A    between atoms: O_2  and  N_3
REMARK    3  A    between atoms: C_4  and  C_5
REMARK    4  A    between atoms: C_4  and  C_9
REMARK    5  A    between atoms: C_5  and  O_7
REMARK    6  A    between atoms: O_7  and  C_8
REMARK    7  A    between atoms: C_14  and  C_15
REMARK    8  A    between atoms: C_15  and  O_16
REMARK    9  A    between atoms: O_16  and  C_17
REMARK   10  A    between atoms: C_19  and  C_20
REMARK   11  A    between atoms: N_27  and  C_28
REMARK                            x       y       z     vdW  Elec       q    Type
REMARK                         _______ _______ _______ _____ _____    ______ ____
ROOT
ATOM      1  C   UNL     1      -0.099  10.761  20.583  0.00  0.00    +0.000 A 
ATOM      2  C   UNL     1      -0.910  11.444  21.520  0.00  0.00    +0.000 A 
ATOM      3  C   UNL     1      -1.087  10.970  22.820  0.00  0.00    +0.000 A 
ATOM      4  C   UNL     1      -0.443   9.811  23.221  0.00  0.00    +0.000 A 
ATOM      5  C   UNL     1       0.359   9.121  22.314  0.00  0.00    +0.000 A 
ATOM      6  C   UNL     1       0.552   9.561  20.983  0.00  0.00    +0.000 A 
ENDROOT
BRANCH   1   8
ATOM      7  N   UNL     1       0.753  12.242  18.710  0.00  0.00    +0.000 NA
ATOM      8  C   UNL     1      -0.075  11.362  19.202  0.00  0.00    +0.000 C 
BRANCH   7  10
ATOM      9  C   UNL     1       2.725  13.346  18.972  0.00  0.00    +0.000 C 
ATOM     10  O   UNL     1       1.584  12.831  19.655  0.00  0.00    +0.000 OA
ENDBRANCH   7  10
BRANCH   8  11
ATOM     11  C   UNL     1      -1.203  10.941  18.232  0.00  0.00    +0.000 C 
ATOM     12  O   UNL     1      -1.234   9.859  17.665  0.00  0.00    +0.000 OA
BRANCH  11  13
ATOM     13  O   UNL     1      -2.155  11.904  18.180  0.00  0.00    +0.000 OA
ATOM     14  C   UNL     1      -3.502  11.441  18.281  0.00  0.00    +0.000 C 
ENDBRANCH  11  13
ENDBRANCH   8  11
ENDBRANCH   1   8
BRANCH   6  15
ATOM     15  C   UNL     1       1.370   8.670  20.050  0.00  0.00    +0.000 C 
BRANCH  15  16
ATOM     16  O   UNL     1       1.593   7.317  20.525  0.00  0.00    +0.000 OA
BRANCH  16  17
ATOM     17  C   UNL     1       2.340   6.529  19.736  0.00  0.00    +0.000 A 
ATOM     18  C   UNL     1       3.192   6.774  18.679  0.00  0.00    +0.000 A 
ATOM     19  C   UNL     1       3.787   5.533  18.331  0.00  0.00    +0.000 A 
ATOM     20  N   UNL     1       3.283   4.550  19.095  0.00  0.00    +0.000 NA
ATOM     21  N   UNL     1       2.421   5.169  19.931  0.00  0.00    +0.000 N 
ATOM     22  C   UNL     1       1.727   4.399  20.927  0.00  0.00    +0.000 C 
BRANCH  19  23
ATOM     23  C   UNL     1       4.828   5.293  17.329  0.00  0.00    +0.000 A 
ATOM     24  C   UNL     1       5.977   6.102  17.267  0.00  0.00    +0.000 A 
ATOM     25  C   UNL     1       6.985   5.852  16.337  0.00  0.00    +0.000 A 
ATOM     26  C   UNL     1       6.867   4.790  15.446  0.00  0.00    +0.000 A 
ATOM     27  C   UNL     1       5.733   3.977  15.488  0.00  0.00    +0.000 A 
ATOM     28  C   UNL     1       4.721   4.228  16.418  0.00  0.00    +0.000 A 
ENDBRANCH  19  23
ENDBRANCH  16  17
ENDBRANCH  15  16
ENDBRANCH   6  15
TORSDOF 8
ENDMDL
MODEL 3
REMARK VINA RESULT:      -7.3      2.859      8.598
REMARK  Name = 
REMARK  11 active torsions:
REMARK  status: ('A' for Active; 'I' for Inactive)
REMARK    1  A    between atoms: C_1  and  O_2
REMARK    2  A    between atoms: O_2  and  N_3
REMARK    3  A    between atoms: C_4  and  C_5
REMARK    4  A    between atoms: C_4  and  C_9
REMARK    5  A    between atoms: C_5  and  O_7
REMARK    6  A    between atoms: O_7  and  C_8
REMARK    7  A    between atoms: C_14  and  C_15
REMARK    8  A    between atoms: C_15  and  O_16
REMARK    9  A    between atoms: O_16  and  C_17
REMARK   10  A    between atoms: C_19  and  C_20
REMARK   11  A    between atoms: N_27  and  C_28
REMARK                            x       y       z     vdW  Elec       q    Type
REMARK                         _______ _______ _______ _____ _____    ______ ____
ROOT
ATOM      1  C   UNL     1      -0.431  10.828  19.892  0.00  0.00    +0.000 A 
ATOM      2  C   UNL     1      -1.626  11.408  19.406  0.00  0.00    +0.000 A 
ATOM      3  C   UNL     1      -2.140  11.088  18.150  0.00  0.00    +0.000 A 
ATOM      4  C   UNL     1      -1.481  10.165  17.355  0.00  0.00    +0.000 A 
ATOM      5  C   UNL     1      -0.300   9.581  17.812  0.00  0.00    +0.000 A 
ATOM      6  C   UNL     1       0.260   9.891  19.074  0.00  0.00    +0.000 A 
ENDROOT
BRANCH   1   8
ATOM      7  N   UNL     1       0.875  12.294  21.496  0.00  0.00    +0.000 NA
ATOM      8  C   UNL     1       0.028  11.338  21.233  0.00  0.00    +0.000 C 
BRANCH   7  10
ATOM      9  C   UNL     1       1.386  14.162  20.301  0.00  0.00    +0.000 C 
ATOM     10  O   UNL     1       1.578  12.752  20.389  0.00  0.00    +0.000 OA
ENDBRANCH   7  10
BRANCH   8  11
ATOM     11  C   UNL     1      -0.518  10.612  22.485  0.00  0.00    +0.000 C 
ATOM     12  O   UNL     1      -0.432   9.405  22.653  0.00  0.00    +0.000 OA
BRANCH  11  13
ATOM     13  O   UNL     1      -1.016  11.514  23.364  0.00  0.00    +0.000 OA
ATOM     14  C   UNL     1      -2.366  11.918  23.130  0.00  0.00    +0.000 C 
ENDBRANCH  11  13
ENDBRANCH   8  11
ENDBRANCH   1   8
BRANCH   6  15
ATOM     15  C   UNL     1       1.608   9.267  19.427  0.00  0.00    +0.000 C 
BRANCH  15  16
ATOM     16  O   UNL     1       1.548   7.906  19.926  0.00  0.00    +0.000 OA
BRANCH  16  17
ATOM     17  C   UNL     1       2.314   7.007  19.289  0.00  0.00    +0.000 A 
ATOM     18  C   UNL     1       3.167   7.081  18.207  0.00  0.00    +0.000 A 
ATOM     19  C   UNL     1       3.789   5.810  18.082  0.00  0.00    +0.000 A 
ATOM     20  N   UNL     1       3.299   4.965  19.006  0.00  0.00    +0.000 NA
ATOM     21  N   UNL     1       2.421   5.704  19.719  0.00  0.00    +0.000 N 
ATOM     22  C   UNL     1       1.736   5.106  20.833  0.00  0.00    +0.000 C 
BRANCH  19  23
ATOM     23  C   UNL     1       4.840   5.419  17.140  0.00  0.00    +0.000 A 
ATOM     24  C   UNL     1       5.989   6.212  16.965  0.00  0.00    +0.000 A 
ATOM     25  C   UNL     1       7.007   5.823  16.095  0.00  0.00    +0.000 A 
ATOM     26  C   UNL     1       6.897   4.634  15.379  0.00  0.00    +0.000 A 
ATOM     27  C   UNL     1       5.763   3.836  15.534  0.00  0.00    +0.000 A 
ATOM     28  C   UNL     1       4.742   4.227  16.404  0.00  0.00    +0.000 A 
ENDBRANCH  19  23
ENDBRANCH  16  17
ENDBRANCH  15  16
ENDBRANCH   6  15
TORSDOF 8
ENDMDL
MODEL 4
REMARK VINA RESULT:      -7.3      2.278      3.987
REMARK  Name = 
REMARK  11 active torsions:
REMARK  status: ('A' for Active; 'I' for Inactive)
REMARK    1  A    between atoms: C_1  and  O_2
REMARK    2  A    between atoms: O_2  and  N_3
REMARK    3  A    between atoms: C_4  and  C_5
REMARK    4  A    between atoms: C_4  and  C_9
REMARK    5  A    between atoms: C_5  and  O_7
REMARK    6  A    between atoms: O_7  and  C_8
REMARK    7  A    between atoms: C_14  and  C_15
REMARK    8  A    between atoms: C_15  and  O_16
REMARK    9  A    between atoms: O_16  and  C_17
REMARK   10  A    between atoms: C_19  and  C_20
REMARK   11  A    between atoms: N_27  and  C_28
REMARK                            x       y       z     vdW  Elec       q    Type
REMARK                         _______ _______ _______ _____ _____    ______ ____
ROOT
ATOM      1  C   UNL     1       5.348   4.552  16.861  0.00  0.00    +0.000 A 
ATOM      2  C   UNL     1       5.821   3.563  15.966  0.00  0.00    +0.000 A 
ATOM      3  C   UNL     1       6.002   3.828  14.609  0.00  0.00    +0.000 A 
ATOM      4  C   UNL     1       5.732   5.093  14.116  0.00  0.00    +0.000 A 
ATOM      5  C   UNL     1       5.264   6.083  14.978  0.00  0.00    +0.000 A 
ATOM      6  C   UNL     1       5.053   5.849  16.358  0.00  0.00    +0.000 A 
ENDROOT
BRANCH   1   8
ATOM      7  N   UNL     1       5.953   4.149  19.289  0.00  0.00    +0.000 NA
ATOM      8  C   UNL     1       5.135   4.083  18.277  0.00  0.00    +0.000 C 
BRANCH   7  10
ATOM      9  C   UNL     1       7.489   5.815  19.503  0.00  0.00    +0.000 C 
ATOM     10  O   UNL     1       7.248   4.522  18.951  0.00  0.00    +0.000 OA
ENDBRANCH   7  10
BRANCH   8  11
ATOM     11  C   UNL     1       3.797   3.371  18.587  0.00  0.00    +0.000 C 
ATOM     12  O   UNL     1       3.174   2.720  17.762  0.00  0.00    +0.000 OA
BRANCH  11  13
ATOM     13  O   UNL     1       3.486   3.519  19.897  0.00  0.00    +0.000 OA
ATOM     14  C   UNL     1       2.406   2.711  20.366  0.00  0.00    +0.000 C 
ENDBRANCH  11  13
ENDBRANCH   8  11
ENDBRANCH   1   8
BRANCH   6  15
ATOM     15  C   UNL     1       4.441   6.978  17.186  0.00  0.00    +0.000 C 
BRANCH  15  16
ATOM     16  O   UNL     1       3.083   6.746  17.640  0.00  0.00    +0.000 OA
BRANCH  16  17
ATOM     17  C   UNL     1       2.461   7.792  18.204  0.00  0.00    +0.000 A 
ATOM     18  C   UNL     1       2.118   9.050  17.754  0.00  0.00    +0.000 A 
ATOM     19  C   UNL     1       1.358   9.666  18.785  0.00  0.00    +0.000 A 
ATOM     20  N   UNL     1       1.285   8.851  19.851  0.00  0.00    +0.000 NA
ATOM     21  N   UNL     1       1.948   7.735  19.481  0.00  0.00    +0.000 N 
ATOM     22  C   UNL     1       2.026   6.624  20.391  0.00  0.00    +0.000 C 
BRANCH  19  23
ATOM     23  C   UNL     1       0.694  10.970  18.746  0.00  0.00    +0.000 A 
ATOM     24  C   UNL     1      -0.699  11.070  18.575  0.00  0.00    +0.000 A 
ATOM     25  C   UNL     1      -1.338  12.310  18.574  0.00  0.00    +0.000 A 
ATOM     26  C   UNL     1      -0.598  13.477  18.740  0.00  0.00    +0.000 A 
ATOM     27  C   UNL     1       0.785  13.400  18.906  0.00  0.00    +0.000 A 
ATOM     28  C   UNL     1       1.426  12.158  18.906  0.00  0.00    +0.000 A 
ENDBRANCH  19  23
ENDBRANCH  16  17
ENDBRANCH  15  16
ENDBRANCH   6  15
TORSDOF 8
ENDMDL
MODEL 5
REMARK VINA RESULT:      -7.3      2.839      8.218
REMARK  Name = 
REMARK  11 active torsions:
REMARK  status: ('A' for Active; 'I' for Inactive)
REMARK    1  A    between atoms: C_1  and  O_2
REMARK    2  A    between atoms: O_2  and  N_3
REMARK    3  A    between atoms: C_4  and  C_5
REMARK    4  A    between atoms: C_4  and  C_9
REMARK    5  A    between atoms: C_5  and  O_7
REMARK    6  A    between atoms: O_7  and  C_8
REMARK    7  A    between atoms: C_14  and  C_15
REMARK    8  A    between atoms: C_15  and  O_16
REMARK    9  A    between atoms: O_16  and  C_17
REMARK   10  A    between atoms: C_19  and  C_20
REMARK   11  A    between atoms: N_27  and  C_28
REMARK                            x       y       z     vdW  Elec       q    Type
REMARK                         _______ _______ _______ _____ _____    ______ ____
ROOT
ATOM      1  C   UNL     1      -0.080  10.691  20.510  0.00  0.00    +0.000 A 
ATOM      2  C   UNL     1      -0.868  11.392  21.453  0.00  0.00    +0.000 A 
ATOM      3  C   UNL     1      -0.988  10.962  22.774  0.00  0.00    +0.000 A 
ATOM      4  C   UNL     1      -0.309   9.830  23.190  0.00  0.00    +0.000 A 
ATOM      5  C   UNL     1       0.472   9.121  22.279  0.00  0.00    +0.000 A 
ATOM      6  C   UNL     1       0.607   9.517  20.927  0.00  0.00    +0.000 A 
ENDROOT
BRANCH   1   8
ATOM      7  N   UNL     1      -0.964  10.982  18.152  0.00  0.00    +0.000 NA
ATOM      8  C   UNL     1      -0.118  11.243  19.109  0.00  0.00    +0.000 C 
BRANCH   7  10
ATOM      9  C   UNL     1      -3.092  10.223  17.878  0.00  0.00    +0.000 C 
ATOM     10  O   UNL     1      -1.809   9.911  18.416  0.00  0.00    +0.000 OA
ENDBRANCH   7  10
BRANCH   8  11
ATOM     11  C   UNL     1       1.020  12.208  18.704  0.00  0.00    +0.000 C 
ATOM     12  O   UNL     1       2.164  11.843  18.478  0.00  0.00    +0.000 OA
BRANCH  11  13
ATOM     13  O   UNL     1       0.535  13.466  18.568  0.00  0.00    +0.000 OA
ATOM     14  C   UNL     1       1.415  14.511  18.986  0.00  0.00    +0.000 C 
ENDBRANCH  11  13
ENDBRANCH   8  11
ENDBRANCH   1   8
BRANCH   6  15
ATOM     15  C   UNL     1       1.407   8.609  19.995  0.00  0.00    +0.000 C 
BRANCH  15  16
ATOM     16  O   UNL     1       1.551   7.236  20.444  0.00  0.00    +0.000 OA
BRANCH  16  17
ATOM     17  C   UNL     1       2.370   6.460  19.718  0.00  0.00    +0.000 A 
ATOM     18  C   UNL     1       3.156   6.683  18.607  0.00  0.00    +0.000 A 
ATOM     19  C   UNL     1       3.894   5.492  18.374  0.00  0.00    +0.000 A 
ATOM     20  N   UNL     1       3.538   4.550  19.264  0.00  0.00    +0.000 NA
ATOM     21  N   UNL     1       2.628   5.151  20.060  0.00  0.00    +0.000 N 
ATOM     22  C   UNL     1       2.063   4.422  21.163  0.00  0.00    +0.000 C 
BRANCH  19  23
ATOM     23  C   UNL     1       4.930   5.267  17.364  0.00  0.00    +0.000 A 
ATOM     24  C   UNL     1       6.108   6.036  17.348  0.00  0.00    +0.000 A 
ATOM     25  C   UNL     1       7.111   5.798  16.409  0.00  0.00    +0.000 A 
ATOM     26  C   UNL     1       6.958   4.789  15.463  0.00  0.00    +0.000 A 
ATOM     27  C   UNL     1       5.794   4.018  15.458  0.00  0.00    +0.000 A 
ATOM     28  C   UNL     1       4.788   4.257  16.398  0.00  0.00    +0.000 A 
ENDBRANCH  19  23
ENDBRANCH  16  17
ENDBRANCH  15  16
ENDBRANCH   6  15
TORSDOF 8
ENDMDL
MODEL 6
REMARK VINA RESULT:      -7.3      2.787      8.475
REMARK  Name = 
REMARK  11 active torsions:
REMARK  status: ('A' for Active; 'I' for Inactive)
REMARK    1  A    between atoms: C_1  and  O_2
REMARK    2  A    between atoms: O_2  and  N_3
REMARK    3  A    between atoms: C_4  and  C_5
REMARK    4  A    between atoms: C_4  and  C_9
REMARK    5  A    between atoms: C_5  and  O_7
REMARK    6  A    between atoms: O_7  and  C_8
REMARK    7  A    between atoms: C_14  and  C_15
REMARK    8  A    between atoms: C_15  and  O_16
REMARK    9  A    between atoms: O_16  and  C_17
REMARK   10  A    between atoms: C_19  and  C_20
REMARK   11  A    between atoms: N_27  and  C_28
REMARK                            x       y       z     vdW  Elec       q    Type
REMARK                         _______ _______ _______ _____ _____    ______ ____
ROOT
ATOM      1  C   UNL     1      -0.358  10.731  20.617  0.00  0.00    +0.000 A 
ATOM      2  C   UNL     1      -1.052  11.377  21.668  0.00  0.00    +0.000 A 
ATOM      3  C   UNL     1      -1.064  10.863  22.964  0.00  0.00    +0.000 A 
ATOM      4  C   UNL     1      -0.368   9.700  23.246  0.00  0.00    +0.000 A 
ATOM      5  C   UNL     1       0.322   9.045  22.227  0.00  0.00    +0.000 A 
ATOM      6  C   UNL     1       0.346   9.527  20.897  0.00  0.00    +0.000 A 
ENDROOT
BRANCH   1   8
ATOM      7  N   UNL     1       0.296  12.207  18.662  0.00  0.00    +0.000 NA
ATOM      8  C   UNL     1      -0.508  11.374  19.262  0.00  0.00    +0.000 C 
BRANCH   7  10
ATOM      9  C   UNL     1       1.157  14.118  19.548  0.00  0.00    +0.000 C 
ATOM     10  O   UNL     1       1.310  12.703  19.471  0.00  0.00    +0.000 OA
ENDBRANCH   7  10
BRANCH   8  11
ATOM     11  C   UNL     1      -1.806  11.069  18.480  0.00  0.00    +0.000 C 
ATOM     12  O   UNL     1      -2.831  11.723  18.596  0.00  0.00    +0.000 OA
BRANCH  11  13
ATOM     13  O   UNL     1      -1.599  10.044  17.618  0.00  0.00    +0.000 OA
ATOM     14  C   UNL     1      -2.316  10.123  16.386  0.00  0.00    +0.000 C 
ENDBRANCH  11  13
ENDBRANCH   8  11
ENDBRANCH   1   8
BRANCH   6  15
ATOM     15  C   UNL     1       1.049   8.674  19.843  0.00  0.00    +0.000 C 
BRANCH  15  16
ATOM     16  O   UNL     1       2.042   7.750  20.358  0.00  0.00    +0.000 OA
BRANCH  16  17
ATOM     17  C   UNL     1       2.528   6.855  19.484  0.00  0.00    +0.000 A 
ATOM     18  C   UNL     1       3.349   6.952  18.381  0.00  0.00    +0.000 A 
ATOM     19  C   UNL     1       3.604   5.628  17.936  0.00  0.00    +0.000 A 
ATOM     20  N   UNL     1       2.923   4.749  18.691  0.00  0.00    +0.000 NA
ATOM     21  N   UNL     1       2.288   5.505  19.613  0.00  0.00    +0.000 N 
ATOM     22  C   UNL     1       1.488   4.865  20.622  0.00  0.00    +0.000 C 
BRANCH  19  23
ATOM     23  C   UNL     1       4.495   5.206  16.852  0.00  0.00    +0.000 A 
ATOM     24  C   UNL     1       5.082   6.148  15.988  0.00  0.00    +0.000 A 
ATOM     25  C   UNL     1       5.958   5.751  14.978  0.00  0.00    +0.000 A 
ATOM     26  C   UNL     1       6.264   4.403  14.808  0.00  0.00    +0.000 A 
ATOM     27  C   UNL     1       5.689   3.453  15.653  0.00  0.00    +0.000 A 
ATOM     28  C   UNL     1       4.809   3.850  16.663  0.00  0.00    +0.000 A 
ENDBRANCH  19  23
ENDBRANCH  16  17
ENDBRANCH  15  16
ENDBRANCH   6  15
TORSDOF 8
ENDMDL
MODEL 7
REMARK VINA RESULT:      -7.3      3.593      7.757
REMARK  Name = 
REMARK  11 active torsions:
REMARK  status: ('A' for Active; 'I' for Inactive)
REMARK    1  A    between atoms: C_1  and  O_2
REMARK    2  A    between atoms: O_2  and  N_3
REMARK    3  A    between atoms: C_4  and  C_5
REMARK    4  A    between atoms: C_4  and  C_9
REMARK    5  A    between atoms: C_5  and  O_7
REMARK    6  A    between atoms: O_7  and  C_8
REMARK    7  A    between atoms: C_14  and  C_15
REMARK    8  A    between atoms: C_15  and  O_16
REMARK    9  A    between atoms: O_16  and  C_17
REMARK   10  A    between atoms: C_19  and  C_20
REMARK   11  A    between atoms: N_27  and  C_28
REMARK                            x       y       z     vdW  Elec       q    Type
REMARK                         _______ _______ _______ _____ _____    ______ ____
ROOT
ATOM      1  C   UNL     1       2.290   6.159  19.456  0.00  0.00    +0.000 A 
ATOM      2  C   UNL     1       1.601   6.135  20.691  0.00  0.00    +0.000 A 
ATOM      3  C   UNL     1       1.083   7.295  21.266  0.00  0.00    +0.000 A 
ATOM      4  C   UNL     1       1.224   8.507  20.610  0.00  0.00    +0.000 A 
ATOM      5  C   UNL     1       1.901   8.556  19.392  0.00  0.00    +0.000 A 
ATOM      6  C   UNL     1       2.454   7.403  18.785  0.00  0.00    +0.000 A 
ENDROOT
BRANCH   1   8
ATOM      7  N   UNL     1       4.042   4.342  19.224  0.00  0.00    +0.000 NA
ATOM      8  C   UNL     1       2.854   4.835  19.012  0.00  0.00    +0.000 C 
BRANCH   7  10
ATOM      9  C   UNL     1       6.263   4.771  19.478  0.00  0.00    +0.000 C 
ATOM     10  O   UNL     1       4.948   5.251  19.755  0.00  0.00    +0.000 OA
ENDBRANCH   7  10
BRANCH   8  11
ATOM     11  C   UNL     1       1.943   3.941  18.138  0.00  0.00    +0.000 C 
ATOM     12  O   UNL     1       1.210   4.379  17.264  0.00  0.00    +0.000 OA
BRANCH  11  13
ATOM     13  O   UNL     1       2.146   2.636  18.439  0.00  0.00    +0.000 OA
ATOM     14  C   UNL     1       1.351   2.122  19.509  0.00  0.00    +0.000 C 
ENDBRANCH  11  13
ENDBRANCH   8  11
ENDBRANCH   1   8
BRANCH   6  15
ATOM     15  C   UNL     1       3.260   7.592  17.502  0.00  0.00    +0.000 C 
BRANCH  15  16
ATOM     16  O   UNL     1       4.701   7.572  17.668  0.00  0.00    +0.000 OA
BRANCH  16  17
ATOM     17  C   UNL     1       5.387   6.814  16.799  0.00  0.00    +0.000 A 
ATOM     18  C   UNL     1       5.016   5.996  15.752  0.00  0.00    +0.000 A 
ATOM     19  C   UNL     1       6.212   5.556  15.126  0.00  0.00    +0.000 A 
ATOM     20  N   UNL     1       7.280   6.029  15.790  0.00  0.00    +0.000 NA
ATOM     21  N   UNL     1       6.763   6.782  16.786  0.00  0.00    +0.000 N 
ATOM     22  C   UNL     1       7.649   7.479  17.677  0.00  0.00    +0.000 C 
BRANCH  19  23
ATOM     23  C   UNL     1       6.338   4.742  13.914  0.00  0.00    +0.000 A 
ATOM     24  C   UNL     1       7.451   4.875  13.064  0.00  0.00    +0.000 A 
ATOM     25  C   UNL     1       7.590   4.076  11.930  0.00  0.00    +0.000 A 
ATOM     26  C   UNL     1       6.619   3.128  11.619  0.00  0.00    +0.000 A 
ATOM     27  C   UNL     1       5.506   2.983  12.448  0.00  0.00    +0.000 A 
ATOM     28  C   UNL     1       5.365   3.786  13.583  0.00  0.00    +0.000 A 
ENDBRANCH  19  23
ENDBRANCH  16  17
ENDBRANCH  15  16
ENDBRANCH   6  15
TORSDOF 8
ENDMDL
MODEL 8
REMARK VINA RESULT:      -7.3      2.226      2.714
REMARK  Name = 
REMARK  11 active torsions:
REMARK  status: ('A' for Active; 'I' for Inactive)
REMARK    1  A    between atoms: C_1  and  O_2
REMARK    2  A    between atoms: O_2  and  N_3
REMARK    3  A    between atoms: C_4  and  C_5
REMARK    4  A    between atoms: C_4  and  C_9
REMARK    5  A    between atoms: C_5  and  O_7
REMARK    6  A    between atoms: O_7  and  C_8
REMARK    7  A    between atoms: C_14  and  C_15
REMARK    8  A    between atoms: C_15  and  O_16
REMARK    9  A    between atoms: O_16  and  C_17
REMARK   10  A    between atoms: C_19  and  C_20
REMARK   11  A    between atoms: N_27  and  C_28
REMARK                            x       y       z     vdW  Elec       q    Type
REMARK                         _______ _______ _______ _____ _____    ______ ____
ROOT
ATOM      1  C   UNL     1       5.022   5.493  17.792  0.00  0.00    +0.000 A 
ATOM      2  C   UNL     1       5.333   4.235  18.360  0.00  0.00    +0.000 A 
ATOM      3  C   UNL     1       4.451   3.578  19.217  0.00  0.00    +0.000 A 
ATOM      4  C   UNL     1       3.227   4.154  19.514  0.00  0.00    +0.000 A 
ATOM      5  C   UNL     1       2.899   5.394  18.967  0.00  0.00    +0.000 A 
ATOM      6  C   UNL     1       3.773   6.098  18.106  0.00  0.00    +0.000 A 
ENDROOT
BRANCH   1   8
ATOM      7  N   UNL     1       6.289   6.021  15.661  0.00  0.00    +0.000 NA
ATOM      8  C   UNL     1       6.113   6.102  16.950  0.00  0.00    +0.000 C 
BRANCH   7  10
ATOM      9  C   UNL     1       6.310   4.151  14.364  0.00  0.00    +0.000 C 
ATOM     10  O   UNL     1       5.471   5.091  15.032  0.00  0.00    +0.000 OA
ENDBRANCH   7  10
BRANCH   8  11
ATOM     11  C   UNL     1       7.219   6.887  17.694  0.00  0.00    +0.000 C 
ATOM     12  O   UNL     1       7.961   6.381  18.522  0.00  0.00    +0.000 OA
BRANCH  11  13
ATOM     13  O   UNL     1       7.277   8.159  17.232  0.00  0.00    +0.000 OA
ATOM     14  C   UNL     1       8.173   9.025  17.929  0.00  0.00    +0.000 C 
ENDBRANCH  11  13
ENDBRANCH   8  11
ENDBRANCH   1   8
BRANCH   6  15
ATOM     15  C   UNL     1       3.351   7.493  17.648  0.00  0.00    +0.000 C 
BRANCH  15  16
ATOM     16  O   UNL     1       1.965   7.836  17.909  0.00  0.00    +0.000 OA
BRANCH  16  17
ATOM     17  C   UNL     1       1.748   9.036  18.469  0.00  0.00    +0.000 A 
ATOM     18  C   UNL     1       1.781  10.329  17.990  0.00  0.00    +0.000 A 
ATOM     19  C   UNL     1       1.336  11.172  19.043  0.00  0.00    +0.000 A 
ATOM     20  N   UNL     1       1.097  10.443  20.146  0.00  0.00    +0.000 NA
ATOM     21  N   UNL     1       1.346   9.167  19.779  0.00  0.00    +0.000 N 
ATOM     22  C   UNL     1       1.145   8.107  20.729  0.00  0.00    +0.000 C 
BRANCH  19  23
ATOM     23  C   UNL     1       1.112  12.619  18.993  0.00  0.00    +0.000 A 
ATOM     24  C   UNL     1       2.185  13.523  19.084  0.00  0.00    +0.000 A 
ATOM     25  C   UNL     1       1.976  14.900  19.000  0.00  0.00    +0.000 A 
ATOM     26  C   UNL     1       0.690  15.402  18.827  0.00  0.00    +0.000 A 
ATOM     27  C   UNL     1      -0.390  14.522  18.740  0.00  0.00    +0.000 A 
ATOM     28  C   UNL     1      -0.181  13.142  18.826  0.00  0.00    +0.000 A 
ENDBRANCH  19  23
ENDBRANCH  16  17
ENDBRANCH  15  16
ENDBRANCH   6  15
TORSDOF 8
ENDMDL
MODEL 9
REMARK VINA RESULT:      -7.3      2.729      8.297
REMARK  Name = 
REMARK  11 active torsions:
REMARK  status: ('A' for Active; 'I' for Inactive)
REMARK    1  A    between atoms: C_1  and  O_2
REMARK    2  A    between atoms: O_2  and  N_3
REMARK    3  A    between atoms: C_4  and  C_5
REMARK    4  A    between atoms: C_4  and  C_9
REMARK    5  A    between atoms: C_5  and  O_7
REMARK    6  A    between atoms: O_7  and  C_8
REMARK    7  A    between atoms: C_14  and  C_15
REMARK    8  A    between atoms: C_15  and  O_16
REMARK    9  A    between atoms: O_16  and  C_17
REMARK   10  A    between atoms: C_19  and  C_20
REMARK   11  A    between atoms: N_27  and  C_28
REMARK                            x       y       z     vdW  Elec       q    Type
REMARK                         _______ _______ _______ _____ _____    ______ ____
ROOT
ATOM      1  C   UNL     1      -0.737  11.265  19.351  0.00  0.00    +0.000 A 
ATOM      2  C   UNL     1      -2.052  11.785  19.328  0.00  0.00    +0.000 A 
ATOM      3  C   UNL     1      -2.987  11.376  18.378  0.00  0.00    +0.000 A 
ATOM      4  C   UNL     1      -2.635  10.422  17.437  0.00  0.00    +0.000 A 
ATOM      5  C   UNL     1      -1.345   9.895  17.440  0.00  0.00    +0.000 A 
ATOM      6  C   UNL     1      -0.364  10.296  18.378  0.00  0.00    +0.000 A 
ENDROOT
BRANCH   1   8
ATOM      7  N   UNL     1       0.394  11.463  21.611  0.00  0.00    +0.000 NA
ATOM      8  C   UNL     1       0.171  11.867  20.392  0.00  0.00    +0.000 C 
BRANCH   7  10
ATOM      9  C   UNL     1       0.315   9.405  22.578  0.00  0.00    +0.000 C 
ATOM     10  O   UNL     1      -0.472  10.469  22.049  0.00  0.00    +0.000 OA
ENDBRANCH   7  10
BRANCH   8  11
ATOM     11  C   UNL     1       0.906  13.173  20.011  0.00  0.00    +0.000 C 
ATOM     12  O   UNL     1       0.340  14.246  19.865  0.00  0.00    +0.000 OA
BRANCH  11  13
ATOM     13  O   UNL     1       2.242  12.953  19.950  0.00  0.00    +0.000 OA
ATOM     14  C   UNL     1       3.060  13.985  20.502  0.00  0.00    +0.000 C 
ENDBRANCH  11  13
ENDBRANCH   8  11
ENDBRANCH   1   8
BRANCH   6  15
ATOM     15  C   UNL     1       1.045   9.727  18.222  0.00  0.00    +0.000 C 
BRANCH  15  16
ATOM     16  O   UNL     1       1.465   8.819  19.273  0.00  0.00    +0.000 OA
BRANCH  16  17
ATOM     17  C   UNL     1       2.243   7.794  18.894  0.00  0.00    +0.000 A 
ATOM     18  C   UNL     1       3.144   7.614  17.865  0.00  0.00    +0.000 A 
ATOM     19  C   UNL     1       3.750   6.345  18.061  0.00  0.00    +0.000 A 
ATOM     20  N   UNL     1       3.206   5.736  19.129  0.00  0.00    +0.000 NA
ATOM     21  N   UNL     1       2.309   6.622  19.614  0.00  0.00    +0.000 N 
ATOM     22  C   UNL     1       1.566   6.298  20.801  0.00  0.00    +0.000 C 
BRANCH  19  23
ATOM     23  C   UNL     1       4.835   5.743  17.283  0.00  0.00    +0.000 A 
ATOM     24  C   UNL     1       4.629   4.567  16.540  0.00  0.00    +0.000 A 
ATOM     25  C   UNL     1       5.651   4.013  15.769  0.00  0.00    +0.000 A 
ATOM     26  C   UNL     1       6.902   4.622  15.727  0.00  0.00    +0.000 A 
ATOM     27  C   UNL     1       7.128   5.787  16.460  0.00  0.00    +0.000 A 
ATOM     28  C   UNL     1       6.105   6.341  17.235  0.00  0.00    +0.000 A 
ENDBRANCH  19  23
ENDBRANCH  16  17
ENDBRANCH  15  16
ENDBRANCH   6  15
TORSDOF 8
ENDMDL
