MODEL 1
REMARK VINA RESULT:      -7.4      0.000      0.000
REMARK  Name = 
REMARK  5 active torsions:
REMARK  status: ('A' for Active; 'I' for Inactive)
REMARK    1  A    between atoms: C_1  and  C_2
REMARK    2  A    between atoms: C_2  and  C_4
REMARK    3  A    between atoms: C_7  and  C_8
REMARK    4  A    between atoms: C_9  and  C_10
REMARK    5  A    between atoms: N_18  and  C_19
REMARK                            x       y       z     vdW  Elec       q    Type
REMARK                         _______ _______ _______ _____ _____    ______ ____
ROOT
ATOM      1  C   UNL     1       8.267   9.173  17.767  0.00  0.00    +0.000 C 
ATOM      2  C   UNL     1       8.941   9.624  18.836  0.00  0.00    +0.000 C 
ENDROOT
BRANCH   2   3
ATOM      3  C   UNL     1       9.552  10.907  18.819  0.00  0.00    +0.000 A 
ATOM      4  N   UNL     1      10.129  11.537  17.811  0.00  0.00    +0.000 NA
ATOM      5  C   UNL     1      10.615  12.712  18.322  0.00  0.00    +0.000 A 
ATOM      6  C   UNL     1      11.333  13.731  17.679  0.00  0.00    +0.000 A 
ATOM      7  C   UNL     1      11.743  14.843  18.425  0.00  0.00    +0.000 A 
ATOM      8  C   UNL     1      11.436  14.943  19.782  0.00  0.00    +0.000 A 
ATOM      9  C   UNL     1      10.715  13.938  20.437  0.00  0.00    +0.000 A 
ATOM     10  C   UNL     1      10.322  12.829  19.676  0.00  0.00    +0.000 A 
ATOM     11  N   UNL     1       9.638  11.670  19.971  0.00  0.00    +0.000 N 
ATOM     12  C   UNL     1       9.128  11.319  21.278  0.00  0.00    +0.000 C 
ENDBRANCH   2   3
BRANCH   1  16
ATOM     13  C   UNL     1       6.395   6.158  17.193  0.00  0.00    +0.000 A 
ATOM     14  C   UNL     1       7.175   5.703  18.232  0.00  0.00    +0.000 A 
ATOM     15  C   UNL     1       8.023   6.780  18.596  0.00  0.00    +0.000 A 
ATOM     16  C   UNL     1       7.721   7.858  17.771  0.00  0.00    +0.000 A 
ATOM     17  O   UNL     1       6.730   7.447  16.908  0.00  0.00    +0.000 OA
BRANCH  13  19
ATOM     18  C   UNL     1       5.678   5.190  14.990  0.00  0.00    +0.000 C 
ATOM     19  C   UNL     1       5.347   5.522  16.426  0.00  0.00    +0.000 C 
ATOM     20  O   UNL     1       4.242   5.242  16.895  0.00  0.00    +0.000 OA
ENDBRANCH  13  19
ENDBRANCH   1  16
TORSDOF 3
ENDMDL
MODEL 2
REMARK VINA RESULT:      -7.4      7.200      8.342
REMARK  Name = 
REMARK  5 active torsions:
REMARK  status: ('A' for Active; 'I' for Inactive)
REMARK    1  A    between atoms: C_1  and  C_2
REMARK    2  A    between atoms: C_2  and  C_4
REMARK    3  A    between atoms: C_7  and  C_8
REMARK    4  A    between atoms: C_9  and  C_10
REMARK    5  A    between atoms: N_18  and  C_19
REMARK                            x       y       z     vdW  Elec       q    Type
REMARK                         _______ _______ _______ _____ _____    ______ ____
ROOT
ATOM      1  C   UNL     1       3.149   6.237  19.296  0.00  0.00    +0.000 C 
ATOM      2  C   UNL     1       2.466   7.315  18.882  0.00  0.00    +0.000 C 
ENDROOT
BRANCH   2   3
ATOM      3  C   UNL     1       1.741   8.114  19.806  0.00  0.00    +0.000 A 
ATOM      4  N   UNL     1       1.443   7.859  21.068  0.00  0.00    +0.000 NA
ATOM      5  C   UNL     1       0.682   8.912  21.502  0.00  0.00    +0.000 A 
ATOM      6  C   UNL     1       0.087   9.122  22.755  0.00  0.00    +0.000 A 
ATOM      7  C   UNL     1      -0.669  10.283  22.959  0.00  0.00    +0.000 A 
ATOM      8  C   UNL     1      -0.822  11.221  21.937  0.00  0.00    +0.000 A 
ATOM      9  C   UNL     1      -0.230  11.030  20.683  0.00  0.00    +0.000 A 
ATOM     10  C   UNL     1       0.514   9.857  20.496  0.00  0.00    +0.000 A 
ATOM     11  N   UNL     1       1.204   9.332  19.425  0.00  0.00    +0.000 N 
ATOM     12  C   UNL     1       1.311   9.953  18.124  0.00  0.00    +0.000 C 
ENDBRANCH   2   3
BRANCH   1  16
ATOM     13  C   UNL     1       5.461   4.620  17.069  0.00  0.00    +0.000 A 
ATOM     14  C   UNL     1       4.344   3.879  16.754  0.00  0.00    +0.000 A 
ATOM     15  C   UNL     1       3.296   4.372  17.573  0.00  0.00    +0.000 A 
ATOM     16  C   UNL     1       3.810   5.403  18.350  0.00  0.00    +0.000 A 
ATOM     17  O   UNL     1       5.144   5.527  18.035  0.00  0.00    +0.000 OA
BRANCH  13  19
ATOM     18  C   UNL     1       6.962   4.671  15.056  0.00  0.00    +0.000 C 
ATOM     19  C   UNL     1       6.813   4.588  16.558  0.00  0.00    +0.000 C 
ATOM     20  O   UNL     1       7.807   4.512  17.281  0.00  0.00    +0.000 OA
ENDBRANCH  13  19
ENDBRANCH   1  16
TORSDOF 3
ENDMDL
MODEL 3
REMARK VINA RESULT:      -7.3      3.107      8.226
REMARK  Name = 
REMARK  5 active torsions:
REMARK  status: ('A' for Active; 'I' for Inactive)
REMARK    1  A    between atoms: C_1  and  C_2
REMARK    2  A    between atoms: C_2  and  C_4
REMARK    3  A    between atoms: C_7  and  C_8
REMARK    4  A    between atoms: C_9  and  C_10
REMARK    5  A    between atoms: N_18  and  C_19
REMARK                            x       y       z     vdW  Elec       q    Type
REMARK                         _______ _______ _______ _____ _____    ______ ____
ROOT
ATOM      1  C   UNL     1       8.397   9.504  17.985  0.00  0.00    +0.000 C 
ATOM      2  C   UNL     1       8.416   8.235  18.422  0.00  0.00    +0.000 C 
ENDROOT
BRANCH   2   3
ATOM      3  C   UNL     1       7.558   7.259  17.848  0.00  0.00    +0.000 A 
ATOM      4  N   UNL     1       6.908   7.298  16.699  0.00  0.00    +0.000 NA
ATOM      5  C   UNL     1       6.173   6.143  16.634  0.00  0.00    +0.000 A 
ATOM      6  C   UNL     1       5.290   5.706  15.636  0.00  0.00    +0.000 A 
ATOM      7  C   UNL     1       4.634   4.480  15.803  0.00  0.00    +0.000 A 
ATOM      8  C   UNL     1       4.859   3.702  16.939  0.00  0.00    +0.000 A 
ATOM      9  C   UNL     1       5.741   4.121  17.942  0.00  0.00    +0.000 A 
ATOM     10  C   UNL     1       6.381   5.354  17.760  0.00  0.00    +0.000 A 
ATOM     11  N   UNL     1       7.273   6.081  18.518  0.00  0.00    +0.000 N 
ATOM     12  C   UNL     1       7.789   5.674  19.806  0.00  0.00    +0.000 C 
ENDBRANCH   2   3
BRANCH   1  16
ATOM     13  C   UNL     1      10.552  12.261  18.813  0.00  0.00    +0.000 A 
ATOM     14  C   UNL     1      10.428  11.729  20.077  0.00  0.00    +0.000 A 
ATOM     15  C   UNL     1       9.570  10.607  19.955  0.00  0.00    +0.000 A 
ATOM     16  C   UNL     1       9.209  10.488  18.618  0.00  0.00    +0.000 A 
ATOM     17  O   UNL     1       9.810  11.523  17.939  0.00  0.00    +0.000 OA
BRANCH  13  19
ATOM     18  C   UNL     1      11.530  13.433  16.820  0.00  0.00    +0.000 C 
ATOM     19  C   UNL     1      11.301  13.391  18.313  0.00  0.00    +0.000 C 
ATOM     20  O   UNL     1      11.729  14.291  19.036  0.00  0.00    +0.000 OA
ENDBRANCH  13  19
ENDBRANCH   1  16
TORSDOF 3
ENDMDL
MODEL 4
REMARK VINA RESULT:      -7.2      1.283      1.695
REMARK  Name = 
REMARK  5 active torsions:
REMARK  status: ('A' for Active; 'I' for Inactive)
REMARK    1  A    between atoms: C_1  and  C_2
REMARK    2  A    between atoms: C_2  and  C_4
REMARK    3  A    between atoms: C_7  and  C_8
REMARK    4  A    between atoms: C_9  and  C_10
REMARK    5  A    between atoms: N_18  and  C_19
REMARK                            x       y       z     vdW  Elec       q    Type
REMARK                         _______ _______ _______ _____ _____    ______ ____
ROOT
ATOM      1  C   UNL     1       8.687   8.667  18.554  0.00  0.00    +0.000 C 
ATOM      2  C   UNL     1       8.516   9.830  17.908  0.00  0.00    +0.000 C 
ENDROOT
BRANCH   2   3
ATOM      3  C   UNL     1       9.187  11.006  18.341  0.00  0.00    +0.000 A 
ATOM      4  N   UNL     1      10.242  11.116  19.129  0.00  0.00    +0.000 NA
ATOM      5  C   UNL     1      10.461  12.459  19.290  0.00  0.00    +0.000 A 
ATOM      6  C   UNL     1      11.440  13.115  20.051  0.00  0.00    +0.000 A 
ATOM      7  C   UNL     1      11.452  14.515  20.074  0.00  0.00    +0.000 A 
ATOM      8  C   UNL     1      10.515  15.247  19.345  0.00  0.00    +0.000 A 
ATOM      9  C   UNL     1       9.535  14.609  18.576  0.00  0.00    +0.000 A 
ATOM     10  C   UNL     1       9.533  13.207  18.574  0.00  0.00    +0.000 A 
ATOM     11  N   UNL     1       8.734  12.260  17.971  0.00  0.00    +0.000 N 
ATOM     12  C   UNL     1       7.602  12.553  17.120  0.00  0.00    +0.000 C 
ENDBRANCH   2   3
BRANCH   1  16
ATOM     13  C   UNL     1       6.592   6.242  16.924  0.00  0.00    +0.000 A 
ATOM     14  C   UNL     1       6.942   5.485  18.020  0.00  0.00    +0.000 A 
ATOM     15  C   UNL     1       7.811   6.291  18.799  0.00  0.00    +0.000 A 
ATOM     16  C   UNL     1       7.953   7.514  18.154  0.00  0.00    +0.000 A 
ATOM     17  O   UNL     1       7.208   7.455  16.998  0.00  0.00    +0.000 OA
BRANCH  13  19
ATOM     18  C   UNL     1       5.670   4.526  15.340  0.00  0.00    +0.000 C 
ATOM     19  C   UNL     1       5.727   5.964  15.799  0.00  0.00    +0.000 C 
ATOM     20  O   UNL     1       5.052   6.828  15.237  0.00  0.00    +0.000 OA
ENDBRANCH  13  19
ENDBRANCH   1  16
TORSDOF 3
ENDMDL
MODEL 5
REMARK VINA RESULT:      -7.1      7.079      9.451
REMARK  Name = 
REMARK  5 active torsions:
REMARK  status: ('A' for Active; 'I' for Inactive)
REMARK    1  A    between atoms: C_1  and  C_2
REMARK    2  A    between atoms: C_2  and  C_4
REMARK    3  A    between atoms: C_7  and  C_8
REMARK    4  A    between atoms: C_9  and  C_10
REMARK    5  A    between atoms: N_18  and  C_19
REMARK                            x       y       z     vdW  Elec       q    Type
REMARK                         _______ _______ _______ _____ _____    ______ ____
ROOT
ATOM      1  C   UNL     1       1.998   8.854  18.388  0.00  0.00    +0.000 C 
ATOM      2  C   UNL     1       2.338   7.612  18.767  0.00  0.00    +0.000 C 
ENDROOT
BRANCH   2   3
ATOM      3  C   UNL     1       3.267   6.851  18.008  0.00  0.00    +0.000 A 
ATOM      4  N   UNL     1       4.234   7.275  17.214  0.00  0.00    +0.000 NA
ATOM      5  C   UNL     1       4.804   6.154  16.671  0.00  0.00    +0.000 A 
ATOM      6  C   UNL     1       5.852   6.048  15.745  0.00  0.00    +0.000 A 
ATOM      7  C   UNL     1       6.253   4.776  15.320  0.00  0.00    +0.000 A 
ATOM      8  C   UNL     1       5.628   3.631  15.813  0.00  0.00    +0.000 A 
ATOM      9  C   UNL     1       4.584   3.718  16.742  0.00  0.00    +0.000 A 
ATOM     10  C   UNL     1       4.191   5.000  17.148  0.00  0.00    +0.000 A 
ATOM     11  N   UNL     1       3.219   5.468  18.005  0.00  0.00    +0.000 N 
ATOM     12  C   UNL     1       2.297   4.635  18.744  0.00  0.00    +0.000 C 
ENDBRANCH   2   3
BRANCH   1  16
ATOM     13  C   UNL     1      -0.057  10.432  20.880  0.00  0.00    +0.000 A 
ATOM     14  C   UNL     1      -0.814  10.755  19.776  0.00  0.00    +0.000 A 
ATOM     15  C   UNL     1      -0.133  10.217  18.654  0.00  0.00    +0.000 A 
ATOM     16  C   UNL     1       1.011   9.577  19.116  0.00  0.00    +0.000 A 
ATOM     17  O   UNL     1       1.045   9.736  20.483  0.00  0.00    +0.000 OA
BRANCH  13  19
ATOM     18  C   UNL     1      -0.206   9.492  23.203  0.00  0.00    +0.000 C 
ATOM     19  C   UNL     1      -0.249  10.694  22.289  0.00  0.00    +0.000 C 
ATOM     20  O   UNL     1      -0.424  11.823  22.748  0.00  0.00    +0.000 OA
ENDBRANCH  13  19
ENDBRANCH   1  16
TORSDOF 3
ENDMDL
MODEL 6
REMARK VINA RESULT:      -7.0      6.486      7.663
REMARK  Name = 
REMARK  5 active torsions:
REMARK  status: ('A' for Active; 'I' for Inactive)
REMARK    1  A    between atoms: C_1  and  C_2
REMARK    2  A    between atoms: C_2  and  C_4
REMARK    3  A    between atoms: C_7  and  C_8
REMARK    4  A    between atoms: C_9  and  C_10
REMARK    5  A    between atoms: N_18  and  C_19
REMARK                            x       y       z     vdW  Elec       q    Type
REMARK                         _______ _______ _______ _____ _____    ______ ____
ROOT
ATOM      1  C   UNL     1       4.912   6.866  17.552  0.00  0.00    +0.000 C 
ATOM      2  C   UNL     1       3.581   6.713  17.482  0.00  0.00    +0.000 C 
ENDROOT
BRANCH   2   3
ATOM      3  C   UNL     1       2.714   7.548  18.236  0.00  0.00    +0.000 A 
ATOM      4  N   UNL     1       2.231   8.738  17.926  0.00  0.00    +0.000 NA
ATOM      5  C   UNL     1       1.498   9.149  19.008  0.00  0.00    +0.000 A 
ATOM      6  C   UNL     1       0.799  10.349  19.206  0.00  0.00    +0.000 A 
ATOM      7  C   UNL     1       0.129  10.550  20.419  0.00  0.00    +0.000 A 
ATOM      8  C   UNL     1       0.148   9.571  21.413  0.00  0.00    +0.000 A 
ATOM      9  C   UNL     1       0.836   8.365  21.230  0.00  0.00    +0.000 A 
ATOM     10  C   UNL     1       1.507   8.187  20.013  0.00  0.00    +0.000 A 
ATOM     11  N   UNL     1       2.283   7.172  19.497  0.00  0.00    +0.000 N 
ATOM     12  C   UNL     1       2.602   5.942  20.186  0.00  0.00    +0.000 C 
ENDBRANCH   2   3
BRANCH   1  16
ATOM     13  C   UNL     1       6.777   4.998  15.111  0.00  0.00    +0.000 A 
ATOM     14  C   UNL     1       7.197   4.319  16.233  0.00  0.00    +0.000 A 
ATOM     15  C   UNL     1       6.563   4.942  17.337  0.00  0.00    +0.000 A 
ATOM     16  C   UNL     1       5.771   5.975  16.848  0.00  0.00    +0.000 A 
ATOM     17  O   UNL     1       5.931   6.000  15.481  0.00  0.00    +0.000 OA
BRANCH  13  19
ATOM     18  C   UNL     1       6.297   3.727  13.001  0.00  0.00    +0.000 C 
ATOM     19  C   UNL     1       7.071   4.815  13.708  0.00  0.00    +0.000 C 
ATOM     20  O   UNL     1       7.889   5.500  13.093  0.00  0.00    +0.000 OA
ENDBRANCH  13  19
ENDBRANCH   1  16
TORSDOF 3
ENDMDL
MODEL 7
REMARK VINA RESULT:      -7.0      1.491      1.780
REMARK  Name = 
REMARK  5 active torsions:
REMARK  status: ('A' for Active; 'I' for Inactive)
REMARK    1  A    between atoms: C_1  and  C_2
REMARK    2  A    between atoms: C_2  and  C_4
REMARK    3  A    between atoms: C_7  and  C_8
REMARK    4  A    between atoms: C_9  and  C_10
REMARK    5  A    between atoms: N_18  and  C_19
REMARK                            x       y       z     vdW  Elec       q    Type
REMARK                         _______ _______ _______ _____ _____    ______ ____
ROOT
ATOM      1  C   UNL     1       8.282   9.879  17.807  0.00  0.00    +0.000 C 
ATOM      2  C   UNL     1       9.180  10.433  18.636  0.00  0.00    +0.000 C 
ENDROOT
BRANCH   2   3
ATOM      3  C   UNL     1       9.475  11.821  18.562  0.00  0.00    +0.000 A 
ATOM      4  N   UNL     1       8.686  12.820  18.209  0.00  0.00    +0.000 NA
ATOM      5  C   UNL     1       9.459  13.950  18.243  0.00  0.00    +0.000 A 
ATOM      6  C   UNL     1       9.114  15.274  17.931  0.00  0.00    +0.000 A 
ATOM      7  C   UNL     1      10.094  16.269  18.026  0.00  0.00    +0.000 A 
ATOM      8  C   UNL     1      11.391  15.954  18.433  0.00  0.00    +0.000 A 
ATOM      9  C   UNL     1      11.751  14.640  18.754  0.00  0.00    +0.000 A 
ATOM     10  C   UNL     1      10.758  13.657  18.643  0.00  0.00    +0.000 A 
ATOM     11  N   UNL     1      10.744  12.294  18.848  0.00  0.00    +0.000 N 
ATOM     12  C   UNL     1      11.884  11.509  19.266  0.00  0.00    +0.000 C 
ENDBRANCH   2   3
BRANCH   1  16
ATOM     13  C   UNL     1       7.353   6.467  17.159  0.00  0.00    +0.000 A 
ATOM     14  C   UNL     1       7.848   6.292  18.432  0.00  0.00    +0.000 A 
ATOM     15  C   UNL     1       8.296   7.566  18.865  0.00  0.00    +0.000 A 
ATOM     16  C   UNL     1       8.049   8.475  17.843  0.00  0.00    +0.000 A 
ATOM     17  O   UNL     1       7.484   7.775  16.800  0.00  0.00    +0.000 OA
BRANCH  13  19
ATOM     18  C   UNL     1       5.327   5.838  15.816  0.00  0.00    +0.000 C 
ATOM     19  C   UNL     1       6.752   5.543  16.224  0.00  0.00    +0.000 C 
ATOM     20  O   UNL     1       7.348   4.571  15.757  0.00  0.00    +0.000 OA
ENDBRANCH  13  19
ENDBRANCH   1  16
TORSDOF 3
ENDMDL
MODEL 8
REMARK VINA RESULT:      -6.9      6.853      9.344
REMARK  Name = 
REMARK  5 active torsions:
REMARK  status: ('A' for Active; 'I' for Inactive)
REMARK    1  A    between atoms: C_1  and  C_2
REMARK    2  A    between atoms: C_2  and  C_4
REMARK    3  A    between atoms: C_7  and  C_8
REMARK    4  A    between atoms: C_9  and  C_10
REMARK    5  A    between atoms: N_18  and  C_19
REMARK                            x       y       z     vdW  Elec       q    Type
REMARK                         _______ _______ _______ _____ _____    ______ ____
ROOT
ATOM      1  C   UNL     1       1.887   8.790  17.823  0.00  0.00    +0.000 C 
ATOM      2  C   UNL     1       2.417   7.750  18.485  0.00  0.00    +0.000 C 
ENDROOT
BRANCH   2   3
ATOM      3  C   UNL     1       3.405   6.931  17.877  0.00  0.00    +0.000 A 
ATOM      4  N   UNL     1       4.573   7.279  17.368  0.00  0.00    +0.000 NA
ATOM      5  C   UNL     1       5.123   6.135  16.851  0.00  0.00    +0.000 A 
ATOM      6  C   UNL     1       6.340   5.960  16.177  0.00  0.00    +0.000 A 
ATOM      7  C   UNL     1       6.682   4.681  15.720  0.00  0.00    +0.000 A 
ATOM      8  C   UNL     1       5.832   3.597  15.938  0.00  0.00    +0.000 A 
ATOM      9  C   UNL     1       4.616   3.753  16.614  0.00  0.00    +0.000 A 
ATOM     10  C   UNL     1       4.288   5.042  17.055  0.00  0.00    +0.000 A 
ATOM     11  N   UNL     1       3.201   5.571  17.717  0.00  0.00    +0.000 N 
ATOM     12  C   UNL     1       2.042   4.816  18.140  0.00  0.00    +0.000 C 
ENDBRANCH   2   3
BRANCH   1  16
ATOM     13  C   UNL     1      -1.127  10.586  18.607  0.00  0.00    +0.000 A 
ATOM     14  C   UNL     1      -0.424  10.884  19.753  0.00  0.00    +0.000 A 
ATOM     15  C   UNL     1       0.827  10.226  19.635  0.00  0.00    +0.000 A 
ATOM     16  C   UNL     1       0.845   9.558  18.416  0.00  0.00    +0.000 A 
ATOM     17  O   UNL     1      -0.371   9.781  17.810  0.00  0.00    +0.000 OA
BRANCH  13  19
ATOM     18  C   UNL     1      -2.952  10.297  16.907  0.00  0.00    +0.000 C 
ATOM     19  C   UNL     1      -2.443  10.979  18.155  0.00  0.00    +0.000 C 
ATOM     20  O   UNL     1      -3.139  11.809  18.742  0.00  0.00    +0.000 OA
ENDBRANCH  13  19
ENDBRANCH   1  16
TORSDOF 3
ENDMDL
MODEL 9
REMARK VINA RESULT:      -6.8      7.164      8.471
REMARK  Name = 
REMARK  5 active torsions:
REMARK  status: ('A' for Active; 'I' for Inactive)
REMARK    1  A    between atoms: C_1  and  C_2
REMARK    2  A    between atoms: C_2  and  C_4
REMARK    3  A    between atoms: C_7  and  C_8
REMARK    4  A    between atoms: C_9  and  C_10
REMARK    5  A    between atoms: N_18  and  C_19
REMARK                            x       y       z     vdW  Elec       q    Type
REMARK                         _______ _______ _______ _____ _____    ______ ____
ROOT
ATOM      1  C   UNL     1       2.510   6.806  19.497  0.00  0.00    +0.000 C 
ATOM      2  C   UNL     1       1.960   7.968  19.112  0.00  0.00    +0.000 C 
ENDROOT
BRANCH   2   3
ATOM      3  C   UNL     1       1.263   8.784  20.044  0.00  0.00    +0.000 A 
ATOM      4  N   UNL     1       0.774   8.459  21.227  0.00  0.00    +0.000 NA
ATOM      5  C   UNL     1       0.143   9.579  21.702  0.00  0.00    +0.000 A 
ATOM      6  C   UNL     1      -0.561   9.763  22.901  0.00  0.00    +0.000 A 
ATOM      7  C   UNL     1      -1.141  11.010  23.160  0.00  0.00    +0.000 A 
ATOM      8  C   UNL     1      -1.015  12.057  22.247  0.00  0.00    +0.000 A 
ATOM      9  C   UNL     1      -0.311  11.893  21.049  0.00  0.00    +0.000 A 
ATOM     10  C   UNL     1       0.254  10.635  20.803  0.00  0.00    +0.000 A 
ATOM     11  N   UNL     1       0.978  10.107  19.756  0.00  0.00    +0.000 N 
ATOM     12  C   UNL     1       1.344  10.828  18.557  0.00  0.00    +0.000 C 
ENDBRANCH   2   3
BRANCH   1  16
ATOM     13  C   UNL     1       4.425   5.387  16.805  0.00  0.00    +0.000 A 
ATOM     14  C   UNL     1       3.803   4.233  17.226  0.00  0.00    +0.000 A 
ATOM     15  C   UNL     1       2.992   4.597  18.331  0.00  0.00    +0.000 A 
ATOM     16  C   UNL     1       3.141   5.963  18.538  0.00  0.00    +0.000 A 
ATOM     17  O   UNL     1       4.037   6.424  17.600  0.00  0.00    +0.000 OA
BRANCH  13  19
ATOM     18  C   UNL     1       6.096   4.446  15.185  0.00  0.00    +0.000 C 
ATOM     19  C   UNL     1       5.348   5.644  15.723  0.00  0.00    +0.000 C 
ATOM     20  O   UNL     1       5.525   6.762  15.237  0.00  0.00    +0.000 OA
ENDBRANCH  13  19
ENDBRANCH   1  16
TORSDOF 3
ENDMDL
