MODEL 1
REMARK VINA RESULT:      -7.9      0.000      0.000
REMARK  Name = 
REMARK  7 active torsions:
REMARK  status: ('A' for Active; 'I' for Inactive)
REMARK    1  A    between atoms: C_1  and  C_2
REMARK    2  A    between atoms: C_2  and  C_3
REMARK    3  A    between atoms: C_3  and  C_4
REMARK    4  A    between atoms: C_9  and  N_10
REMARK    5  A    between atoms: N_10  and  C_11
REMARK    6  A    between atoms: C_11  and  C_12
REMARK    7  A    between atoms: C_14  and  C_15
REMARK                            x       y       z     vdW  Elec       q    Type
REMARK                         _______ _______ _______ _____ _____    ______ ____
ROOT
ATOM      1  N   UNL     1       5.714   6.221  15.975  0.00  0.00    +0.000 N 
ATOM      2  H   UNL     1       6.002   7.171  16.197  0.00  0.00    +0.000 HD
ENDROOT
BRANCH   1   9
ATOM      3  C   UNL     1       1.919   3.173  19.253  0.00  0.00    +0.000 C 
ATOM      4  C   UNL     1       0.675   2.529  18.629  0.00  0.00    +0.000 C 
ATOM      5  O   UNL     1       1.670   4.596  19.394  0.00  0.00    +0.000 OA
ATOM      6  C   UNL     1       2.629   5.116  18.578  0.00  0.00    +0.000 A 
ATOM      7  C   UNL     1       2.857   6.450  18.334  0.00  0.00    +0.000 A 
ATOM      8  C   UNL     1       3.911   6.779  17.469  0.00  0.00    +0.000 A 
ATOM      9  C   UNL     1       4.699   5.788  16.836  0.00  0.00    +0.000 A 
ATOM     10  C   UNL     1       4.441   4.445  17.129  0.00  0.00    +0.000 A 
ATOM     11  C   UNL     1       3.405   4.143  17.996  0.00  0.00    +0.000 A 
ATOM     12  O   UNL     1       3.040   2.889  18.378  0.00  0.00    +0.000 OA
BRANCH   3  14
ATOM     13  C   UNL     1       2.199   3.561  21.781  0.00  0.00    +0.000 C 
ATOM     14  C   UNL     1       2.191   2.551  20.636  0.00  0.00    +0.000 C 
ENDBRANCH   3  14
ENDBRANCH   1   9
BRANCH   1  15
ATOM     15  C   UNL     1       6.859   5.357  15.690  0.00  0.00    +0.000 C 
BRANCH  15  16
ATOM     16  C   UNL     1       6.825   4.797  14.289  0.00  0.00    +0.000 A 
ATOM     17  C   UNL     1       5.957   3.848  13.784  0.00  0.00    +0.000 A 
ATOM     18  C   UNL     1       6.199   3.507  12.407  0.00  0.00    +0.000 A 
ATOM     19  C   UNL     1       7.271   4.239  11.927  0.00  0.00    +0.000 A 
ATOM     20  S   UNL     1       7.948   5.291  13.101  0.00  0.00    +0.000 S 
BRANCH  18  21
ATOM     21  C   UNL     1       5.405   2.523  11.667  0.00  0.00    +0.000 C 
ATOM     22  N   UNL     1       5.966   1.297  11.451  0.00  0.00    +0.000 N 
ATOM     23  O   UNL     1       4.280   2.758  11.243  0.00  0.00    +0.000 OA
ATOM     24  H   UNL     1       6.882   1.023  11.765  0.00  0.00    +0.000 HD
ATOM     25  H   UNL     1       5.406   0.628  10.940  0.00  0.00    +0.000 HD
ENDBRANCH  18  21
ENDBRANCH  15  16
ENDBRANCH   1  15
TORSDOF 5
ENDMDL
MODEL 2
REMARK VINA RESULT:      -7.3      1.290      1.782
REMARK  Name = 
REMARK  7 active torsions:
REMARK  status: ('A' for Active; 'I' for Inactive)
REMARK    1  A    between atoms: C_1  and  C_2
REMARK    2  A    between atoms: C_2  and  C_3
REMARK    3  A    between atoms: C_3  and  C_4
REMARK    4  A    between atoms: C_9  and  N_10
REMARK    5  A    between atoms: N_10  and  C_11
REMARK    6  A    between atoms: C_11  and  C_12
REMARK    7  A    between atoms: C_14  and  C_15
REMARK                            x       y       z     vdW  Elec       q    Type
REMARK                         _______ _______ _______ _____ _____    ______ ____
ROOT
ATOM      1  N   UNL     1       6.246   6.190  16.079  0.00  0.00    +0.000 N 
ATOM      2  H   UNL     1       6.540   7.163  16.126  0.00  0.00    +0.000 HD
ENDROOT
BRANCH   1   9
ATOM      3  C   UNL     1       1.972   5.178  19.970  0.00  0.00    +0.000 C 
ATOM      4  C   UNL     1       1.398   6.312  20.828  0.00  0.00    +0.000 C 
ATOM      5  O   UNL     1       3.255   4.792  20.527  0.00  0.00    +0.000 OA
ATOM      6  C   UNL     1       4.094   5.096  19.497  0.00  0.00    +0.000 A 
ATOM      7  C   UNL     1       5.458   4.926  19.479  0.00  0.00    +0.000 A 
ATOM      8  C   UNL     1       6.140   5.289  18.308  0.00  0.00    +0.000 A 
ATOM      9  C   UNL     1       5.471   5.843  17.191  0.00  0.00    +0.000 A 
ATOM     10  C   UNL     1       4.079   5.980  17.250  0.00  0.00    +0.000 A 
ATOM     11  C   UNL     1       3.425   5.603  18.410  0.00  0.00    +0.000 A 
ATOM     12  O   UNL     1       2.081   5.673  18.612  0.00  0.00    +0.000 OA
BRANCH   3  14
ATOM     13  C   UNL     1       1.312   2.956  21.087  0.00  0.00    +0.000 C 
ATOM     14  C   UNL     1       1.011   3.972  19.989  0.00  0.00    +0.000 C 
ENDBRANCH   3  14
ENDBRANCH   1   9
BRANCH   1  15
ATOM     15  C   UNL     1       7.330   5.316  15.632  0.00  0.00    +0.000 C 
BRANCH  15  16
ATOM     16  C   UNL     1       7.119   4.808  14.227  0.00  0.00    +0.000 A 
ATOM     17  C   UNL     1       6.197   3.871  13.801  0.00  0.00    +0.000 A 
ATOM     18  C   UNL     1       6.264   3.584  12.392  0.00  0.00    +0.000 A 
ATOM     19  C   UNL     1       7.263   4.341  11.808  0.00  0.00    +0.000 A 
ATOM     20  S   UNL     1       8.081   5.354  12.925  0.00  0.00    +0.000 S 
BRANCH  18  21
ATOM     21  C   UNL     1       5.385   2.621  11.723  0.00  0.00    +0.000 C 
ATOM     22  N   UNL     1       5.899   1.386  11.447  0.00  0.00    +0.000 N 
ATOM     23  O   UNL     1       4.230   2.882  11.406  0.00  0.00    +0.000 OA
ATOM     24  H   UNL     1       6.835   1.092  11.672  0.00  0.00    +0.000 HD
ATOM     25  H   UNL     1       5.281   0.733  10.985  0.00  0.00    +0.000 HD
ENDBRANCH  18  21
ENDBRANCH  15  16
ENDBRANCH   1  15
TORSDOF 5
ENDMDL
MODEL 3
REMARK VINA RESULT:      -7.3      1.354      1.994
REMARK  Name = 
REMARK  7 active torsions:
REMARK  status: ('A' for Active; 'I' for Inactive)
REMARK    1  A    between atoms: C_1  and  C_2
REMARK    2  A    between atoms: C_2  and  C_3
REMARK    3  A    between atoms: C_3  and  C_4
REMARK    4  A    between atoms: C_9  and  N_10
REMARK    5  A    between atoms: N_10  and  C_11
REMARK    6  A    between atoms: C_11  and  C_12
REMARK    7  A    between atoms: C_14  and  C_15
REMARK                            x       y       z     vdW  Elec       q    Type
REMARK                         _______ _______ _______ _____ _____    ______ ____
ROOT
ATOM      1  N   UNL     1       6.645   4.132  16.691  0.00  0.00    +0.000 N 
ATOM      2  H   UNL     1       6.878   3.206  16.336  0.00  0.00    +0.000 HD
ENDROOT
BRANCH   1   9
ATOM      3  C   UNL     1       2.165   4.641  20.446  0.00  0.00    +0.000 C 
ATOM      4  C   UNL     1       1.945   3.609  21.559  0.00  0.00    +0.000 C 
ATOM      5  O   UNL     1       1.706   4.065  19.196  0.00  0.00    +0.000 OA
ATOM      6  C   UNL     1       2.863   4.031  18.477  0.00  0.00    +0.000 A 
ATOM      7  C   UNL     1       3.010   3.572  17.190  0.00  0.00    +0.000 A 
ATOM      8  C   UNL     1       4.291   3.638  16.621  0.00  0.00    +0.000 A 
ATOM      9  C   UNL     1       5.407   4.125  17.342  0.00  0.00    +0.000 A 
ATOM     10  C   UNL     1       5.204   4.599  18.643  0.00  0.00    +0.000 A 
ATOM     11  C   UNL     1       3.930   4.536  19.180  0.00  0.00    +0.000 A 
ATOM     12  O   UNL     1       3.580   4.961  20.424  0.00  0.00    +0.000 OA
BRANCH   3  14
ATOM     13  C   UNL     1       2.012   7.200  20.230  0.00  0.00    +0.000 C 
ATOM     14  C   UNL     1       1.366   5.921  20.756  0.00  0.00    +0.000 C 
ENDBRANCH   3  14
ENDBRANCH   1   9
BRANCH   1  15
ATOM     15  C   UNL     1       6.965   5.181  15.723  0.00  0.00    +0.000 C 
BRANCH  15  16
ATOM     16  C   UNL     1       6.889   4.694  14.297  0.00  0.00    +0.000 A 
ATOM     17  C   UNL     1       6.035   3.740  13.779  0.00  0.00    +0.000 A 
ATOM     18  C   UNL     1       6.227   3.482  12.377  0.00  0.00    +0.000 A 
ATOM     19  C   UNL     1       7.249   4.279  11.891  0.00  0.00    +0.000 A 
ATOM     20  S   UNL     1       7.939   5.293  13.091  0.00  0.00    +0.000 S 
BRANCH  18  21
ATOM     21  C   UNL     1       5.437   2.508  11.619  0.00  0.00    +0.000 C 
ATOM     22  N   UNL     1       6.011   1.295  11.364  0.00  0.00    +0.000 N 
ATOM     23  O   UNL     1       4.305   2.740  11.213  0.00  0.00    +0.000 OA
ATOM     24  H   UNL     1       6.934   1.024  11.661  0.00  0.00    +0.000 HD
ATOM     25  H   UNL     1       5.454   0.633  10.841  0.00  0.00    +0.000 HD
ENDBRANCH  18  21
ENDBRANCH  15  16
ENDBRANCH   1  15
TORSDOF 5
ENDMDL
MODEL 4
REMARK VINA RESULT:      -7.0      4.149      5.819
REMARK  Name = 
REMARK  7 active torsions:
REMARK  status: ('A' for Active; 'I' for Inactive)
REMARK    1  A    between atoms: C_1  and  C_2
REMARK    2  A    between atoms: C_2  and  C_3
REMARK    3  A    between atoms: C_3  and  C_4
REMARK    4  A    between atoms: C_9  and  N_10
REMARK    5  A    between atoms: N_10  and  C_11
REMARK    6  A    between atoms: C_11  and  C_12
REMARK    7  A    between atoms: C_14  and  C_15
REMARK                            x       y       z     vdW  Elec       q    Type
REMARK                         _______ _______ _______ _____ _____    ______ ____
ROOT
ATOM      1  N   UNL     1       3.188   5.778  19.796  0.00  0.00    +0.000 N 
ATOM      2  H   UNL     1       2.816   5.408  20.668  0.00  0.00    +0.000 HD
ENDROOT
BRANCH   1   9
ATOM      3  C   UNL     1       0.197  10.825  19.685  0.00  0.00    +0.000 C 
ATOM      4  C   UNL     1      -1.324  10.839  19.487  0.00  0.00    +0.000 C 
ATOM      5  O   UNL     1       0.821  10.586  18.396  0.00  0.00    +0.000 OA
ATOM      6  C   UNL     1       1.450   9.399  18.622  0.00  0.00    +0.000 A 
ATOM      7  C   UNL     1       2.214   8.697  17.720  0.00  0.00    +0.000 A 
ATOM      8  C   UNL     1       2.792   7.496  18.158  0.00  0.00    +0.000 A 
ATOM      9  C   UNL     1       2.582   6.995  19.464  0.00  0.00    +0.000 A 
ATOM     10  C   UNL     1       1.813   7.754  20.353  0.00  0.00    +0.000 A 
ATOM     11  C   UNL     1       1.262   8.942  19.904  0.00  0.00    +0.000 A 
ATOM     12  O   UNL     1       0.500   9.786  20.650  0.00  0.00    +0.000 OA
BRANCH   3  14
ATOM     13  C   UNL     1      -0.447  12.995  20.908  0.00  0.00    +0.000 C 
ATOM     14  C   UNL     1       0.663  12.183  20.246  0.00  0.00    +0.000 C 
ENDBRANCH   3  14
ENDBRANCH   1   9
BRANCH   1  15
ATOM     15  C   UNL     1       3.348   4.733  18.785  0.00  0.00    +0.000 C 
BRANCH  15  16
ATOM     16  C   UNL     1       4.685   4.800  18.091  0.00  0.00    +0.000 A 
ATOM     17  C   UNL     1       4.942   4.642  16.743  0.00  0.00    +0.000 A 
ATOM     18  C   UNL     1       6.335   4.742  16.397  0.00  0.00    +0.000 A 
ATOM     19  C   UNL     1       7.083   4.978  17.536  0.00  0.00    +0.000 A 
ATOM     20  S   UNL     1       6.131   5.072  18.960  0.00  0.00    +0.000 S 
BRANCH  18  21
ATOM     21  C   UNL     1       6.838   4.604  15.027  0.00  0.00    +0.000 C 
ATOM     22  N   UNL     1       6.312   3.602  14.262  0.00  0.00    +0.000 N 
ATOM     23  O   UNL     1       7.699   5.337  14.557  0.00  0.00    +0.000 OA
ATOM     24  H   UNL     1       5.603   2.957  14.571  0.00  0.00    +0.000 HD
ATOM     25  H   UNL     1       6.668   3.520  13.320  0.00  0.00    +0.000 HD
ENDBRANCH  18  21
ENDBRANCH  15  16
ENDBRANCH   1  15
TORSDOF 5
ENDMDL
MODEL 5
REMARK VINA RESULT:      -7.0      4.633      8.196
REMARK  Name = 
REMARK  7 active torsions:
REMARK  status: ('A' for Active; 'I' for Inactive)
REMARK    1  A    between atoms: C_1  and  C_2
REMARK    2  A    between atoms: C_2  and  C_3
REMARK    3  A    between atoms: C_3  and  C_4
REMARK    4  A    between atoms: C_9  and  N_10
REMARK    5  A    between atoms: N_10  and  C_11
REMARK    6  A    between atoms: C_11  and  C_12
REMARK    7  A    between atoms: C_14  and  C_15
REMARK                            x       y       z     vdW  Elec       q    Type
REMARK                         _______ _______ _______ _____ _____    ______ ____
ROOT
ATOM      1  N   UNL     1       2.815   8.766  17.888  0.00  0.00    +0.000 N 
ATOM      2  H   UNL     1       3.379   9.249  17.191  0.00  0.00    +0.000 HD
ENDROOT
BRANCH   1   9
ATOM      3  C   UNL     1       3.201   3.033  19.075  0.00  0.00    +0.000 C 
ATOM      4  C   UNL     1       4.019   2.526  20.269  0.00  0.00    +0.000 C 
ATOM      5  O   UNL     1       4.122   3.385  18.010  0.00  0.00    +0.000 OA
ATOM      6  C   UNL     1       3.886   4.721  17.886  0.00  0.00    +0.000 A 
ATOM      7  C   UNL     1       4.496   5.578  17.001  0.00  0.00    +0.000 A 
ATOM      8  C   UNL     1       4.097   6.923  17.022  0.00  0.00    +0.000 A 
ATOM      9  C   UNL     1       3.129   7.404  17.935  0.00  0.00    +0.000 A 
ATOM     10  C   UNL     1       2.522   6.490  18.804  0.00  0.00    +0.000 A 
ATOM     11  C   UNL     1       2.921   5.166  18.757  0.00  0.00    +0.000 A 
ATOM     12  O   UNL     1       2.421   4.167  19.533  0.00  0.00    +0.000 OA
BRANCH   3  14
ATOM     13  C   UNL     1       0.765   2.249  18.801  0.00  0.00    +0.000 C 
ATOM     14  C   UNL     1       2.242   1.927  18.592  0.00  0.00    +0.000 C 
ENDBRANCH   3  14
ENDBRANCH   1   9
BRANCH   1  15
ATOM     15  C   UNL     1       1.419   9.203  17.855  0.00  0.00    +0.000 C 
BRANCH  15  16
ATOM     16  C   UNL     1       1.035  10.002  19.076  0.00  0.00    +0.000 A 
ATOM     17  C   UNL     1       0.493   9.528  20.255  0.00  0.00    +0.000 A 
ATOM     18  C   UNL     1       0.217  10.553  21.226  0.00  0.00    +0.000 A 
ATOM     19  C   UNL     1       0.576  11.788  20.716  0.00  0.00    +0.000 A 
ATOM     20  S   UNL     1       1.219  11.699  19.128  0.00  0.00    +0.000 S 
BRANCH  18  21
ATOM     21  C   UNL     1      -0.362  10.281  22.544  0.00  0.00    +0.000 C 
ATOM     22  N   UNL     1      -0.653   8.981  22.847  0.00  0.00    +0.000 N 
ATOM     23  O   UNL     1      -0.594  11.161  23.364  0.00  0.00    +0.000 OA
ATOM     24  H   UNL     1      -0.495   8.201  22.232  0.00  0.00    +0.000 HD
ATOM     25  H   UNL     1      -1.051   8.809  23.760  0.00  0.00    +0.000 HD
ENDBRANCH  18  21
ENDBRANCH  15  16
ENDBRANCH   1  15
TORSDOF 5
ENDMDL
MODEL 6
REMARK VINA RESULT:      -7.0      4.533      6.829
REMARK  Name = 
REMARK  7 active torsions:
REMARK  status: ('A' for Active; 'I' for Inactive)
REMARK    1  A    between atoms: C_1  and  C_2
REMARK    2  A    between atoms: C_2  and  C_3
REMARK    3  A    between atoms: C_3  and  C_4
REMARK    4  A    between atoms: C_9  and  N_10
REMARK    5  A    between atoms: N_10  and  C_11
REMARK    6  A    between atoms: C_11  and  C_12
REMARK    7  A    between atoms: C_14  and  C_15
REMARK                            x       y       z     vdW  Elec       q    Type
REMARK                         _______ _______ _______ _____ _____    ______ ____
ROOT
ATOM      1  N   UNL     1       2.621   6.207  20.414  0.00  0.00    +0.000 N 
ATOM      2  H   UNL     1       2.398   6.112  21.402  0.00  0.00    +0.000 HD
ENDROOT
BRANCH   1   9
ATOM      3  C   UNL     1      -0.057  11.343  19.474  0.00  0.00    +0.000 C 
ATOM      4  C   UNL     1      -1.575  11.417  19.269  0.00  0.00    +0.000 C 
ATOM      5  O   UNL     1       0.544  10.861  18.245  0.00  0.00    +0.000 OA
ATOM      6  C   UNL     1       1.102   9.690  18.662  0.00  0.00    +0.000 A 
ATOM      7  C   UNL     1       1.816   8.806  17.889  0.00  0.00    +0.000 A 
ATOM      8  C   UNL     1       2.323   7.659  18.518  0.00  0.00    +0.000 A 
ATOM      9  C   UNL     1       2.088   7.389  19.887  0.00  0.00    +0.000 A 
ATOM     10  C   UNL     1       1.371   8.327  20.638  0.00  0.00    +0.000 A 
ATOM     11  C   UNL     1       0.892   9.459  20.000  0.00  0.00    +0.000 A 
ATOM     12  O   UNL     1       0.186  10.457  20.596  0.00  0.00    +0.000 OA
BRANCH   3  14
ATOM     13  C   UNL     1      -0.165  13.874  19.027  0.00  0.00    +0.000 C 
ATOM     14  C   UNL     1       0.493  12.742  19.811  0.00  0.00    +0.000 C 
ENDBRANCH   3  14
ENDBRANCH   1   9
BRANCH   1  15
ATOM     15  C   UNL     1       2.462   4.942  19.697  0.00  0.00    +0.000 C 
BRANCH  15  16
ATOM     16  C   UNL     1       3.632   4.639  18.794  0.00  0.00    +0.000 A 
ATOM     17  C   UNL     1       4.965   4.925  19.020  0.00  0.00    +0.000 A 
ATOM     18  C   UNL     1       5.839   4.525  17.949  0.00  0.00    +0.000 A 
ATOM     19  C   UNL     1       5.099   3.939  16.937  0.00  0.00    +0.000 A 
ATOM     20  S   UNL     1       3.419   3.881  17.279  0.00  0.00    +0.000 S 
BRANCH  18  21
ATOM     21  C   UNL     1       7.289   4.733  17.971  0.00  0.00    +0.000 C 
ATOM     22  N   UNL     1       7.819   5.355  19.065  0.00  0.00    +0.000 N 
ATOM     23  O   UNL     1       8.026   4.378  17.060  0.00  0.00    +0.000 OA
ATOM     24  H   UNL     1       7.285   5.677  19.855  0.00  0.00    +0.000 HD
ATOM     25  H   UNL     1       8.821   5.490  19.067  0.00  0.00    +0.000 HD
ENDBRANCH  18  21
ENDBRANCH  15  16
ENDBRANCH   1  15
TORSDOF 5
ENDMDL
MODEL 7
REMARK VINA RESULT:      -6.9      4.308      6.037
REMARK  Name = 
REMARK  7 active torsions:
REMARK  status: ('A' for Active; 'I' for Inactive)
REMARK    1  A    between atoms: C_1  and  C_2
REMARK    2  A    between atoms: C_2  and  C_3
REMARK    3  A    between atoms: C_3  and  C_4
REMARK    4  A    between atoms: C_9  and  N_10
REMARK    5  A    between atoms: N_10  and  C_11
REMARK    6  A    between atoms: C_11  and  C_12
REMARK    7  A    between atoms: C_14  and  C_15
REMARK                            x       y       z     vdW  Elec       q    Type
REMARK                         _______ _______ _______ _____ _____    ______ ____
ROOT
ATOM      1  N   UNL     1       3.000   6.622  18.186  0.00  0.00    +0.000 N 
ATOM      2  H   UNL     1       3.413   6.965  17.321  0.00  0.00    +0.000 HD
ENDROOT
BRANCH   1   9
ATOM      3  C   UNL     1      -0.058  11.413  19.646  0.00  0.00    +0.000 C 
ATOM      4  C   UNL     1       0.649  12.739  19.951  0.00  0.00    +0.000 C 
ATOM      5  O   UNL     1       0.091  10.544  20.799  0.00  0.00    +0.000 OA
ATOM      6  C   UNL     1       0.809   9.516  20.267  0.00  0.00    +0.000 A 
ATOM      7  C   UNL     1       1.234   8.389  20.931  0.00  0.00    +0.000 A 
ATOM      8  C   UNL     1       1.952   7.435  20.193  0.00  0.00    +0.000 A 
ATOM      9  C   UNL     1       2.263   7.625  18.826  0.00  0.00    +0.000 A 
ATOM     10  C   UNL     1       1.792   8.778  18.189  0.00  0.00    +0.000 A 
ATOM     11  C   UNL     1       1.076   9.699  18.933  0.00  0.00    +0.000 A 
ATOM     12  O   UNL     1       0.552  10.860  18.452  0.00  0.00    +0.000 OA
BRANCH   3  14
ATOM     13  C   UNL     1      -2.135  10.813  18.252  0.00  0.00    +0.000 C 
ATOM     14  C   UNL     1      -1.553  11.668  19.374  0.00  0.00    +0.000 C 
ENDBRANCH   3  14
ENDBRANCH   1   9
BRANCH   1  15
ATOM     15  C   UNL     1       3.937   5.795  18.945  0.00  0.00    +0.000 C 
BRANCH  15  16
ATOM     16  C   UNL     1       5.172   5.444  18.152  0.00  0.00    +0.000 A 
ATOM     17  C   UNL     1       5.271   5.270  16.785  0.00  0.00    +0.000 A 
ATOM     18  C   UNL     1       6.591   4.916  16.335  0.00  0.00    +0.000 A 
ATOM     19  C   UNL     1       7.449   4.839  17.418  0.00  0.00    +0.000 A 
ATOM     20  S   UNL     1       6.678   5.181  18.912  0.00  0.00    +0.000 S 
BRANCH  18  21
ATOM     21  C   UNL     1       6.928   4.679  14.928  0.00  0.00    +0.000 C 
ATOM     22  N   UNL     1       6.344   3.608  14.314  0.00  0.00    +0.000 N 
ATOM     23  O   UNL     1       7.701   5.392  14.300  0.00  0.00    +0.000 OA
ATOM     24  H   UNL     1       5.700   2.975  14.757  0.00  0.00    +0.000 HD
ATOM     25  H   UNL     1       6.585   3.458  13.344  0.00  0.00    +0.000 HD
ENDBRANCH  18  21
ENDBRANCH  15  16
ENDBRANCH   1  15
TORSDOF 5
ENDMDL
MODEL 8
REMARK VINA RESULT:      -6.9      4.675      6.961
REMARK  Name = 
REMARK  7 active torsions:
REMARK  status: ('A' for Active; 'I' for Inactive)
REMARK    1  A    between atoms: C_1  and  C_2
REMARK    2  A    between atoms: C_2  and  C_3
REMARK    3  A    between atoms: C_3  and  C_4
REMARK    4  A    between atoms: C_9  and  N_10
REMARK    5  A    between atoms: N_10  and  C_11
REMARK    6  A    between atoms: C_11  and  C_12
REMARK    7  A    between atoms: C_14  and  C_15
REMARK                            x       y       z     vdW  Elec       q    Type
REMARK                         _______ _______ _______ _____ _____    ______ ____
ROOT
ATOM      1  N   UNL     1       2.665   6.883  20.245  0.00  0.00    +0.000 N 
ATOM      2  H   UNL     1       3.059   6.798  21.180  0.00  0.00    +0.000 HD
ENDROOT
BRANCH   1   9
ATOM      3  C   UNL     1      -0.668  11.457  18.697  0.00  0.00    +0.000 C 
ATOM      4  C   UNL     1      -0.112  12.886  18.723  0.00  0.00    +0.000 C 
ATOM      5  O   UNL     1      -0.966  11.061  20.061  0.00  0.00    +0.000 OA
ATOM      6  C   UNL     1      -0.112  10.012  20.226  0.00  0.00    +0.000 A 
ATOM      7  C   UNL     1       0.026   9.244  21.358  0.00  0.00    +0.000 A 
ATOM      8  C   UNL     1       0.956   8.194  21.318  0.00  0.00    +0.000 A 
ATOM      9  C   UNL     1       1.754   7.942  20.176  0.00  0.00    +0.000 A 
ATOM     10  C   UNL     1       1.564   8.739  19.042  0.00  0.00    +0.000 A 
ATOM     11  C   UNL     1       0.632   9.761  19.099  0.00  0.00    +0.000 A 
ATOM     12  O   UNL     1       0.335  10.611  18.080  0.00  0.00    +0.000 OA
BRANCH   3  14
ATOM     13  C   UNL     1      -2.099  10.149  17.006  0.00  0.00    +0.000 C 
ATOM     14  C   UNL     1      -1.954  11.413  17.848  0.00  0.00    +0.000 C 
ENDBRANCH   3  14
ENDBRANCH   1   9
BRANCH   1  15
ATOM     15  C   UNL     1       2.327   5.578  19.677  0.00  0.00    +0.000 C 
BRANCH  15  16
ATOM     16  C   UNL     1       3.437   5.013  18.827  0.00  0.00    +0.000 A 
ATOM     17  C   UNL     1       4.789   5.285  18.919  0.00  0.00    +0.000 A 
ATOM     18  C   UNL     1       5.592   4.598  17.943  0.00  0.00    +0.000 A 
ATOM     19  C   UNL     1       4.782   3.817  17.138  0.00  0.00    +0.000 A 
ATOM     20  S   UNL     1       3.121   3.919  17.554  0.00  0.00    +0.000 S 
BRANCH  18  21
ATOM     21  C   UNL     1       7.048   4.739  17.853  0.00  0.00    +0.000 C 
ATOM     22  N   UNL     1       7.605   4.720  16.606  0.00  0.00    +0.000 N 
ATOM     23  O   UNL     1       7.767   4.868  18.836  0.00  0.00    +0.000 OA
ATOM     24  H   UNL     1       7.087   4.618  15.749  0.00  0.00    +0.000 HD
ATOM     25  H   UNL     1       8.610   4.819  16.559  0.00  0.00    +0.000 HD
ENDBRANCH  18  21
ENDBRANCH  15  16
ENDBRANCH   1  15
TORSDOF 5
ENDMDL
MODEL 9
REMARK VINA RESULT:      -6.8      3.783      5.575
REMARK  Name = 
REMARK  7 active torsions:
REMARK  status: ('A' for Active; 'I' for Inactive)
REMARK    1  A    between atoms: C_1  and  C_2
REMARK    2  A    between atoms: C_2  and  C_3
REMARK    3  A    between atoms: C_3  and  C_4
REMARK    4  A    between atoms: C_9  and  N_10
REMARK    5  A    between atoms: N_10  and  C_11
REMARK    6  A    between atoms: C_11  and  C_12
REMARK    7  A    between atoms: C_14  and  C_15
REMARK                            x       y       z     vdW  Elec       q    Type
REMARK                         _______ _______ _______ _____ _____    ______ ____
ROOT
ATOM      1  N   UNL     1       3.207   5.706  19.119  0.00  0.00    +0.000 N 
ATOM      2  H   UNL     1       3.105   5.028  19.871  0.00  0.00    +0.000 HD
ENDROOT
BRANCH   1   9
ATOM      3  C   UNL     1       0.224  10.752  18.850  0.00  0.00    +0.000 C 
ATOM      4  C   UNL     1       0.952  12.102  18.857  0.00  0.00    +0.000 C 
ATOM      5  O   UNL     1       0.212  10.236  20.207  0.00  0.00    +0.000 OA
ATOM      6  C   UNL     1       0.936   9.092  20.063  0.00  0.00    +0.000 A 
ATOM      7  C   UNL     1       1.240   8.188  21.054  0.00  0.00    +0.000 A 
ATOM      8  C   UNL     1       1.989   7.058  20.693  0.00  0.00    +0.000 A 
ATOM      9  C   UNL     1       2.451   6.856  19.371  0.00  0.00    +0.000 A 
ATOM     10  C   UNL     1       2.101   7.793  18.392  0.00  0.00    +0.000 A 
ATOM     11  C   UNL     1       1.350   8.894  18.768  0.00  0.00    +0.000 A 
ATOM     12  O   UNL     1       0.932   9.882  17.931  0.00  0.00    +0.000 OA
BRANCH   3  14
ATOM     13  C   UNL     1      -1.622   9.983  17.232  0.00  0.00    +0.000 C 
ATOM     14  C   UNL     1      -1.221  10.941  18.350  0.00  0.00    +0.000 C 
ENDBRANCH   3  14
ENDBRANCH   1   9
BRANCH   1  15
ATOM     15  C   UNL     1       3.166   5.069  17.803  0.00  0.00    +0.000 C 
BRANCH  15  16
ATOM     16  C   UNL     1       4.538   4.905  17.198  0.00  0.00    +0.000 A 
ATOM     17  C   UNL     1       4.875   4.927  15.858  0.00  0.00    +0.000 A 
ATOM     18  C   UNL     1       6.275   4.719  15.603  0.00  0.00    +0.000 A 
ATOM     19  C   UNL     1       6.947   4.544  16.800  0.00  0.00    +0.000 A 
ATOM     20  S   UNL     1       5.917   4.630  18.168  0.00  0.00    +0.000 S 
BRANCH  18  21
ATOM     21  C   UNL     1       6.856   4.699  14.258  0.00  0.00    +0.000 C 
ATOM     22  N   UNL     1       7.922   5.519  14.021  0.00  0.00    +0.000 N 
ATOM     23  O   UNL     1       6.426   3.990  13.356  0.00  0.00    +0.000 OA
ATOM     24  H   UNL     1       8.336   6.132  14.704  0.00  0.00    +0.000 HD
ATOM     25  H   UNL     1       8.313   5.494  13.089  0.00  0.00    +0.000 HD
ENDBRANCH  18  21
ENDBRANCH  15  16
ENDBRANCH   1  15
TORSDOF 5
ENDMDL
