MODEL 1
REMARK VINA RESULT:      -8.4      0.000      0.000
REMARK  Name = 
REMARK  3 active torsions:
REMARK  status: ('A' for Active; 'I' for Inactive)
REMARK    1  A    between atoms: N_9  and  C_10
REMARK    2  A    between atoms: N_9  and  C_16
REMARK    3  A    between atoms: C_10  and  C_11
REMARK                            x       y       z     vdW  Elec       q    Type
REMARK                         _______ _______ _______ _____ _____    ______ ____
ROOT
ATOM      1  O   UNL     1       3.108   8.129  17.064  0.00  0.00    +0.000 OA
ATOM      2  C   UNL     1       2.830   7.454  18.053  0.00  0.00    +0.000 C 
ATOM      3  N   UNL     1       2.098   7.891  19.138  0.00  0.00    +0.000 N 
ATOM      4  C   UNL     1       1.500   9.113  19.203  0.00  0.00    +0.000 A 
ATOM      5  N   UNL     1       1.506  10.100  18.349  0.00  0.00    +0.000 NA
ATOM      6  C   UNL     1       0.722  11.127  18.838  0.00  0.00    +0.000 A 
ATOM      7  C   UNL     1       0.107  10.881  20.047  0.00  0.00    +0.000 A 
ATOM      8  S   UNL     1       0.569   9.333  20.621  0.00  0.00    +0.000 S 
ATOM      9  N   UNL     1       3.292   6.125  18.195  0.00  0.00    +0.000 N 
ATOM     10  H   UNL     1       2.000   7.306  19.945  0.00  0.00    +0.000 HD
ENDROOT
BRANCH   9  11
ATOM     11  C   UNL     1       2.647   5.200  19.053  0.00  0.00    +0.000 A 
ATOM     12  C   UNL     1       2.871   5.242  20.434  0.00  0.00    +0.000 A 
ATOM     13  C   UNL     1       2.208   4.337  21.269  0.00  0.00    +0.000 A 
ATOM     14  C   UNL     1       1.360   3.380  20.714  0.00  0.00    +0.000 A 
ATOM     15  F   UNL     1       0.751   2.496  21.516  0.00  0.00    +0.000 F 
ATOM     16  C   UNL     1       1.138   3.343  19.346  0.00  0.00    +0.000 A 
ATOM     17  F   UNL     1       0.332   2.421  18.809  0.00  0.00    +0.000 F 
ATOM     18  C   UNL     1       1.749   4.270  18.515  0.00  0.00    +0.000 A 
ENDBRANCH   9  11
BRANCH   9  19
ATOM     19  C   UNL     1       4.144   5.556  17.132  0.00  0.00    +0.000 C 
BRANCH  19  20
ATOM     20  C   UNL     1       5.657   5.599  17.417  0.00  0.00    +0.000 C 
ATOM     21  C   UNL     1       6.308   6.973  17.265  0.00  0.00    +0.000 C 
ATOM     22  C   UNL     1       7.649   6.812  17.971  0.00  0.00    +0.000 C 
ATOM     23  C   UNL     1       7.398   5.816  19.100  0.00  0.00    +0.000 C 
ATOM     24  C   UNL     1       5.998   5.247  18.868  0.00  0.00    +0.000 C 
ENDBRANCH  19  20
ENDBRANCH   9  19
TORSDOF 3
ENDMDL
MODEL 2
REMARK VINA RESULT:      -8.4      4.087      6.055
REMARK  Name = 
REMARK  3 active torsions:
REMARK  status: ('A' for Active; 'I' for Inactive)
REMARK    1  A    between atoms: N_9  and  C_10
REMARK    2  A    between atoms: N_9  and  C_16
REMARK    3  A    between atoms: C_10  and  C_11
REMARK                            x       y       z     vdW  Elec       q    Type
REMARK                         _______ _______ _______ _____ _____    ______ ____
ROOT
ATOM      1  O   UNL     1       3.725   2.756  16.804  0.00  0.00    +0.000 OA
ATOM      2  C   UNL     1       4.236   3.826  17.129  0.00  0.00    +0.000 C 
ATOM      3  N   UNL     1       3.744   4.687  18.088  0.00  0.00    +0.000 N 
ATOM      4  C   UNL     1       2.668   4.406  18.875  0.00  0.00    +0.000 A 
ATOM      5  N   UNL     1       1.882   3.364  18.887  0.00  0.00    +0.000 NA
ATOM      6  C   UNL     1       0.947   3.513  19.892  0.00  0.00    +0.000 A 
ATOM      7  C   UNL     1       1.066   4.658  20.650  0.00  0.00    +0.000 A 
ATOM      8  S   UNL     1       2.358   5.612  20.048  0.00  0.00    +0.000 S 
ATOM      9  N   UNL     1       5.401   4.313  16.492  0.00  0.00    +0.000 N 
ATOM     10  H   UNL     1       4.169   5.584  18.223  0.00  0.00    +0.000 HD
ENDROOT
BRANCH   9  11
ATOM     11  C   UNL     1       6.247   5.265  17.113  0.00  0.00    +0.000 A 
ATOM     12  C   UNL     1       6.243   6.599  16.688  0.00  0.00    +0.000 A 
ATOM     13  C   UNL     1       7.066   7.530  17.330  0.00  0.00    +0.000 A 
ATOM     14  C   UNL     1       7.909   7.113  18.358  0.00  0.00    +0.000 A 
ATOM     15  F   UNL     1       8.718   8.003  18.948  0.00  0.00    +0.000 F 
ATOM     16  C   UNL     1       7.909   5.791  18.778  0.00  0.00    +0.000 A 
ATOM     17  F   UNL     1       8.722   5.386  19.760  0.00  0.00    +0.000 F 
ATOM     18  C   UNL     1       7.057   4.872  18.185  0.00  0.00    +0.000 A 
ENDBRANCH   9  11
BRANCH   9  19
ATOM     19  C   UNL     1       5.993   3.518  15.398  0.00  0.00    +0.000 C 
BRANCH  19  20
ATOM     20  C   UNL     1       6.219   4.286  14.082  0.00  0.00    +0.000 C 
ATOM     21  C   UNL     1       7.596   4.931  13.935  0.00  0.00    +0.000 C 
ATOM     22  C   UNL     1       7.681   5.253  12.448  0.00  0.00    +0.000 C 
ATOM     23  C   UNL     1       6.881   4.158  11.747  0.00  0.00    +0.000 C 
ATOM     24  C   UNL     1       6.160   3.381  12.849  0.00  0.00    +0.000 C 
ENDBRANCH  19  20
ENDBRANCH   9  19
TORSDOF 3
ENDMDL
MODEL 3
REMARK VINA RESULT:      -8.1      0.574      1.382
REMARK  Name = 
REMARK  3 active torsions:
REMARK  status: ('A' for Active; 'I' for Inactive)
REMARK    1  A    between atoms: N_9  and  C_10
REMARK    2  A    between atoms: N_9  and  C_16
REMARK    3  A    between atoms: C_10  and  C_11
REMARK                            x       y       z     vdW  Elec       q    Type
REMARK                         _______ _______ _______ _____ _____    ______ ____
ROOT
ATOM      1  O   UNL     1       3.368   8.169  16.997  0.00  0.00    +0.000 OA
ATOM      2  C   UNL     1       3.008   7.450  17.926  0.00  0.00    +0.000 C 
ATOM      3  N   UNL     1       2.207   7.845  18.978  0.00  0.00    +0.000 N 
ATOM      4  C   UNL     1       1.627   9.075  19.065  0.00  0.00    +0.000 A 
ATOM      5  N   UNL     1       1.711  10.104  18.268  0.00  0.00    +0.000 NA
ATOM      6  C   UNL     1       0.912  11.120  18.754  0.00  0.00    +0.000 A 
ATOM      7  C   UNL     1       0.207  10.825  19.901  0.00  0.00    +0.000 A 
ATOM      8  S   UNL     1       0.599   9.240  20.424  0.00  0.00    +0.000 S 
ATOM      9  N   UNL     1       3.435   6.106  18.030  0.00  0.00    +0.000 N 
ATOM     10  H   UNL     1       2.041   7.222  19.745  0.00  0.00    +0.000 HD
ENDROOT
BRANCH   9  11
ATOM     11  C   UNL     1       2.715   5.151  18.790  0.00  0.00    +0.000 A 
ATOM     12  C   UNL     1       1.784   4.310  18.169  0.00  0.00    +0.000 A 
ATOM     13  C   UNL     1       1.101   3.357  18.931  0.00  0.00    +0.000 A 
ATOM     14  C   UNL     1       1.324   3.281  20.304  0.00  0.00    +0.000 A 
ATOM     15  F   UNL     1       0.644   2.387  21.034  0.00  0.00    +0.000 F 
ATOM     16  C   UNL     1       2.249   4.114  20.915  0.00  0.00    +0.000 A 
ATOM     17  F   UNL     1       2.461   4.049  22.234  0.00  0.00    +0.000 F 
ATOM     18  C   UNL     1       2.972   5.025  20.160  0.00  0.00    +0.000 A 
ENDBRANCH   9  11
BRANCH   9  19
ATOM     19  C   UNL     1       4.353   5.575  17.002  0.00  0.00    +0.000 C 
BRANCH  19  20
ATOM     20  C   UNL     1       5.848   5.641  17.366  0.00  0.00    +0.000 C 
ATOM     21  C   UNL     1       6.475   7.032  17.283  0.00  0.00    +0.000 C 
ATOM     22  C   UNL     1       7.781   6.879  18.053  0.00  0.00    +0.000 C 
ATOM     23  C   UNL     1       7.496   5.847  19.141  0.00  0.00    +0.000 C 
ATOM     24  C   UNL     1       6.122   5.257  18.822  0.00  0.00    +0.000 C 
ENDBRANCH  19  20
ENDBRANCH   9  19
TORSDOF 3
ENDMDL
MODEL 4
REMARK VINA RESULT:      -8.1      4.247      6.064
REMARK  Name = 
REMARK  3 active torsions:
REMARK  status: ('A' for Active; 'I' for Inactive)
REMARK    1  A    between atoms: N_9  and  C_10
REMARK    2  A    between atoms: N_9  and  C_16
REMARK    3  A    between atoms: C_10  and  C_11
REMARK                            x       y       z     vdW  Elec       q    Type
REMARK                         _______ _______ _______ _____ _____    ______ ____
ROOT
ATOM      1  O   UNL     1       3.825   2.859  16.842  0.00  0.00    +0.000 OA
ATOM      2  C   UNL     1       4.353   3.911  17.199  0.00  0.00    +0.000 C 
ATOM      3  N   UNL     1       3.857   4.768  18.159  0.00  0.00    +0.000 N 
ATOM      4  C   UNL     1       2.754   4.501  18.912  0.00  0.00    +0.000 A 
ATOM      5  N   UNL     1       1.943   3.479  18.887  0.00  0.00    +0.000 NA
ATOM      6  C   UNL     1       0.986   3.634  19.870  0.00  0.00    +0.000 A 
ATOM      7  C   UNL     1       1.113   4.764  20.649  0.00  0.00    +0.000 A 
ATOM      8  S   UNL     1       2.443   5.695  20.098  0.00  0.00    +0.000 S 
ATOM      9  N   UNL     1       5.546   4.379  16.600  0.00  0.00    +0.000 N 
ATOM     10  H   UNL     1       4.300   5.652  18.320  0.00  0.00    +0.000 HD
ENDROOT
BRANCH   9  11
ATOM     11  C   UNL     1       6.398   5.299  17.259  0.00  0.00    +0.000 A 
ATOM     12  C   UNL     1       7.246   4.868  18.285  0.00  0.00    +0.000 A 
ATOM     13  C   UNL     1       8.099   5.786  18.908  0.00  0.00    +0.000 A 
ATOM     14  C   UNL     1       8.067   7.125  18.526  0.00  0.00    +0.000 A 
ATOM     15  F   UNL     1       8.864   8.006  19.147  0.00  0.00    +0.000 F 
ATOM     16  C   UNL     1       7.227   7.549  17.507  0.00  0.00    +0.000 A 
ATOM     17  F   UNL     1       7.189   8.836  17.143  0.00  0.00    +0.000 F 
ATOM     18  C   UNL     1       6.418   6.637  16.847  0.00  0.00    +0.000 A 
ENDBRANCH   9  11
BRANCH   9  19
ATOM     19  C   UNL     1       6.147   3.587  15.509  0.00  0.00    +0.000 C 
BRANCH  19  20
ATOM     20  C   UNL     1       6.293   4.331  14.168  0.00  0.00    +0.000 C 
ATOM     21  C   UNL     1       7.671   4.938  13.909  0.00  0.00    +0.000 C 
ATOM     22  C   UNL     1       7.652   5.237  12.415  0.00  0.00    +0.000 C 
ATOM     23  C   UNL     1       6.776   4.153  11.792  0.00  0.00    +0.000 C 
ATOM     24  C   UNL     1       6.120   3.410  12.957  0.00  0.00    +0.000 C 
ENDBRANCH  19  20
ENDBRANCH   9  19
TORSDOF 3
ENDMDL
MODEL 5
REMARK VINA RESULT:      -8.0      1.102      1.761
REMARK  Name = 
REMARK  3 active torsions:
REMARK  status: ('A' for Active; 'I' for Inactive)
REMARK    1  A    between atoms: N_9  and  C_10
REMARK    2  A    between atoms: N_9  and  C_16
REMARK    3  A    between atoms: C_10  and  C_11
REMARK                            x       y       z     vdW  Elec       q    Type
REMARK                         _______ _______ _______ _____ _____    ______ ____
ROOT
ATOM      1  O   UNL     1       2.742   9.058  17.616  0.00  0.00    +0.000 OA
ATOM      2  C   UNL     1       2.528   8.119  18.380  0.00  0.00    +0.000 C 
ATOM      3  N   UNL     1       1.755   8.179  19.521  0.00  0.00    +0.000 N 
ATOM      4  C   UNL     1       1.044   9.279  19.895  0.00  0.00    +0.000 A 
ATOM      5  N   UNL     1       0.957  10.456  19.338  0.00  0.00    +0.000 NA
ATOM      6  C   UNL     1       0.078  11.236  20.063  0.00  0.00    +0.000 A 
ATOM      7  C   UNL     1      -0.513  10.619  21.144  0.00  0.00    +0.000 A 
ATOM      8  S   UNL     1       0.092   9.021  21.294  0.00  0.00    +0.000 S 
ATOM      9  N   UNL     1       3.113   6.849  18.172  0.00  0.00    +0.000 N 
ATOM     10  H   UNL     1       1.712   7.392  20.139  0.00  0.00    +0.000 HD
ENDROOT
BRANCH   9  11
ATOM     11  C   UNL     1       2.558   5.672  18.733  0.00  0.00    +0.000 A 
ATOM     12  C   UNL     1       1.813   4.794  17.938  0.00  0.00    +0.000 A 
ATOM     13  C   UNL     1       1.293   3.624  18.503  0.00  0.00    +0.000 A 
ATOM     14  C   UNL     1       1.490   3.365  19.857  0.00  0.00    +0.000 A 
ATOM     15  F   UNL     1       0.964   2.259  20.400  0.00  0.00    +0.000 F 
ATOM     16  C   UNL     1       2.232   4.236  20.642  0.00  0.00    +0.000 A 
ATOM     17  F   UNL     1       2.416   3.995  21.944  0.00  0.00    +0.000 F 
ATOM     18  C   UNL     1       2.797   5.371  20.079  0.00  0.00    +0.000 A 
ENDBRANCH   9  11
BRANCH   9  19
ATOM     19  C   UNL     1       4.019   6.668  17.020  0.00  0.00    +0.000 C 
BRANCH  19  20
ATOM     20  C   UNL     1       5.115   5.603  17.213  0.00  0.00    +0.000 C 
ATOM     21  C   UNL     1       5.872   5.213  15.945  0.00  0.00    +0.000 C 
ATOM     22  C   UNL     1       7.104   4.490  16.474  0.00  0.00    +0.000 C 
ATOM     23  C   UNL     1       7.430   5.161  17.806  0.00  0.00    +0.000 C 
ATOM     24  C   UNL     1       6.249   6.078  18.125  0.00  0.00    +0.000 C 
ENDBRANCH  19  20
ENDBRANCH   9  19
TORSDOF 3
ENDMDL
MODEL 6
REMARK VINA RESULT:      -7.7      1.354      1.685
REMARK  Name = 
REMARK  3 active torsions:
REMARK  status: ('A' for Active; 'I' for Inactive)
REMARK    1  A    between atoms: N_9  and  C_10
REMARK    2  A    between atoms: N_9  and  C_16
REMARK    3  A    between atoms: C_10  and  C_11
REMARK                            x       y       z     vdW  Elec       q    Type
REMARK                         _______ _______ _______ _____ _____    ______ ____
ROOT
ATOM      1  O   UNL     1       2.676   7.795  17.537  0.00  0.00    +0.000 OA
ATOM      2  C   UNL     1       2.656   7.057  18.520  0.00  0.00    +0.000 C 
ATOM      3  N   UNL     1       2.177   7.401  19.767  0.00  0.00    +0.000 N 
ATOM      4  C   UNL     1       1.567   8.588  20.041  0.00  0.00    +0.000 A 
ATOM      5  N   UNL     1       1.341   9.617  19.270  0.00  0.00    +0.000 NA
ATOM      6  C   UNL     1       0.655  10.578  19.985  0.00  0.00    +0.000 A 
ATOM      7  C   UNL     1       0.341  10.241  21.285  0.00  0.00    +0.000 A 
ATOM      8  S   UNL     1       0.977   8.689  21.644  0.00  0.00    +0.000 S 
ATOM      9  N   UNL     1       3.185   5.746  18.472  0.00  0.00    +0.000 N 
ATOM     10  H   UNL     1       2.287   6.772  20.539  0.00  0.00    +0.000 HD
ENDROOT
BRANCH   9  11
ATOM     11  C   UNL     1       2.787   4.748  19.396  0.00  0.00    +0.000 A 
ATOM     12  C   UNL     1       1.463   4.688  19.846  0.00  0.00    +0.000 A 
ATOM     13  C   UNL     1       1.082   3.681  20.738  0.00  0.00    +0.000 A 
ATOM     14  C   UNL     1       2.032   2.773  21.200  0.00  0.00    +0.000 A 
ATOM     15  F   UNL     1       1.669   1.829  22.079  0.00  0.00    +0.000 F 
ATOM     16  C   UNL     1       3.343   2.833  20.751  0.00  0.00    +0.000 A 
ATOM     17  F   UNL     1       4.259   1.968  21.197  0.00  0.00    +0.000 F 
ATOM     18  C   UNL     1       3.718   3.794  19.824  0.00  0.00    +0.000 A 
ENDBRANCH   9  11
BRANCH   9  19
ATOM     19  C   UNL     1       3.791   5.275  17.212  0.00  0.00    +0.000 C 
BRANCH  19  20
ATOM     20  C   UNL     1       5.302   5.539  17.077  0.00  0.00    +0.000 C 
ATOM     21  C   UNL     1       5.991   6.036  18.347  0.00  0.00    +0.000 C 
ATOM     22  C   UNL     1       7.472   5.830  18.054  0.00  0.00    +0.000 C 
ATOM     23  C   UNL     1       7.542   4.596  17.157  0.00  0.00    +0.000 C 
ATOM     24  C   UNL     1       6.101   4.272  16.760  0.00  0.00    +0.000 C 
ENDBRANCH  19  20
ENDBRANCH   9  19
TORSDOF 3
ENDMDL
MODEL 7
REMARK VINA RESULT:      -7.4      2.818      4.773
REMARK  Name = 
REMARK  3 active torsions:
REMARK  status: ('A' for Active; 'I' for Inactive)
REMARK    1  A    between atoms: N_9  and  C_10
REMARK    2  A    between atoms: N_9  and  C_16
REMARK    3  A    between atoms: C_10  and  C_11
REMARK                            x       y       z     vdW  Elec       q    Type
REMARK                         _______ _______ _______ _____ _____    ______ ____
ROOT
ATOM      1  O   UNL     1       1.490   6.739  21.044  0.00  0.00    +0.000 OA
ATOM      2  C   UNL     1       2.201   6.752  20.041  0.00  0.00    +0.000 C 
ATOM      3  N   UNL     1       2.241   7.762  19.103  0.00  0.00    +0.000 N 
ATOM      4  C   UNL     1       1.557   8.934  19.226  0.00  0.00    +0.000 A 
ATOM      5  N   UNL     1       0.738   9.338  20.158  0.00  0.00    +0.000 NA
ATOM      6  C   UNL     1       0.319  10.622  19.868  0.00  0.00    +0.000 A 
ATOM      7  C   UNL     1       0.860  11.181  18.730  0.00  0.00    +0.000 A 
ATOM      8  S   UNL     1       1.888  10.042  17.963  0.00  0.00    +0.000 S 
ATOM      9  N   UNL     1       3.048   5.665  19.722  0.00  0.00    +0.000 N 
ATOM     10  H   UNL     1       2.778   7.648  18.264  0.00  0.00    +0.000 HD
ENDROOT
BRANCH   9  11
ATOM     11  C   UNL     1       4.172   5.821  18.872  0.00  0.00    +0.000 A 
ATOM     12  C   UNL     1       5.456   5.512  19.335  0.00  0.00    +0.000 A 
ATOM     13  C   UNL     1       6.550   5.648  18.474  0.00  0.00    +0.000 A 
ATOM     14  C   UNL     1       6.356   6.126  17.180  0.00  0.00    +0.000 A 
ATOM     15  F   UNL     1       7.411   6.284  16.370  0.00  0.00    +0.000 F 
ATOM     16  C   UNL     1       5.081   6.428  16.724  0.00  0.00    +0.000 A 
ATOM     17  F   UNL     1       4.891   6.894  15.485  0.00  0.00    +0.000 F 
ATOM     18  C   UNL     1       3.984   6.245  17.551  0.00  0.00    +0.000 A 
ENDBRANCH   9  11
BRANCH   9  19
ATOM     19  C   UNL     1       3.051   4.486  20.611  0.00  0.00    +0.000 C 
BRANCH  19  20
ATOM     20  C   UNL     1       2.377   3.230  20.029  0.00  0.00    +0.000 C 
ATOM     21  C   UNL     1       0.938   3.425  19.554  0.00  0.00    +0.000 C 
ATOM     22  C   UNL     1       0.676   2.195  18.695  0.00  0.00    +0.000 C 
ATOM     23  C   UNL     1       2.021   1.846  18.062  0.00  0.00    +0.000 C 
ATOM     24  C   UNL     1       3.062   2.723  18.757  0.00  0.00    +0.000 C 
ENDBRANCH  19  20
ENDBRANCH   9  19
TORSDOF 3
ENDMDL
MODEL 8
REMARK VINA RESULT:      -7.3      2.917      4.915
REMARK  Name = 
REMARK  3 active torsions:
REMARK  status: ('A' for Active; 'I' for Inactive)
REMARK    1  A    between atoms: N_9  and  C_10
REMARK    2  A    between atoms: N_9  and  C_16
REMARK    3  A    between atoms: C_10  and  C_11
REMARK                            x       y       z     vdW  Elec       q    Type
REMARK                         _______ _______ _______ _____ _____    ______ ____
ROOT
ATOM      1  O   UNL     1       1.539   6.707  21.051  0.00  0.00    +0.000 OA
ATOM      2  C   UNL     1       2.234   6.724  20.038  0.00  0.00    +0.000 C 
ATOM      3  N   UNL     1       2.255   7.735  19.100  0.00  0.00    +0.000 N 
ATOM      4  C   UNL     1       1.570   8.905  19.235  0.00  0.00    +0.000 A 
ATOM      5  N   UNL     1       0.763   9.305  20.180  0.00  0.00    +0.000 NA
ATOM      6  C   UNL     1       0.336  10.587  19.899  0.00  0.00    +0.000 A 
ATOM      7  C   UNL     1       0.857  11.150  18.753  0.00  0.00    +0.000 A 
ATOM      8  S   UNL     1       1.876  10.015  17.969  0.00  0.00    +0.000 S 
ATOM      9  N   UNL     1       3.080   5.641  19.704  0.00  0.00    +0.000 N 
ATOM     10  H   UNL     1       2.779   7.624  18.253  0.00  0.00    +0.000 HD
ENDROOT
BRANCH   9  11
ATOM     11  C   UNL     1       4.189   5.801  18.837  0.00  0.00    +0.000 A 
ATOM     12  C   UNL     1       4.001   6.243  17.522  0.00  0.00    +0.000 A 
ATOM     13  C   UNL     1       5.110   6.420  16.688  0.00  0.00    +0.000 A 
ATOM     14  C   UNL     1       6.385   6.119  17.162  0.00  0.00    +0.000 A 
ATOM     15  F   UNL     1       7.440   6.260  16.349  0.00  0.00    +0.000 F 
ATOM     16  C   UNL     1       6.568   5.683  18.466  0.00  0.00    +0.000 A 
ATOM     17  F   UNL     1       7.790   5.385  18.922  0.00  0.00    +0.000 F 
ATOM     18  C   UNL     1       5.481   5.557  19.317  0.00  0.00    +0.000 A 
ENDBRANCH   9  11
BRANCH   9  19
ATOM     19  C   UNL     1       3.101   4.461  20.591  0.00  0.00    +0.000 C 
BRANCH  19  20
ATOM     20  C   UNL     1       2.410   3.207  20.025  0.00  0.00    +0.000 C 
ATOM     21  C   UNL     1       0.965   3.411  19.570  0.00  0.00    +0.000 C 
ATOM     22  C   UNL     1       0.682   2.179  18.720  0.00  0.00    +0.000 C 
ATOM     23  C   UNL     1       2.015   1.817  18.070  0.00  0.00    +0.000 C 
ATOM     24  C   UNL     1       3.073   2.690  18.745  0.00  0.00    +0.000 C 
ENDBRANCH  19  20
ENDBRANCH   9  19
TORSDOF 3
ENDMDL
MODEL 9
REMARK VINA RESULT:      -6.9      2.800      5.624
REMARK  Name = 
REMARK  3 active torsions:
REMARK  status: ('A' for Active; 'I' for Inactive)
REMARK    1  A    between atoms: N_9  and  C_10
REMARK    2  A    between atoms: N_9  and  C_16
REMARK    3  A    between atoms: C_10  and  C_11
REMARK                            x       y       z     vdW  Elec       q    Type
REMARK                         _______ _______ _______ _____ _____    ______ ____
ROOT
ATOM      1  O   UNL     1       5.158   7.310  17.338  0.00  0.00    +0.000 OA
ATOM      2  C   UNL     1       4.437   6.314  17.363  0.00  0.00    +0.000 C 
ATOM      3  N   UNL     1       4.528   5.241  16.501  0.00  0.00    +0.000 N 
ATOM      4  C   UNL     1       5.508   5.106  15.564  0.00  0.00    +0.000 A 
ATOM      5  N   UNL     1       6.490   5.906  15.250  0.00  0.00    +0.000 NA
ATOM      6  C   UNL     1       7.252   5.321  14.258  0.00  0.00    +0.000 A 
ATOM      7  C   UNL     1       6.848   4.065  13.860  0.00  0.00    +0.000 A 
ATOM      8  S   UNL     1       5.430   3.621  14.717  0.00  0.00    +0.000 S 
ATOM      9  N   UNL     1       3.375   6.192  18.289  0.00  0.00    +0.000 N 
ATOM     10  H   UNL     1       3.839   4.515  16.528  0.00  0.00    +0.000 HD
ENDROOT
BRANCH   9  11
ATOM     11  C   UNL     1       2.837   4.931  18.644  0.00  0.00    +0.000 A 
ATOM     12  C   UNL     1       1.762   4.393  17.927  0.00  0.00    +0.000 A 
ATOM     13  C   UNL     1       1.260   3.135  18.276  0.00  0.00    +0.000 A 
ATOM     14  C   UNL     1       1.810   2.448  19.356  0.00  0.00    +0.000 A 
ATOM     15  F   UNL     1       1.304   1.257  19.705  0.00  0.00    +0.000 F 
ATOM     16  C   UNL     1       2.876   2.983  20.063  0.00  0.00    +0.000 A 
ATOM     17  F   UNL     1       3.401   2.329  21.105  0.00  0.00    +0.000 F 
ATOM     18  C   UNL     1       3.416   4.204  19.691  0.00  0.00    +0.000 A 
ENDBRANCH   9  11
BRANCH   9  19
ATOM     19  C   UNL     1       3.125   7.305  19.227  0.00  0.00    +0.000 C 
BRANCH  19  20
ATOM     20  C   UNL     1       1.803   8.062  19.002  0.00  0.00    +0.000 C 
ATOM     21  C   UNL     1       1.288   8.843  20.211  0.00  0.00    +0.000 C 
ATOM     22  C   UNL     1       0.244   9.777  19.613  0.00  0.00    +0.000 C 
ATOM     23  C   UNL     1       0.744  10.101  18.207  0.00  0.00    +0.000 C 
ATOM     24  C   UNL     1       1.922   9.162  17.944  0.00  0.00    +0.000 C 
ENDBRANCH  19  20
ENDBRANCH   9  19
TORSDOF 3
ENDMDL
