MODEL 1
REMARK VINA RESULT:      -8.2      0.000      0.000
REMARK  Name = 
REMARK  10 active torsions:
REMARK  status: ('A' for Active; 'I' for Inactive)
REMARK    1  A    between atoms: C_1  and  C_2
REMARK    2  A    between atoms: N_4  and  C_5
REMARK    3  A    between atoms: C_6  and  C_7
REMARK    4  A    between atoms: C_8  and  N_9
REMARK    5  A    between atoms: N_9  and  S_10
REMARK    6  A    between atoms: S_10  and  C_13
REMARK    7  A    between atoms: C_16  and  C_17
REMARK    8  A    between atoms: C_17  and  N_18
REMARK    9  A    between atoms: N_18  and  C_19
REMARK   10  A    between atoms: C_22  and  N_23
REMARK                            x       y       z     vdW  Elec       q    Type
REMARK                         _______ _______ _______ _____ _____    ______ ____
ROOT
ATOM      1  C   UNL     1       9.405  12.527  18.636  0.00  0.00    +0.000 A 
ATOM      2  C   UNL     1       8.557  12.041  17.637  0.00  0.00    +0.000 A 
ATOM      3  C   UNL     1       8.253  10.679  17.588  0.00  0.00    +0.000 A 
ATOM      4  C   UNL     1       8.800   9.793  18.530  0.00  0.00    +0.000 A 
ATOM      5  C   UNL     1       9.664  10.295  19.518  0.00  0.00    +0.000 A 
ATOM      6  C   UNL     1       9.968  11.660  19.575  0.00  0.00    +0.000 A 
ENDROOT
BRANCH   1   7
ATOM      7  S   UNL     1       9.819  14.251  18.640  0.00  0.00    +0.000 S 
ATOM      8  O   UNL     1      11.139  14.413  18.059  0.00  0.00    +0.000 OA
ATOM      9  O   UNL     1       9.534  14.774  19.959  0.00  0.00    +0.000 OA
BRANCH   7  10
ATOM     10  N   UNL     1       8.667  14.937  17.611  0.00  0.00    +0.000 N 
ATOM     11  H   UNL     1       8.462  14.304  16.839  0.00  0.00    +0.000 HD
BRANCH  10  19
ATOM     12  C   UNL     1       9.014  17.945  18.400  0.00  0.00    +0.000 C 
ATOM     13  C   UNL     1       7.793  17.107  18.463  0.00  0.00    +0.000 A 
ATOM     14  N   UNL     1       6.639  17.637  18.878  0.00  0.00    +0.000 NA
ATOM     15  N   UNL     1       5.752  16.634  18.752  0.00  0.00    +0.000 N 
ATOM     16  C   UNL     1       4.379  16.883  19.126  0.00  0.00    +0.000 C 
ATOM     17  C   UNL     1       6.295  15.475  18.251  0.00  0.00    +0.000 A 
ATOM     18  C   UNL     1       5.504  14.245  17.992  0.00  0.00    +0.000 C 
ATOM     19  C   UNL     1       7.641  15.746  18.097  0.00  0.00    +0.000 A 
ENDBRANCH  10  19
ENDBRANCH   7  10
ENDBRANCH   1   7
BRANCH   4  20
ATOM     20  C   UNL     1       8.497   8.312  18.446  0.00  0.00    +0.000 C 
BRANCH  20  21
ATOM     21  N   UNL     1       7.459   8.084  17.448  0.00  0.00    +0.000 N 
ATOM     22  H   UNL     1       6.939   8.934  17.240  0.00  0.00    +0.000 HD
BRANCH  21  23
ATOM     23  C   UNL     1       6.602   6.988  17.610  0.00  0.00    +0.000 A 
ATOM     24  C   UNL     1       5.514   6.844  16.744  0.00  0.00    +0.000 A 
ATOM     25  C   UNL     1       4.639   5.748  16.835  0.00  0.00    +0.000 A 
ATOM     26  C   UNL     1       4.828   4.734  17.778  0.00  0.00    +0.000 A 
ATOM     27  C   UNL     1       5.960   4.853  18.595  0.00  0.00    +0.000 A 
ATOM     28  C   UNL     1       6.840   5.945  18.503  0.00  0.00    +0.000 A 
BRANCH  26  29
ATOM     29  N   UNL     1       3.989   3.642  17.890  0.00  0.00    +0.000 N 
ATOM     30  C   UNL     1       2.684   3.560  17.218  0.00  0.00    +0.000 C 
ATOM     31  C   UNL     1       1.541   3.610  18.239  0.00  0.00    +0.000 C 
ATOM     32  O   UNL     1       1.689   2.589  19.240  0.00  0.00    +0.000 OA
ATOM     33  C   UNL     1       2.926   2.770  19.949  0.00  0.00    +0.000 C 
ATOM     34  C   UNL     1       4.146   2.697  19.012  0.00  0.00    +0.000 C 
ENDBRANCH  26  29
ENDBRANCH  21  23
ENDBRANCH  20  21
ENDBRANCH   4  20
TORSDOF 7
ENDMDL
MODEL 2
REMARK VINA RESULT:      -8.1      6.687     10.904
REMARK  Name = 
REMARK  10 active torsions:
REMARK  status: ('A' for Active; 'I' for Inactive)
REMARK    1  A    between atoms: C_1  and  C_2
REMARK    2  A    between atoms: N_4  and  C_5
REMARK    3  A    between atoms: C_6  and  C_7
REMARK    4  A    between atoms: C_8  and  N_9
REMARK    5  A    between atoms: N_9  and  S_10
REMARK    6  A    between atoms: S_10  and  C_13
REMARK    7  A    between atoms: C_16  and  C_17
REMARK    8  A    between atoms: C_17  and  N_18
REMARK    9  A    between atoms: N_18  and  C_19
REMARK   10  A    between atoms: C_22  and  N_23
REMARK                            x       y       z     vdW  Elec       q    Type
REMARK                         _______ _______ _______ _____ _____    ______ ____
ROOT
ATOM      1  C   UNL     1       2.834   4.557  18.526  0.00  0.00    +0.000 A 
ATOM      2  C   UNL     1       2.700   5.814  17.930  0.00  0.00    +0.000 A 
ATOM      3  C   UNL     1       2.343   6.916  18.708  0.00  0.00    +0.000 A 
ATOM      4  C   UNL     1       2.107   6.770  20.085  0.00  0.00    +0.000 A 
ATOM      5  C   UNL     1       2.229   5.497  20.666  0.00  0.00    +0.000 A 
ATOM      6  C   UNL     1       2.593   4.389  19.892  0.00  0.00    +0.000 A 
ENDROOT
BRANCH   1   7
ATOM      7  S   UNL     1       3.233   3.164  17.504  0.00  0.00    +0.000 S 
ATOM      8  O   UNL     1       2.702   3.398  16.174  0.00  0.00    +0.000 OA
ATOM      9  O   UNL     1       2.880   1.963  18.230  0.00  0.00    +0.000 OA
BRANCH   7  10
ATOM     10  N   UNL     1       4.922   3.190  17.443  0.00  0.00    +0.000 N 
ATOM     11  H   UNL     1       5.277   2.303  17.089  0.00  0.00    +0.000 HD
BRANCH  10  19
ATOM     12  C   UNL     1       5.390   4.263  14.541  0.00  0.00    +0.000 C 
ATOM     13  C   UNL     1       5.848   4.842  15.827  0.00  0.00    +0.000 A 
ATOM     14  N   UNL     1       6.537   5.987  15.836  0.00  0.00    +0.000 NA
ATOM     15  N   UNL     1       6.729   6.244  17.142  0.00  0.00    +0.000 N 
ATOM     16  C   UNL     1       7.459   7.437  17.505  0.00  0.00    +0.000 C 
ATOM     17  C   UNL     1       6.170   5.308  17.979  0.00  0.00    +0.000 A 
ATOM     18  C   UNL     1       6.223   5.397  19.460  0.00  0.00    +0.000 C 
ATOM     19  C   UNL     1       5.626   4.355  17.140  0.00  0.00    +0.000 A 
ENDBRANCH  10  19
ENDBRANCH   7  10
ENDBRANCH   1   7
BRANCH   4  20
ATOM     20  C   UNL     1       1.681   7.962  20.915  0.00  0.00    +0.000 C 
BRANCH  20  21
ATOM     21  N   UNL     1       1.140   8.995  20.038  0.00  0.00    +0.000 N 
ATOM     22  H   UNL     1       1.863   9.423  19.464  0.00  0.00    +0.000 HD
BRANCH  21  23
ATOM     23  C   UNL     1       0.287   9.960  20.588  0.00  0.00    +0.000 A 
ATOM     24  C   UNL     1      -0.484  10.751  19.730  0.00  0.00    +0.000 A 
ATOM     25  C   UNL     1      -1.384  11.712  20.222  0.00  0.00    +0.000 A 
ATOM     26  C   UNL     1      -1.572  11.907  21.593  0.00  0.00    +0.000 A 
ATOM     27  C   UNL     1      -0.846  11.062  22.443  0.00  0.00    +0.000 A 
ATOM     28  C   UNL     1       0.050  10.096  21.954  0.00  0.00    +0.000 A 
BRANCH  26  29
ATOM     29  N   UNL     1      -2.452  12.840  22.108  0.00  0.00    +0.000 N 
ATOM     30  C   UNL     1      -2.605  13.089  23.549  0.00  0.00    +0.000 C 
ATOM     31  C   UNL     1      -3.979  12.616  24.041  0.00  0.00    +0.000 C 
ATOM     32  O   UNL     1      -5.042  13.215  23.280  0.00  0.00    +0.000 OA
ATOM     33  C   UNL     1      -4.918  12.856  21.894  0.00  0.00    +0.000 C 
ATOM     34  C   UNL     1      -3.581  13.326  21.292  0.00  0.00    +0.000 C 
ENDBRANCH  26  29
ENDBRANCH  21  23
ENDBRANCH  20  21
ENDBRANCH   4  20
TORSDOF 7
ENDMDL
MODEL 3
REMARK VINA RESULT:      -8.1      3.387     10.579
REMARK  Name = 
REMARK  10 active torsions:
REMARK  status: ('A' for Active; 'I' for Inactive)
REMARK    1  A    between atoms: C_1  and  C_2
REMARK    2  A    between atoms: N_4  and  C_5
REMARK    3  A    between atoms: C_6  and  C_7
REMARK    4  A    between atoms: C_8  and  N_9
REMARK    5  A    between atoms: N_9  and  S_10
REMARK    6  A    between atoms: S_10  and  C_13
REMARK    7  A    between atoms: C_16  and  C_17
REMARK    8  A    between atoms: C_17  and  N_18
REMARK    9  A    between atoms: N_18  and  C_19
REMARK   10  A    between atoms: C_22  and  N_23
REMARK                            x       y       z     vdW  Elec       q    Type
REMARK                         _______ _______ _______ _____ _____    ______ ____
ROOT
ATOM      1  C   UNL     1       5.565   5.088  18.016  0.00  0.00    +0.000 A 
ATOM      2  C   UNL     1       5.404   5.954  16.930  0.00  0.00    +0.000 A 
ATOM      3  C   UNL     1       6.260   7.045  16.781  0.00  0.00    +0.000 A 
ATOM      4  C   UNL     1       7.280   7.285  17.717  0.00  0.00    +0.000 A 
ATOM      5  C   UNL     1       7.419   6.414  18.811  0.00  0.00    +0.000 A 
ATOM      6  C   UNL     1       6.565   5.316  18.964  0.00  0.00    +0.000 A 
ENDROOT
BRANCH   1   7
ATOM      7  S   UNL     1       4.427   3.743  18.212  0.00  0.00    +0.000 S 
ATOM      8  O   UNL     1       4.560   3.215  19.557  0.00  0.00    +0.000 OA
ATOM      9  O   UNL     1       4.570   2.868  17.067  0.00  0.00    +0.000 OA
BRANCH   7  10
ATOM     10  N   UNL     1       2.914   4.478  18.047  0.00  0.00    +0.000 N 
ATOM     11  H   UNL     1       2.273   3.860  17.550  0.00  0.00    +0.000 HD
BRANCH  10  19
ATOM     12  C   UNL     1       1.643   3.475  20.725  0.00  0.00    +0.000 C 
ATOM     13  C   UNL     1       1.812   4.868  20.245  0.00  0.00    +0.000 A 
ATOM     14  N   UNL     1       1.419   5.891  21.010  0.00  0.00    +0.000 NA
ATOM     15  N   UNL     1       1.772   6.982  20.307  0.00  0.00    +0.000 N 
ATOM     16  C   UNL     1       1.480   8.282  20.867  0.00  0.00    +0.000 C 
ATOM     17  C   UNL     1       2.399   6.695  19.118  0.00  0.00    +0.000 A 
ATOM     18  C   UNL     1       2.910   7.735  18.190  0.00  0.00    +0.000 C 
ATOM     19  C   UNL     1       2.396   5.316  19.034  0.00  0.00    +0.000 A 
ENDBRANCH  10  19
ENDBRANCH   7  10
ENDBRANCH   1   7
BRANCH   4  20
ATOM     20  C   UNL     1       8.180   8.493  17.570  0.00  0.00    +0.000 C 
BRANCH  20  21
ATOM     21  N   UNL     1       8.762   8.825  18.865  0.00  0.00    +0.000 N 
ATOM     22  H   UNL     1       8.185   8.500  19.636  0.00  0.00    +0.000 HD
BRANCH  21  23
ATOM     23  C   UNL     1       9.213  10.133  19.081  0.00  0.00    +0.000 A 
ATOM     24  C   UNL     1       9.340  10.598  20.394  0.00  0.00    +0.000 A 
ATOM     25  C   UNL     1       9.820  11.889  20.676  0.00  0.00    +0.000 A 
ATOM     26  C   UNL     1      10.218  12.762  19.660  0.00  0.00    +0.000 A 
ATOM     27  C   UNL     1      10.151  12.262  18.353  0.00  0.00    +0.000 A 
ATOM     28  C   UNL     1       9.678  10.969  18.068  0.00  0.00    +0.000 A 
BRANCH  26  29
ATOM     29  N   UNL     1      10.697  14.035  19.905  0.00  0.00    +0.000 N 
ATOM     30  C   UNL     1      10.460  14.753  21.165  0.00  0.00    +0.000 C 
ATOM     31  C   UNL     1       9.525  15.949  20.943  0.00  0.00    +0.000 C 
ATOM     32  O   UNL     1      10.029  16.823  19.919  0.00  0.00    +0.000 OA
ATOM     33  C   UNL     1      10.141  16.110  18.676  0.00  0.00    +0.000 C 
ATOM     34  C   UNL     1      11.096  14.906  18.783  0.00  0.00    +0.000 C 
ENDBRANCH  26  29
ENDBRANCH  21  23
ENDBRANCH  20  21
ENDBRANCH   4  20
TORSDOF 7
ENDMDL
MODEL 4
REMARK VINA RESULT:      -7.9      6.671     10.933
REMARK  Name = 
REMARK  10 active torsions:
REMARK  status: ('A' for Active; 'I' for Inactive)
REMARK    1  A    between atoms: C_1  and  C_2
REMARK    2  A    between atoms: N_4  and  C_5
REMARK    3  A    between atoms: C_6  and  C_7
REMARK    4  A    between atoms: C_8  and  N_9
REMARK    5  A    between atoms: N_9  and  S_10
REMARK    6  A    between atoms: S_10  and  C_13
REMARK    7  A    between atoms: C_16  and  C_17
REMARK    8  A    between atoms: C_17  and  N_18
REMARK    9  A    between atoms: N_18  and  C_19
REMARK   10  A    between atoms: C_22  and  N_23
REMARK                            x       y       z     vdW  Elec       q    Type
REMARK                         _______ _______ _______ _____ _____    ______ ____
ROOT
ATOM      1  C   UNL     1       2.929   4.776  18.455  0.00  0.00    +0.000 A 
ATOM      2  C   UNL     1       2.853   5.812  17.520  0.00  0.00    +0.000 A 
ATOM      3  C   UNL     1       2.485   7.093  17.934  0.00  0.00    +0.000 A 
ATOM      4  C   UNL     1       2.183   7.348  19.282  0.00  0.00    +0.000 A 
ATOM      5  C   UNL     1       2.249   6.292  20.206  0.00  0.00    +0.000 A 
ATOM      6  C   UNL     1       2.622   5.006  19.798  0.00  0.00    +0.000 A 
ENDROOT
BRANCH   1   7
ATOM      7  S   UNL     1       3.343   3.146  17.893  0.00  0.00    +0.000 S 
ATOM      8  O   UNL     1       2.721   2.929  16.600  0.00  0.00    +0.000 OA
ATOM      9  O   UNL     1       3.101   2.225  18.982  0.00  0.00    +0.000 OA
BRANCH   7  10
ATOM     10  N   UNL     1       5.021   3.208  17.702  0.00  0.00    +0.000 N 
ATOM     11  H   UNL     1       5.372   2.314  17.359  0.00  0.00    +0.000 HD
BRANCH  10  19
ATOM     12  C   UNL     1       5.250   4.155  14.728  0.00  0.00    +0.000 C 
ATOM     13  C   UNL     1       5.782   4.805  15.949  0.00  0.00    +0.000 A 
ATOM     14  N   UNL     1       6.438   5.965  15.857  0.00  0.00    +0.000 NA
ATOM     15  N   UNL     1       6.717   6.288  17.133  0.00  0.00    +0.000 N 
ATOM     16  C   UNL     1       7.437   7.515  17.388  0.00  0.00    +0.000 C 
ATOM     17  C   UNL     1       6.245   5.379  18.049  0.00  0.00    +0.000 A 
ATOM     18  C   UNL     1       6.402   5.538  19.517  0.00  0.00    +0.000 C 
ATOM     19  C   UNL     1       5.669   4.374  17.295  0.00  0.00    +0.000 A 
ENDBRANCH  10  19
ENDBRANCH   7  10
ENDBRANCH   1   7
BRANCH   4  20
ATOM     20  C   UNL     1       1.746   8.731  19.715  0.00  0.00    +0.000 C 
BRANCH  20  21
ATOM     21  N   UNL     1       1.436   8.717  21.140  0.00  0.00    +0.000 N 
ATOM     22  H   UNL     1       1.168   7.790  21.462  0.00  0.00    +0.000 HD
BRANCH  21  23
ATOM     23  C   UNL     1       0.578   9.701  21.649  0.00  0.00    +0.000 A 
ATOM     24  C   UNL     1      -0.259   9.382  22.722  0.00  0.00    +0.000 A 
ATOM     25  C   UNL     1      -1.116  10.336  23.298  0.00  0.00    +0.000 A 
ATOM     26  C   UNL     1      -1.155  11.657  22.844  0.00  0.00    +0.000 A 
ATOM     27  C   UNL     1      -0.263  11.983  21.813  0.00  0.00    +0.000 A 
ATOM     28  C   UNL     1       0.600  11.033  21.240  0.00  0.00    +0.000 A 
BRANCH  26  29
ATOM     29  N   UNL     1      -1.982  12.618  23.391  0.00  0.00    +0.000 N 
ATOM     30  C   UNL     1      -3.429  12.424  23.570  0.00  0.00    +0.000 C 
ATOM     31  C   UNL     1      -4.222  13.339  22.627  0.00  0.00    +0.000 C 
ATOM     32  O   UNL     1      -3.844  14.716  22.794  0.00  0.00    +0.000 OA
ATOM     33  C   UNL     1      -2.447  14.881  22.503  0.00  0.00    +0.000 C 
ATOM     34  C   UNL     1      -1.557  14.030  23.428  0.00  0.00    +0.000 C 
ENDBRANCH  26  29
ENDBRANCH  21  23
ENDBRANCH  20  21
ENDBRANCH   4  20
TORSDOF 7
ENDMDL
MODEL 5
REMARK VINA RESULT:      -7.7      8.094     10.109
REMARK  Name = 
REMARK  10 active torsions:
REMARK  status: ('A' for Active; 'I' for Inactive)
REMARK    1  A    between atoms: C_1  and  C_2
REMARK    2  A    between atoms: N_4  and  C_5
REMARK    3  A    between atoms: C_6  and  C_7
REMARK    4  A    between atoms: C_8  and  N_9
REMARK    5  A    between atoms: N_9  and  S_10
REMARK    6  A    between atoms: S_10  and  C_13
REMARK    7  A    between atoms: C_16  and  C_17
REMARK    8  A    between atoms: C_17  and  N_18
REMARK    9  A    between atoms: N_18  and  C_19
REMARK   10  A    between atoms: C_22  and  N_23
REMARK                            x       y       z     vdW  Elec       q    Type
REMARK                         _______ _______ _______ _____ _____    ______ ____
ROOT
ATOM      1  C   UNL     1      -2.986  11.220  18.256  0.00  0.00    +0.000 A 
ATOM      2  C   UNL     1      -2.530   9.911  18.074  0.00  0.00    +0.000 A 
ATOM      3  C   UNL     1      -1.167   9.630  18.188  0.00  0.00    +0.000 A 
ATOM      4  C   UNL     1      -0.250  10.653  18.475  0.00  0.00    +0.000 A 
ATOM      5  C   UNL     1      -0.723  11.967  18.639  0.00  0.00    +0.000 A 
ATOM      6  C   UNL     1      -2.088  12.254  18.531  0.00  0.00    +0.000 A 
ENDROOT
BRANCH   1   7
ATOM      7  S   UNL     1      -4.714  11.558  18.049  0.00  0.00    +0.000 S 
ATOM      8  O   UNL     1      -5.472  10.428  18.552  0.00  0.00    +0.000 OA
ATOM      9  O   UNL     1      -4.917  12.028  16.695  0.00  0.00    +0.000 OA
BRANCH   7  10
ATOM     10  N   UNL     1      -4.977  12.896  19.048  0.00  0.00    +0.000 N 
ATOM     11  H   UNL     1      -5.512  13.608  18.551  0.00  0.00    +0.000 HD
BRANCH  10  19
ATOM     12  C   UNL     1      -7.646  11.920  20.359  0.00  0.00    +0.000 C 
ATOM     13  C   UNL     1      -6.382  12.323  21.022  0.00  0.00    +0.000 A 
ATOM     14  N   UNL     1      -6.278  12.266  22.353  0.00  0.00    +0.000 NA
ATOM     15  N   UNL     1      -5.007  12.633  22.599  0.00  0.00    +0.000 N 
ATOM     16  C   UNL     1      -4.561  12.677  23.973  0.00  0.00    +0.000 C 
ATOM     17  C   UNL     1      -4.281  12.908  21.465  0.00  0.00    +0.000 A 
ATOM     18  C   UNL     1      -2.849  13.300  21.484  0.00  0.00    +0.000 C 
ATOM     19  C   UNL     1      -5.173  12.757  20.421  0.00  0.00    +0.000 A 
ENDBRANCH  10  19
ENDBRANCH   7  10
ENDBRANCH   1   7
BRANCH   4  20
ATOM     20  C   UNL     1       1.230  10.348  18.558  0.00  0.00    +0.000 C 
BRANCH  20  21
ATOM     21  N   UNL     1       1.463   9.355  19.600  0.00  0.00    +0.000 N 
ATOM     22  H   UNL     1       1.919   9.759  20.415  0.00  0.00    +0.000 HD
BRANCH  21  23
ATOM     23  C   UNL     1       2.048   8.133  19.243  0.00  0.00    +0.000 A 
ATOM     24  C   UNL     1       1.835   7.016  20.057  0.00  0.00    +0.000 A 
ATOM     25  C   UNL     1       2.366   5.756  19.733  0.00  0.00    +0.000 A 
ATOM     26  C   UNL     1       3.110   5.550  18.568  0.00  0.00    +0.000 A 
ATOM     27  C   UNL     1       3.258   6.659  17.725  0.00  0.00    +0.000 A 
ATOM     28  C   UNL     1       2.724   7.920  18.043  0.00  0.00    +0.000 A 
BRANCH  26  29
ATOM     29  N   UNL     1       3.641   4.323  18.219  0.00  0.00    +0.000 N 
ATOM     30  C   UNL     1       2.894   3.312  17.457  0.00  0.00    +0.000 C 
ATOM     31  C   UNL     1       2.575   2.094  18.334  0.00  0.00    +0.000 C 
ATOM     32  O   UNL     1       3.768   1.545  18.920  0.00  0.00    +0.000 OA
ATOM     33  C   UNL     1       4.409   2.532  19.745  0.00  0.00    +0.000 C 
ATOM     34  C   UNL     1       4.808   3.786  18.945  0.00  0.00    +0.000 C 
ENDBRANCH  26  29
ENDBRANCH  21  23
ENDBRANCH  20  21
ENDBRANCH   4  20
TORSDOF 7
ENDMDL
MODEL 6
REMARK VINA RESULT:      -7.7      0.722      1.000
REMARK  Name = 
REMARK  10 active torsions:
REMARK  status: ('A' for Active; 'I' for Inactive)
REMARK    1  A    between atoms: C_1  and  C_2
REMARK    2  A    between atoms: N_4  and  C_5
REMARK    3  A    between atoms: C_6  and  C_7
REMARK    4  A    between atoms: C_8  and  N_9
REMARK    5  A    between atoms: N_9  and  S_10
REMARK    6  A    between atoms: S_10  and  C_13
REMARK    7  A    between atoms: C_16  and  C_17
REMARK    8  A    between atoms: C_17  and  N_18
REMARK    9  A    between atoms: N_18  and  C_19
REMARK   10  A    between atoms: C_22  and  N_23
REMARK                            x       y       z     vdW  Elec       q    Type
REMARK                         _______ _______ _______ _____ _____    ______ ____
ROOT
ATOM      1  C   UNL     1       9.635  12.718  18.277  0.00  0.00    +0.000 A 
ATOM      2  C   UNL     1       8.525  12.238  17.576  0.00  0.00    +0.000 A 
ATOM      3  C   UNL     1       8.186  10.886  17.657  0.00  0.00    +0.000 A 
ATOM      4  C   UNL     1       8.956  10.003  18.431  0.00  0.00    +0.000 A 
ATOM      5  C   UNL     1      10.078  10.499  19.117  0.00  0.00    +0.000 A 
ATOM      6  C   UNL     1      10.420  11.854  19.044  0.00  0.00    +0.000 A 
ENDROOT
BRANCH   1   7
ATOM      7  S   UNL     1      10.076  14.428  18.111  0.00  0.00    +0.000 S 
ATOM      8  O   UNL     1      11.225  14.527  17.231  0.00  0.00    +0.000 OA
ATOM      9  O   UNL     1      10.120  15.006  19.437  0.00  0.00    +0.000 OA
BRANCH   7  10
ATOM     10  N   UNL     1       8.729  15.111  17.352  0.00  0.00    +0.000 N 
ATOM     11  H   UNL     1       8.336  14.458  16.675  0.00  0.00    +0.000 HD
BRANCH  10  19
ATOM     12  C   UNL     1       9.381  18.089  18.059  0.00  0.00    +0.000 C 
ATOM     13  C   UNL     1       8.154  17.313  18.361  0.00  0.00    +0.000 A 
ATOM     14  N   UNL     1       7.133  17.898  18.995  0.00  0.00    +0.000 NA
ATOM     15  N   UNL     1       6.187  16.943  19.044  0.00  0.00    +0.000 N 
ATOM     16  C   UNL     1       4.929  17.258  19.681  0.00  0.00    +0.000 C 
ATOM     17  C   UNL     1       6.560  15.763  18.446  0.00  0.00    +0.000 A 
ATOM     18  C   UNL     1       5.671  14.578  18.347  0.00  0.00    +0.000 C 
ATOM     19  C   UNL     1       7.862  15.966  18.030  0.00  0.00    +0.000 A 
ENDBRANCH  10  19
ENDBRANCH   7  10
ENDBRANCH   1   7
BRANCH   4  20
ATOM     20  C   UNL     1       8.605   8.531  18.482  0.00  0.00    +0.000 C 
BRANCH  20  21
ATOM     21  N   UNL     1       7.689   8.213  17.393  0.00  0.00    +0.000 N 
ATOM     22  H   UNL     1       7.342   9.050  16.931  0.00  0.00    +0.000 HD
BRANCH  21  23
ATOM     23  C   UNL     1       6.656   7.298  17.633  0.00  0.00    +0.000 A 
ATOM     24  C   UNL     1       5.453   7.435  16.933  0.00  0.00    +0.000 A 
ATOM     25  C   UNL     1       4.393   6.528  17.105  0.00  0.00    +0.000 A 
ATOM     26  C   UNL     1       4.498   5.429  17.962  0.00  0.00    +0.000 A 
ATOM     27  C   UNL     1       5.732   5.263  18.605  0.00  0.00    +0.000 A 
ATOM     28  C   UNL     1       6.796   6.165  18.431  0.00  0.00    +0.000 A 
BRANCH  26  29
ATOM     29  N   UNL     1       3.476   4.518  18.149  0.00  0.00    +0.000 N 
ATOM     30  C   UNL     1       2.793   4.332  19.437  0.00  0.00    +0.000 C 
ATOM     31  C   UNL     1       3.128   2.960  20.038  0.00  0.00    +0.000 C 
ATOM     32  O   UNL     1       2.827   1.898  19.117  0.00  0.00    +0.000 OA
ATOM     33  C   UNL     1       3.598   2.057  17.915  0.00  0.00    +0.000 C 
ATOM     34  C   UNL     1       3.303   3.394  17.210  0.00  0.00    +0.000 C 
ENDBRANCH  26  29
ENDBRANCH  21  23
ENDBRANCH  20  21
ENDBRANCH   4  20
TORSDOF 7
ENDMDL
MODEL 7
REMARK VINA RESULT:      -7.7      8.197     10.217
REMARK  Name = 
REMARK  10 active torsions:
REMARK  status: ('A' for Active; 'I' for Inactive)
REMARK    1  A    between atoms: C_1  and  C_2
REMARK    2  A    between atoms: N_4  and  C_5
REMARK    3  A    between atoms: C_6  and  C_7
REMARK    4  A    between atoms: C_8  and  N_9
REMARK    5  A    between atoms: N_9  and  S_10
REMARK    6  A    between atoms: S_10  and  C_13
REMARK    7  A    between atoms: C_16  and  C_17
REMARK    8  A    between atoms: C_17  and  N_18
REMARK    9  A    between atoms: N_18  and  C_19
REMARK   10  A    between atoms: C_22  and  N_23
REMARK                            x       y       z     vdW  Elec       q    Type
REMARK                         _______ _______ _______ _____ _____    ______ ____
ROOT
ATOM      1  C   UNL     1      -3.142  11.279  18.268  0.00  0.00    +0.000 A 
ATOM      2  C   UNL     1      -2.816   9.979  17.871  0.00  0.00    +0.000 A 
ATOM      3  C   UNL     1      -1.477   9.589  17.807  0.00  0.00    +0.000 A 
ATOM      4  C   UNL     1      -0.455  10.495  18.131  0.00  0.00    +0.000 A 
ATOM      5  C   UNL     1      -0.799  11.803  18.512  0.00  0.00    +0.000 A 
ATOM      6  C   UNL     1      -2.139  12.199  18.583  0.00  0.00    +0.000 A 
ENDROOT
BRANCH   1   7
ATOM      7  S   UNL     1      -4.848  11.764  18.284  0.00  0.00    +0.000 S 
ATOM      8  O   UNL     1      -5.632  10.684  18.852  0.00  0.00    +0.000 OA
ATOM      9  O   UNL     1      -5.172  12.292  16.977  0.00  0.00    +0.000 OA
BRANCH   7  10
ATOM     10  N   UNL     1      -4.872  13.086  19.337  0.00  0.00    +0.000 N 
ATOM     11  H   UNL     1      -5.271  13.901  18.872  0.00  0.00    +0.000 HD
BRANCH  10  19
ATOM     12  C   UNL     1      -7.694  12.719  20.638  0.00  0.00    +0.000 C 
ATOM     13  C   UNL     1      -6.369  12.769  21.301  0.00  0.00    +0.000 A 
ATOM     14  N   UNL     1      -6.279  12.621  22.626  0.00  0.00    +0.000 NA
ATOM     15  N   UNL     1      -4.957  12.657  22.872  0.00  0.00    +0.000 N 
ATOM     16  C   UNL     1      -4.510  12.523  24.239  0.00  0.00    +0.000 C 
ATOM     17  C   UNL     1      -4.188  12.807  21.742  0.00  0.00    +0.000 A 
ATOM     18  C   UNL     1      -2.704  12.839  21.760  0.00  0.00    +0.000 C 
ATOM     19  C   UNL     1      -5.093  12.928  20.705  0.00  0.00    +0.000 A 
ENDBRANCH  10  19
ENDBRANCH   7  10
ENDBRANCH   1   7
BRANCH   4  20
ATOM     20  C   UNL     1       0.996  10.077  18.021  0.00  0.00    +0.000 C 
BRANCH  20  21
ATOM     21  N   UNL     1       1.445   9.542  19.302  0.00  0.00    +0.000 N 
ATOM     22  H   UNL     1       2.143  10.140  19.740  0.00  0.00    +0.000 HD
BRANCH  21  23
ATOM     23  C   UNL     1       1.813   8.193  19.373  0.00  0.00    +0.000 A 
ATOM     24  C   UNL     1       1.591   7.491  20.562  0.00  0.00    +0.000 A 
ATOM     25  C   UNL     1       1.906   6.127  20.682  0.00  0.00    +0.000 A 
ATOM     26  C   UNL     1       2.433   5.397  19.613  0.00  0.00    +0.000 A 
ATOM     27  C   UNL     1       2.587   6.093  18.407  0.00  0.00    +0.000 A 
ATOM     28  C   UNL     1       2.267   7.456  18.281  0.00  0.00    +0.000 A 
BRANCH  26  29
ATOM     29  N   UNL     1       2.749   4.055  19.699  0.00  0.00    +0.000 N 
ATOM     30  C   UNL     1       4.066   3.516  19.329  0.00  0.00    +0.000 C 
ATOM     31  C   UNL     1       3.966   2.651  18.065  0.00  0.00    +0.000 C 
ATOM     32  O   UNL     1       2.988   1.609  18.221  0.00  0.00    +0.000 OA
ATOM     33  C   UNL     1       1.694   2.183  18.472  0.00  0.00    +0.000 C 
ATOM     34  C   UNL     1       1.678   3.042  19.750  0.00  0.00    +0.000 C 
ENDBRANCH  26  29
ENDBRANCH  21  23
ENDBRANCH  20  21
ENDBRANCH   4  20
TORSDOF 7
ENDMDL
MODEL 8
REMARK VINA RESULT:      -7.7      6.101     10.786
REMARK  Name = 
REMARK  10 active torsions:
REMARK  status: ('A' for Active; 'I' for Inactive)
REMARK    1  A    between atoms: C_1  and  C_2
REMARK    2  A    between atoms: N_4  and  C_5
REMARK    3  A    between atoms: C_6  and  C_7
REMARK    4  A    between atoms: C_8  and  N_9
REMARK    5  A    between atoms: N_9  and  S_10
REMARK    6  A    between atoms: S_10  and  C_13
REMARK    7  A    between atoms: C_16  and  C_17
REMARK    8  A    between atoms: C_17  and  N_18
REMARK    9  A    between atoms: N_18  and  C_19
REMARK   10  A    between atoms: C_22  and  N_23
REMARK                            x       y       z     vdW  Elec       q    Type
REMARK                         _______ _______ _______ _____ _____    ______ ____
ROOT
ATOM      1  C   UNL     1       4.875   6.049  18.537  0.00  0.00    +0.000 A 
ATOM      2  C   UNL     1       4.839   6.783  17.348  0.00  0.00    +0.000 A 
ATOM      3  C   UNL     1       3.755   7.620  17.082  0.00  0.00    +0.000 A 
ATOM      4  C   UNL     1       2.695   7.726  17.997  0.00  0.00    +0.000 A 
ATOM      5  C   UNL     1       2.738   6.969  19.180  0.00  0.00    +0.000 A 
ATOM      6  C   UNL     1       3.825   6.131  19.454  0.00  0.00    +0.000 A 
ENDROOT
BRANCH   1   7
ATOM      7  S   UNL     1       6.236   4.950  18.822  0.00  0.00    +0.000 S 
ATOM      8  O   UNL     1       6.889   5.331  20.060  0.00  0.00    +0.000 OA
ATOM      9  O   UNL     1       6.998   4.858  17.595  0.00  0.00    +0.000 OA
BRANCH   7  10
ATOM     10  N   UNL     1       5.494   3.444  19.021  0.00  0.00    +0.000 N 
ATOM     11  H   UNL     1       5.837   2.990  19.867  0.00  0.00    +0.000 HD
BRANCH  10  19
ATOM     12  C   UNL     1       4.496   3.414  16.055  0.00  0.00    +0.000 C 
ATOM     13  C   UNL     1       3.711   3.217  17.298  0.00  0.00    +0.000 A 
ATOM     14  N   UNL     1       2.401   2.963  17.228  0.00  0.00    +0.000 NA
ATOM     15  N   UNL     1       2.033   2.782  18.509  0.00  0.00    +0.000 N 
ATOM     16  C   UNL     1       0.646   2.485  18.788  0.00  0.00    +0.000 C 
ATOM     17  C   UNL     1       3.070   2.894  19.405  0.00  0.00    +0.000 A 
ATOM     18  C   UNL     1       2.913   2.702  20.868  0.00  0.00    +0.000 C 
ATOM     19  C   UNL     1       4.172   3.225  18.639  0.00  0.00    +0.000 A 
ENDBRANCH  10  19
ENDBRANCH   7  10
ENDBRANCH   1   7
BRANCH   4  20
ATOM     20  C   UNL     1       1.503   8.606  17.684  0.00  0.00    +0.000 C 
BRANCH  20  21
ATOM     21  N   UNL     1       1.847   9.999  17.945  0.00  0.00    +0.000 N 
ATOM     22  H   UNL     1       2.829  10.109  18.187  0.00  0.00    +0.000 HD
BRANCH  21  23
ATOM     23  C   UNL     1       1.024  10.742  18.801  0.00  0.00    +0.000 A 
ATOM     24  C   UNL     1       0.357  10.086  19.840  0.00  0.00    +0.000 A 
ATOM     25  C   UNL     1      -0.454  10.783  20.752  0.00  0.00    +0.000 A 
ATOM     26  C   UNL     1      -0.613  12.169  20.682  0.00  0.00    +0.000 A 
ATOM     27  C   UNL     1       0.114  12.825  19.680  0.00  0.00    +0.000 A 
ATOM     28  C   UNL     1       0.931  12.132  18.770  0.00  0.00    +0.000 A 
BRANCH  26  29
ATOM     29  N   UNL     1      -1.400  12.883  21.565  0.00  0.00    +0.000 N 
ATOM     30  C   UNL     1      -1.440  12.607  23.009  0.00  0.00    +0.000 C 
ATOM     31  C   UNL     1      -2.803  12.031  23.416  0.00  0.00    +0.000 C 
ATOM     32  O   UNL     1      -3.878  12.894  23.008  0.00  0.00    +0.000 OA
ATOM     33  C   UNL     1      -3.869  13.049  21.580  0.00  0.00    +0.000 C 
ATOM     34  C   UNL     1      -2.551  13.662  21.071  0.00  0.00    +0.000 C 
ENDBRANCH  26  29
ENDBRANCH  21  23
ENDBRANCH  20  21
ENDBRANCH   4  20
TORSDOF 7
ENDMDL
MODEL 9
REMARK VINA RESULT:      -7.7      8.308     10.184
REMARK  Name = 
REMARK  10 active torsions:
REMARK  status: ('A' for Active; 'I' for Inactive)
REMARK    1  A    between atoms: C_1  and  C_2
REMARK    2  A    between atoms: N_4  and  C_5
REMARK    3  A    between atoms: C_6  and  C_7
REMARK    4  A    between atoms: C_8  and  N_9
REMARK    5  A    between atoms: N_9  and  S_10
REMARK    6  A    between atoms: S_10  and  C_13
REMARK    7  A    between atoms: C_16  and  C_17
REMARK    8  A    between atoms: C_17  and  N_18
REMARK    9  A    between atoms: N_18  and  C_19
REMARK   10  A    between atoms: C_22  and  N_23
REMARK                            x       y       z     vdW  Elec       q    Type
REMARK                         _______ _______ _______ _____ _____    ______ ____
ROOT
ATOM      1  C   UNL     1      -3.024  11.224  18.292  0.00  0.00    +0.000 A 
ATOM      2  C   UNL     1      -2.505  10.058  17.724  0.00  0.00    +0.000 A 
ATOM      3  C   UNL     1      -1.145   9.770  17.850  0.00  0.00    +0.000 A 
ATOM      4  C   UNL     1      -0.292  10.649  18.537  0.00  0.00    +0.000 A 
ATOM      5  C   UNL     1      -0.826  11.825  19.089  0.00  0.00    +0.000 A 
ATOM      6  C   UNL     1      -2.190  12.116  18.970  0.00  0.00    +0.000 A 
ENDROOT
BRANCH   1   7
ATOM      7  S   UNL     1      -4.744  11.593  18.068  0.00  0.00    +0.000 S 
ATOM      8  O   UNL     1      -5.527  10.485  18.583  0.00  0.00    +0.000 OA
ATOM      9  O   UNL     1      -4.928  12.044  16.705  0.00  0.00    +0.000 OA
BRANCH   7  10
ATOM     10  N   UNL     1      -4.988  12.951  19.043  0.00  0.00    +0.000 N 
ATOM     11  H   UNL     1      -5.313  13.737  18.480  0.00  0.00    +0.000 HD
BRANCH  10  19
ATOM     12  C   UNL     1      -3.344  13.780  21.573  0.00  0.00    +0.000 C 
ATOM     13  C   UNL     1      -4.709  13.204  21.504  0.00  0.00    +0.000 A 
ATOM     14  N   UNL     1      -5.408  13.005  22.625  0.00  0.00    +0.000 NA
ATOM     15  N   UNL     1      -6.596  12.542  22.194  0.00  0.00    +0.000 N 
ATOM     16  C   UNL     1      -7.603  12.220  23.178  0.00  0.00    +0.000 C 
ATOM     17  C   UNL     1      -6.691  12.453  20.826  0.00  0.00    +0.000 A 
ATOM     18  C   UNL     1      -7.916  12.002  20.118  0.00  0.00    +0.000 C 
ATOM     19  C   UNL     1      -5.452  12.838  20.353  0.00  0.00    +0.000 A 
ENDBRANCH  10  19
ENDBRANCH   7  10
ENDBRANCH   1   7
BRANCH   4  20
ATOM     20  C   UNL     1       1.189  10.350  18.635  0.00  0.00    +0.000 C 
BRANCH  20  21
ATOM     21  N   UNL     1       1.417   9.368  19.690  0.00  0.00    +0.000 N 
ATOM     22  H   UNL     1       1.951   9.758  20.463  0.00  0.00    +0.000 HD
BRANCH  21  23
ATOM     23  C   UNL     1       1.889   8.099  19.332  0.00  0.00    +0.000 A 
ATOM     24  C   UNL     1       2.621   7.956  18.150  0.00  0.00    +0.000 A 
ATOM     25  C   UNL     1       3.150   6.714  17.756  0.00  0.00    +0.000 A 
ATOM     26  C   UNL     1       2.993   5.568  18.539  0.00  0.00    +0.000 A 
ATOM     27  C   UNL     1       2.317   5.737  19.755  0.00  0.00    +0.000 A 
ATOM     28  C   UNL     1       1.792   6.978  20.154  0.00  0.00    +0.000 A 
BRANCH  26  29
ATOM     29  N   UNL     1       3.504   4.335  18.182  0.00  0.00    +0.000 N 
ATOM     30  C   UNL     1       2.687   3.271  17.579  0.00  0.00    +0.000 C 
ATOM     31  C   UNL     1       2.522   2.094  18.549  0.00  0.00    +0.000 C 
ATOM     32  O   UNL     1       3.797   1.600  18.993  0.00  0.00    +0.000 OA
ATOM     33  C   UNL     1       4.518   2.640  19.674  0.00  0.00    +0.000 C 
ATOM     34  C   UNL     1       4.772   3.859  18.767  0.00  0.00    +0.000 C 
ENDBRANCH  26  29
ENDBRANCH  21  23
ENDBRANCH  20  21
ENDBRANCH   4  20
TORSDOF 7
ENDMDL
