MODEL 1
REMARK VINA RESULT:      -8.4      0.000      0.000
REMARK  Name = 
REMARK  8 active torsions:
REMARK  status: ('A' for Active; 'I' for Inactive)
REMARK    1  A    between atoms: C_1  and  C_2
REMARK    2  A    between atoms: C_2  and  N_3
REMARK    3  A    between atoms: C_4  and  C_5
REMARK    4  A    between atoms: C_5  and  O_6
REMARK    5  A    between atoms: C_5  and  C_7
REMARK    6  A    between atoms: C_5  and  C_13
REMARK    7  A    between atoms: C_23  and  C_24
REMARK    8  A    between atoms: C_24  and  O_26
REMARK                            x       y       z     vdW  Elec       q    Type
REMARK                         _______ _______ _______ _____ _____    ______ ____
ROOT
ATOM      1  N   UNL     1       2.625   6.554  19.643  0.00  0.00    +0.000 N 
ATOM      2  C   UNL     1       3.223   6.659  18.389  0.00  0.00    +0.000 A 
ATOM      3  N   UNL     1       2.845   7.806  17.828  0.00  0.00    +0.000 NA
ATOM      4  C   UNL     1       2.051   8.461  18.720  0.00  0.00    +0.000 A 
ATOM      5  C   UNL     1       1.420   9.709  18.607  0.00  0.00    +0.000 A 
ATOM      6  C   UNL     1       0.633  10.178  19.673  0.00  0.00    +0.000 A 
ATOM      7  C   UNL     1       0.492   9.406  20.837  0.00  0.00    +0.000 A 
ATOM      8  C   UNL     1       1.115   8.155  20.946  0.00  0.00    +0.000 A 
ATOM      9  C   UNL     1       1.895   7.709  19.870  0.00  0.00    +0.000 A 
ENDROOT
BRANCH   1  11
ATOM     10  C   UNL     1       1.390   4.639  20.609  0.00  0.00    +0.000 C 
ATOM     11  C   UNL     1       2.671   5.465  20.604  0.00  0.00    +0.000 C 
ENDBRANCH   1  11
BRANCH   7  12
ATOM     12  C   UNL     1      -0.363   9.824  21.983  0.00  0.00    +0.000 C 
ATOM     13  O   UNL     1      -0.746  10.974  22.121  0.00  0.00    +0.000 OA
BRANCH  12  14
ATOM     14  O   UNL     1      -0.727   8.833  22.822  0.00  0.00    +0.000 OA
ATOM     15  H   UNL     1      -0.442   7.937  22.573  0.00  0.00    +0.000 HD
ENDBRANCH  12  14
ENDBRANCH   7  12
BRANCH   2  16
ATOM     16  C   UNL     1       4.181   5.643  17.683  0.00  0.00    +0.000 C 
BRANCH  16  17
ATOM     17  C   UNL     1       5.655   5.974  18.027  0.00  0.00    +0.000 A 
ATOM     18  C   UNL     1       6.259   5.384  19.154  0.00  0.00    +0.000 A 
ATOM     19  C   UNL     1       7.538   5.746  19.575  0.00  0.00    +0.000 A 
ATOM     20  C   UNL     1       8.256   6.703  18.870  0.00  0.00    +0.000 A 
ATOM     21  C   UNL     1       7.709   7.267  17.717  0.00  0.00    +0.000 A 
ATOM     22  C   UNL     1       6.429   6.896  17.290  0.00  0.00    +0.000 A 
ENDBRANCH  16  17
BRANCH  16  23
ATOM     23  C   UNL     1       3.821   4.171  17.987  0.00  0.00    +0.000 A 
ATOM     24  C   UNL     1       2.726   3.558  17.344  0.00  0.00    +0.000 A 
ATOM     25  C   UNL     1       2.292   2.280  17.708  0.00  0.00    +0.000 A 
ATOM     26  C   UNL     1       2.962   1.573  18.702  0.00  0.00    +0.000 A 
ATOM     27  C   UNL     1       4.098   2.117  19.287  0.00  0.00    +0.000 A 
ATOM     28  C   UNL     1       4.534   3.393  18.919  0.00  0.00    +0.000 A 
ENDBRANCH  16  23
BRANCH  16  29
ATOM     29  O   UNL     1       3.982   5.790  16.268  0.00  0.00    +0.000 OA
ATOM     30  H   UNL     1       4.815   5.531  15.854  0.00  0.00    +0.000 HD
ENDBRANCH  16  29
ENDBRANCH   2  16
TORSDOF 7
ENDMDL
MODEL 2
REMARK VINA RESULT:      -8.3      2.906      6.950
REMARK  Name = 
REMARK  8 active torsions:
REMARK  status: ('A' for Active; 'I' for Inactive)
REMARK    1  A    between atoms: C_1  and  C_2
REMARK    2  A    between atoms: C_2  and  N_3
REMARK    3  A    between atoms: C_4  and  C_5
REMARK    4  A    between atoms: C_5  and  O_6
REMARK    5  A    between atoms: C_5  and  C_7
REMARK    6  A    between atoms: C_5  and  C_13
REMARK    7  A    between atoms: C_23  and  C_24
REMARK    8  A    between atoms: C_24  and  O_26
REMARK                            x       y       z     vdW  Elec       q    Type
REMARK                         _______ _______ _______ _____ _____    ______ ____
ROOT
ATOM      1  N   UNL     1       5.511   6.028  17.086  0.00  0.00    +0.000 N 
ATOM      2  C   UNL     1       4.425   5.347  17.631  0.00  0.00    +0.000 A 
ATOM      3  N   UNL     1       4.050   4.389  16.786  0.00  0.00    +0.000 NA
ATOM      4  C   UNL     1       4.906   4.413  15.727  0.00  0.00    +0.000 A 
ATOM      5  C   UNL     1       4.941   3.598  14.586  0.00  0.00    +0.000 A 
ATOM      6  C   UNL     1       5.929   3.823  13.612  0.00  0.00    +0.000 A 
ATOM      7  C   UNL     1       6.872   4.848  13.790  0.00  0.00    +0.000 A 
ATOM      8  C   UNL     1       6.832   5.669  14.925  0.00  0.00    +0.000 A 
ATOM      9  C   UNL     1       5.837   5.423  15.883  0.00  0.00    +0.000 A 
ENDROOT
BRANCH   1  11
ATOM     10  C   UNL     1       7.586   6.824  18.175  0.00  0.00    +0.000 C 
ATOM     11  C   UNL     1       6.227   7.188  17.589  0.00  0.00    +0.000 C 
ENDBRANCH   1  11
BRANCH   7  12
ATOM     12  C   UNL     1       7.915   5.168  12.775  0.00  0.00    +0.000 C 
ATOM     13  O   UNL     1       7.822   4.806  11.614  0.00  0.00    +0.000 OA
BRANCH  12  14
ATOM     14  O   UNL     1       8.936   5.929  13.219  0.00  0.00    +0.000 OA
ATOM     15  H   UNL     1       8.847   6.276  14.123  0.00  0.00    +0.000 HD
ENDBRANCH  12  14
ENDBRANCH   7  12
BRANCH   2  16
ATOM     16  C   UNL     1       3.703   5.606  18.996  0.00  0.00    +0.000 C 
BRANCH  16  17
ATOM     17  C   UNL     1       2.926   6.944  18.942  0.00  0.00    +0.000 A 
ATOM     18  C   UNL     1       2.202   7.377  20.071  0.00  0.00    +0.000 A 
ATOM     19  C   UNL     1       1.386   8.508  20.030  0.00  0.00    +0.000 A 
ATOM     20  C   UNL     1       1.283   9.246  18.858  0.00  0.00    +0.000 A 
ATOM     21  C   UNL     1       2.029   8.877  17.739  0.00  0.00    +0.000 A 
ATOM     22  C   UNL     1       2.854   7.747  17.784  0.00  0.00    +0.000 A 
ENDBRANCH  16  17
BRANCH  16  23
ATOM     23  C   UNL     1       2.811   4.421  19.433  0.00  0.00    +0.000 A 
ATOM     24  C   UNL     1       1.699   4.041  18.655  0.00  0.00    +0.000 A 
ATOM     25  C   UNL     1       0.795   3.073  19.102  0.00  0.00    +0.000 A 
ATOM     26  C   UNL     1       0.999   2.440  20.324  0.00  0.00    +0.000 A 
ATOM     27  C   UNL     1       2.136   2.731  21.068  0.00  0.00    +0.000 A 
ATOM     28  C   UNL     1       3.041   3.696  20.618  0.00  0.00    +0.000 A 
ENDBRANCH  16  23
BRANCH  16  29
ATOM     29  O   UNL     1       4.724   5.693  20.002  0.00  0.00    +0.000 OA
ATOM     30  H   UNL     1       5.564   5.730  19.527  0.00  0.00    +0.000 HD
ENDBRANCH  16  29
ENDBRANCH   2  16
TORSDOF 7
ENDMDL
MODEL 3
REMARK VINA RESULT:      -8.3      2.843      6.859
REMARK  Name = 
REMARK  8 active torsions:
REMARK  status: ('A' for Active; 'I' for Inactive)
REMARK    1  A    between atoms: C_1  and  C_2
REMARK    2  A    between atoms: C_2  and  N_3
REMARK    3  A    between atoms: C_4  and  C_5
REMARK    4  A    between atoms: C_5  and  O_6
REMARK    5  A    between atoms: C_5  and  C_7
REMARK    6  A    between atoms: C_5  and  C_13
REMARK    7  A    between atoms: C_23  and  C_24
REMARK    8  A    between atoms: C_24  and  O_26
REMARK                            x       y       z     vdW  Elec       q    Type
REMARK                         _______ _______ _______ _____ _____    ______ ____
ROOT
ATOM      1  N   UNL     1       3.855   4.451  16.902  0.00  0.00    +0.000 N 
ATOM      2  C   UNL     1       4.366   5.256  17.917  0.00  0.00    +0.000 A 
ATOM      3  N   UNL     1       5.576   5.681  17.561  0.00  0.00    +0.000 NA
ATOM      4  C   UNL     1       5.833   5.200  16.313  0.00  0.00    +0.000 A 
ATOM      5  C   UNL     1       6.963   5.378  15.501  0.00  0.00    +0.000 A 
ATOM      6  C   UNL     1       7.001   4.767  14.236  0.00  0.00    +0.000 A 
ATOM      7  C   UNL     1       5.916   3.994  13.794  0.00  0.00    +0.000 A 
ATOM      8  C   UNL     1       4.791   3.807  14.610  0.00  0.00    +0.000 A 
ATOM      9  C   UNL     1       4.776   4.429  15.867  0.00  0.00    +0.000 A 
ENDROOT
BRANCH   1  11
ATOM     10  C   UNL     1       2.786   2.250  17.275  0.00  0.00    +0.000 C 
ATOM     11  C   UNL     1       2.611   3.703  16.848  0.00  0.00    +0.000 C 
ENDBRANCH   1  11
BRANCH   7  12
ATOM     12  C   UNL     1       5.912   3.282  12.486  0.00  0.00    +0.000 C 
ATOM     13  O   UNL     1       4.903   3.176  11.807  0.00  0.00    +0.000 OA
BRANCH  12  14
ATOM     14  O   UNL     1       7.110   2.812  12.082  0.00  0.00    +0.000 OA
ATOM     15  H   UNL     1       7.454   3.180  11.250  0.00  0.00    +0.000 HD
ENDBRANCH  12  14
ENDBRANCH   7  12
BRANCH   2  16
ATOM     16  C   UNL     1       3.698   5.640  19.279  0.00  0.00    +0.000 C 
BRANCH  16  17
ATOM     17  C   UNL     1       2.810   6.896  19.102  0.00  0.00    +0.000 A 
ATOM     18  C   UNL     1       2.780   7.561  17.860  0.00  0.00    +0.000 A 
ATOM     19  C   UNL     1       2.096   8.764  17.688  0.00  0.00    +0.000 A 
ATOM     20  C   UNL     1       1.411   9.332  18.755  0.00  0.00    +0.000 A 
ATOM     21  C   UNL     1       1.374   8.671  19.983  0.00  0.00    +0.000 A 
ATOM     22  C   UNL     1       2.053   7.459  20.152  0.00  0.00    +0.000 A 
ENDBRANCH  16  17
BRANCH  16  23
ATOM     23  C   UNL     1       2.931   4.461  19.922  0.00  0.00    +0.000 A 
ATOM     24  C   UNL     1       1.522   4.422  19.883  0.00  0.00    +0.000 A 
ATOM     25  C   UNL     1       0.803   3.447  20.581  0.00  0.00    +0.000 A 
ATOM     26  C   UNL     1       1.476   2.471  21.308  0.00  0.00    +0.000 A 
ATOM     27  C   UNL     1       2.865   2.434  21.289  0.00  0.00    +0.000 A 
ATOM     28  C   UNL     1       3.583   3.406  20.588  0.00  0.00    +0.000 A 
ENDBRANCH  16  23
BRANCH  16  29
ATOM     29  O   UNL     1       4.759   5.938  20.200  0.00  0.00    +0.000 OA
ATOM     30  H   UNL     1       4.421   5.717  21.077  0.00  0.00    +0.000 HD
ENDBRANCH  16  29
ENDBRANCH   2  16
TORSDOF 7
ENDMDL
MODEL 4
REMARK VINA RESULT:      -8.1      1.519      3.762
REMARK  Name = 
REMARK  8 active torsions:
REMARK  status: ('A' for Active; 'I' for Inactive)
REMARK    1  A    between atoms: C_1  and  C_2
REMARK    2  A    between atoms: C_2  and  N_3
REMARK    3  A    between atoms: C_4  and  C_5
REMARK    4  A    between atoms: C_5  and  O_6
REMARK    5  A    between atoms: C_5  and  C_7
REMARK    6  A    between atoms: C_5  and  C_13
REMARK    7  A    between atoms: C_23  and  C_24
REMARK    8  A    between atoms: C_24  and  O_26
REMARK                            x       y       z     vdW  Elec       q    Type
REMARK                         _______ _______ _______ _____ _____    ______ ____
ROOT
ATOM      1  N   UNL     1       2.722   6.552  19.678  0.00  0.00    +0.000 N 
ATOM      2  C   UNL     1       3.504   6.248  18.566  0.00  0.00    +0.000 A 
ATOM      3  N   UNL     1       3.386   7.231  17.676  0.00  0.00    +0.000 NA
ATOM      4  C   UNL     1       2.577   8.184  18.216  0.00  0.00    +0.000 A 
ATOM      5  C   UNL     1       2.161   9.411  17.681  0.00  0.00    +0.000 A 
ATOM      6  C   UNL     1       1.305  10.234  18.435  0.00  0.00    +0.000 A 
ATOM      7  C   UNL     1       0.883   9.828  19.711  0.00  0.00    +0.000 A 
ATOM      8  C   UNL     1       1.292   8.596  20.242  0.00  0.00    +0.000 A 
ATOM      9  C   UNL     1       2.146   7.795  19.471  0.00  0.00    +0.000 A 
ENDROOT
BRANCH   1  11
ATOM     10  C   UNL     1       1.199   4.928  20.759  0.00  0.00    +0.000 C 
ATOM     11  C   UNL     1       2.465   5.769  20.874  0.00  0.00    +0.000 C 
ENDBRANCH   1  11
BRANCH   7  12
ATOM     12  C   UNL     1      -0.058  10.629  20.541  0.00  0.00    +0.000 C 
ATOM     13  O   UNL     1      -1.147  10.987  20.124  0.00  0.00    +0.000 OA
BRANCH  12  14
ATOM     14  O   UNL     1       0.356  10.883  21.799  0.00  0.00    +0.000 OA
ATOM     15  H   UNL     1       1.194  11.370  21.883  0.00  0.00    +0.000 HD
ENDBRANCH  12  14
ENDBRANCH   7  12
BRANCH   2  16
ATOM     16  C   UNL     1       4.395   4.984  18.323  0.00  0.00    +0.000 C 
BRANCH  16  17
ATOM     17  C   UNL     1       3.529   3.702  18.388  0.00  0.00    +0.000 A 
ATOM     18  C   UNL     1       2.243   3.697  17.814  0.00  0.00    +0.000 A 
ATOM     19  C   UNL     1       1.379   2.611  17.956  0.00  0.00    +0.000 A 
ATOM     20  C   UNL     1       1.785   1.490  18.670  0.00  0.00    +0.000 A 
ATOM     21  C   UNL     1       3.073   1.440  19.204  0.00  0.00    +0.000 A 
ATOM     22  C   UNL     1       3.941   2.527  19.052  0.00  0.00    +0.000 A 
ENDBRANCH  16  17
BRANCH  16  23
ATOM     23  C   UNL     1       5.217   5.075  17.017  0.00  0.00    +0.000 A 
ATOM     24  C   UNL     1       4.763   4.441  15.843  0.00  0.00    +0.000 A 
ATOM     25  C   UNL     1       5.556   4.384  14.694  0.00  0.00    +0.000 A 
ATOM     26  C   UNL     1       6.810   4.988  14.681  0.00  0.00    +0.000 A 
ATOM     27  C   UNL     1       7.243   5.697  15.795  0.00  0.00    +0.000 A 
ATOM     28  C   UNL     1       6.447   5.756  16.942  0.00  0.00    +0.000 A 
ENDBRANCH  16  23
BRANCH  16  29
ATOM     29  O   UNL     1       5.371   4.948  19.375  0.00  0.00    +0.000 OA
ATOM     30  H   UNL     1       5.736   5.840  19.431  0.00  0.00    +0.000 HD
ENDBRANCH  16  29
ENDBRANCH   2  16
TORSDOF 7
ENDMDL
MODEL 5
REMARK VINA RESULT:      -8.0      2.859      7.003
REMARK  Name = 
REMARK  8 active torsions:
REMARK  status: ('A' for Active; 'I' for Inactive)
REMARK    1  A    between atoms: C_1  and  C_2
REMARK    2  A    between atoms: C_2  and  N_3
REMARK    3  A    between atoms: C_4  and  C_5
REMARK    4  A    between atoms: C_5  and  O_6
REMARK    5  A    between atoms: C_5  and  C_7
REMARK    6  A    between atoms: C_5  and  C_13
REMARK    7  A    between atoms: C_23  and  C_24
REMARK    8  A    between atoms: C_24  and  O_26
REMARK                            x       y       z     vdW  Elec       q    Type
REMARK                         _______ _______ _______ _____ _____    ______ ____
ROOT
ATOM      1  N   UNL     1       5.389   6.060  17.153  0.00  0.00    +0.000 N 
ATOM      2  C   UNL     1       4.290   5.373  17.663  0.00  0.00    +0.000 A 
ATOM      3  N   UNL     1       3.946   4.414  16.805  0.00  0.00    +0.000 NA
ATOM      4  C   UNL     1       4.835   4.443  15.774  0.00  0.00    +0.000 A 
ATOM      5  C   UNL     1       4.909   3.631  14.633  0.00  0.00    +0.000 A 
ATOM      6  C   UNL     1       5.926   3.862  13.690  0.00  0.00    +0.000 A 
ATOM      7  C   UNL     1       6.858   4.891  13.899  0.00  0.00    +0.000 A 
ATOM      8  C   UNL     1       6.778   5.710  15.034  0.00  0.00    +0.000 A 
ATOM      9  C   UNL     1       5.756   5.459  15.960  0.00  0.00    +0.000 A 
ENDROOT
BRANCH   1  11
ATOM     10  C   UNL     1       7.500   6.897  18.136  0.00  0.00    +0.000 C 
ATOM     11  C   UNL     1       6.082   7.222  17.680  0.00  0.00    +0.000 C 
ENDBRANCH   1  11
BRANCH   7  12
ATOM     12  C   UNL     1       7.930   5.218  12.918  0.00  0.00    +0.000 C 
ATOM     13  O   UNL     1       8.923   5.855  13.232  0.00  0.00    +0.000 OA
BRANCH  12  14
ATOM     14  O   UNL     1       7.751   4.717  11.680  0.00  0.00    +0.000 OA
ATOM     15  H   UNL     1       6.836   4.708  11.351  0.00  0.00    +0.000 HD
ENDBRANCH  12  14
ENDBRANCH   7  12
BRANCH   2  16
ATOM     16  C   UNL     1       3.525   5.625  19.005  0.00  0.00    +0.000 C 
BRANCH  16  17
ATOM     17  C   UNL     1       2.722   6.947  18.919  0.00  0.00    +0.000 A 
ATOM     18  C   UNL     1       2.726   7.691  17.723  0.00  0.00    +0.000 A 
ATOM     19  C   UNL     1       2.124   8.946  17.637  0.00  0.00    +0.000 A 
ATOM     20  C   UNL     1       1.487   9.487  18.747  0.00  0.00    +0.000 A 
ATOM     21  C   UNL     1       1.416   8.753  19.931  0.00  0.00    +0.000 A 
ATOM     22  C   UNL     1       2.013   7.490  20.013  0.00  0.00    +0.000 A 
ENDBRANCH  16  17
BRANCH  16  23
ATOM     23  C   UNL     1       2.644   4.426  19.425  0.00  0.00    +0.000 A 
ATOM     24  C   UNL     1       2.889   3.754  20.640  0.00  0.00    +0.000 A 
ATOM     25  C   UNL     1       2.205   2.581  20.973  0.00  0.00    +0.000 A 
ATOM     26  C   UNL     1       1.238   2.070  20.113  0.00  0.00    +0.000 A 
ATOM     27  C   UNL     1       0.914   2.763  18.953  0.00  0.00    +0.000 A 
ATOM     28  C   UNL     1       1.595   3.938  18.623  0.00  0.00    +0.000 A 
ENDBRANCH  16  23
BRANCH  16  29
ATOM     29  O   UNL     1       4.514   5.740  20.039  0.00  0.00    +0.000 OA
ATOM     30  H   UNL     1       4.940   6.596  19.906  0.00  0.00    +0.000 HD
ENDBRANCH  16  29
ENDBRANCH   2  16
TORSDOF 7
ENDMDL
MODEL 6
REMARK VINA RESULT:      -8.0      0.237      1.435
REMARK  Name = 
REMARK  8 active torsions:
REMARK  status: ('A' for Active; 'I' for Inactive)
REMARK    1  A    between atoms: C_1  and  C_2
REMARK    2  A    between atoms: C_2  and  N_3
REMARK    3  A    between atoms: C_4  and  C_5
REMARK    4  A    between atoms: C_5  and  O_6
REMARK    5  A    between atoms: C_5  and  C_7
REMARK    6  A    between atoms: C_5  and  C_13
REMARK    7  A    between atoms: C_23  and  C_24
REMARK    8  A    between atoms: C_24  and  O_26
REMARK                            x       y       z     vdW  Elec       q    Type
REMARK                         _______ _______ _______ _____ _____    ______ ____
ROOT
ATOM      1  N   UNL     1       2.510   6.701  19.702  0.00  0.00    +0.000 N 
ATOM      2  C   UNL     1       3.123   6.764  18.453  0.00  0.00    +0.000 A 
ATOM      3  N   UNL     1       2.745   7.887  17.845  0.00  0.00    +0.000 NA
ATOM      4  C   UNL     1       1.935   8.569  18.701  0.00  0.00    +0.000 A 
ATOM      5  C   UNL     1       1.295   9.806  18.534  0.00  0.00    +0.000 A 
ATOM      6  C   UNL     1       0.491  10.309  19.572  0.00  0.00    +0.000 A 
ATOM      7  C   UNL     1       0.340   9.579  20.761  0.00  0.00    +0.000 A 
ATOM      8  C   UNL     1       0.971   8.337  20.925  0.00  0.00    +0.000 A 
ATOM      9  C   UNL     1       1.768   7.858  19.876  0.00  0.00    +0.000 A 
ENDROOT
BRANCH   1  11
ATOM     10  C   UNL     1       1.326   4.743  20.645  0.00  0.00    +0.000 C 
ATOM     11  C   UNL     1       2.550   5.649  20.703  0.00  0.00    +0.000 C 
ENDBRANCH   1  11
BRANCH   7  12
ATOM     12  C   UNL     1      -0.534  10.032  21.879  0.00  0.00    +0.000 C 
ATOM     13  O   UNL     1      -0.719   9.350  22.875  0.00  0.00    +0.000 OA
BRANCH  12  14
ATOM     14  O   UNL     1      -1.058  11.265  21.737  0.00  0.00    +0.000 OA
ATOM     15  H   UNL     1      -0.811  11.915  22.418  0.00  0.00    +0.000 HD
ENDBRANCH  12  14
ENDBRANCH   7  12
BRANCH   2  16
ATOM     16  C   UNL     1       4.099   5.731  17.797  0.00  0.00    +0.000 C 
BRANCH  16  17
ATOM     17  C   UNL     1       5.559   6.045  18.205  0.00  0.00    +0.000 A 
ATOM     18  C   UNL     1       6.333   6.918  17.416  0.00  0.00    +0.000 A 
ATOM     19  C   UNL     1       7.688   7.132  17.670  0.00  0.00    +0.000 A 
ATOM     20  C   UNL     1       8.304   6.486  18.735  0.00  0.00    +0.000 A 
ATOM     21  C   UNL     1       7.554   5.658  19.569  0.00  0.00    +0.000 A 
ATOM     22  C   UNL     1       6.193   5.451  19.318  0.00  0.00    +0.000 A 
ENDBRANCH  16  17
BRANCH  16  23
ATOM     23  C   UNL     1       3.705   4.266  18.094  0.00  0.00    +0.000 A 
ATOM     24  C   UNL     1       4.446   3.502  19.018  0.00  0.00    +0.000 A 
ATOM     25  C   UNL     1       4.201   2.136  19.194  0.00  0.00    +0.000 A 
ATOM     26  C   UNL     1       3.189   1.511  18.473  0.00  0.00    +0.000 A 
ATOM     27  C   UNL     1       2.385   2.260  17.623  0.00  0.00    +0.000 A 
ATOM     28  C   UNL     1       2.628   3.626  17.450  0.00  0.00    +0.000 A 
ENDBRANCH  16  23
BRANCH  16  29
ATOM     29  O   UNL     1       3.966   5.870  16.374  0.00  0.00    +0.000 OA
ATOM     30  H   UNL     1       3.461   5.102  16.077  0.00  0.00    +0.000 HD
ENDBRANCH  16  29
ENDBRANCH   2  16
TORSDOF 7
ENDMDL
MODEL 7
REMARK VINA RESULT:      -7.9      2.837      6.859
REMARK  Name = 
REMARK  8 active torsions:
REMARK  status: ('A' for Active; 'I' for Inactive)
REMARK    1  A    between atoms: C_1  and  C_2
REMARK    2  A    between atoms: C_2  and  N_3
REMARK    3  A    between atoms: C_4  and  C_5
REMARK    4  A    between atoms: C_5  and  O_6
REMARK    5  A    between atoms: C_5  and  C_7
REMARK    6  A    between atoms: C_5  and  C_13
REMARK    7  A    between atoms: C_23  and  C_24
REMARK    8  A    between atoms: C_24  and  O_26
REMARK                            x       y       z     vdW  Elec       q    Type
REMARK                         _______ _______ _______ _____ _____    ______ ____
ROOT
ATOM      1  N   UNL     1       3.853   4.510  16.888  0.00  0.00    +0.000 N 
ATOM      2  C   UNL     1       4.380   5.330  17.883  0.00  0.00    +0.000 A 
ATOM      3  N   UNL     1       5.591   5.737  17.509  0.00  0.00    +0.000 NA
ATOM      4  C   UNL     1       5.833   5.230  16.268  0.00  0.00    +0.000 A 
ATOM      5  C   UNL     1       6.957   5.382  15.443  0.00  0.00    +0.000 A 
ATOM      6  C   UNL     1       6.979   4.746  14.190  0.00  0.00    +0.000 A 
ATOM      7  C   UNL     1       5.883   3.974  13.772  0.00  0.00    +0.000 A 
ATOM      8  C   UNL     1       4.763   3.814  14.601  0.00  0.00    +0.000 A 
ATOM      9  C   UNL     1       4.765   4.459  15.846  0.00  0.00    +0.000 A 
ENDROOT
BRANCH   1  11
ATOM     10  C   UNL     1       2.782   2.306  17.234  0.00  0.00    +0.000 C 
ATOM     11  C   UNL     1       2.602   3.772  16.859  0.00  0.00    +0.000 C 
ENDBRANCH   1  11
BRANCH   7  12
ATOM     12  C   UNL     1       5.862   3.237  12.478  0.00  0.00    +0.000 C 
ATOM     13  O   UNL     1       4.867   3.193  11.773  0.00  0.00    +0.000 OA
BRANCH  12  14
ATOM     14  O   UNL     1       7.032   2.672  12.118  0.00  0.00    +0.000 OA
ATOM     15  H   UNL     1       7.808   3.258  12.123  0.00  0.00    +0.000 HD
ENDBRANCH  12  14
ENDBRANCH   7  12
BRANCH   2  16
ATOM     16  C   UNL     1       3.727   5.746  19.243  0.00  0.00    +0.000 C 
BRANCH  16  17
ATOM     17  C   UNL     1       2.915   7.052  19.067  0.00  0.00    +0.000 A 
ATOM     18  C   UNL     1       2.137   7.541  20.135  0.00  0.00    +0.000 A 
ATOM     19  C   UNL     1       1.292   8.641  19.985  0.00  0.00    +0.000 A 
ATOM     20  C   UNL     1       1.212   9.292  18.760  0.00  0.00    +0.000 A 
ATOM     21  C   UNL     1       2.010   8.868  17.698  0.00  0.00    +0.000 A 
ATOM     22  C   UNL     1       2.864   7.770  17.853  0.00  0.00    +0.000 A 
ENDBRANCH  16  17
BRANCH  16  23
ATOM     23  C   UNL     1       2.889   4.611  19.876  0.00  0.00    +0.000 A 
ATOM     24  C   UNL     1       3.525   3.531  20.522  0.00  0.00    +0.000 A 
ATOM     25  C   UNL     1       2.799   2.424  20.972  0.00  0.00    +0.000 A 
ATOM     26  C   UNL     1       1.418   2.385  20.814  0.00  0.00    +0.000 A 
ATOM     27  C   UNL     1       0.757   3.475  20.262  0.00  0.00    +0.000 A 
ATOM     28  C   UNL     1       1.483   4.583  19.817  0.00  0.00    +0.000 A 
ENDBRANCH  16  23
BRANCH  16  29
ATOM     29  O   UNL     1       4.798   5.978  20.171  0.00  0.00    +0.000 OA
ATOM     30  H   UNL     1       5.381   5.212  20.102  0.00  0.00    +0.000 HD
ENDBRANCH  16  29
ENDBRANCH   2  16
TORSDOF 7
ENDMDL
MODEL 8
REMARK VINA RESULT:      -7.7      1.529      3.909
REMARK  Name = 
REMARK  8 active torsions:
REMARK  status: ('A' for Active; 'I' for Inactive)
REMARK    1  A    between atoms: C_1  and  C_2
REMARK    2  A    between atoms: C_2  and  N_3
REMARK    3  A    between atoms: C_4  and  C_5
REMARK    4  A    between atoms: C_5  and  O_6
REMARK    5  A    between atoms: C_5  and  C_7
REMARK    6  A    between atoms: C_5  and  C_13
REMARK    7  A    between atoms: C_23  and  C_24
REMARK    8  A    between atoms: C_24  and  O_26
REMARK                            x       y       z     vdW  Elec       q    Type
REMARK                         _______ _______ _______ _____ _____    ______ ____
ROOT
ATOM      1  N   UNL     1       2.717   6.469  19.671  0.00  0.00    +0.000 N 
ATOM      2  C   UNL     1       3.546   6.157  18.596  0.00  0.00    +0.000 A 
ATOM      3  N   UNL     1       3.454   7.126  17.687  0.00  0.00    +0.000 NA
ATOM      4  C   UNL     1       2.614   8.078  18.180  0.00  0.00    +0.000 A 
ATOM      5  C   UNL     1       2.206   9.293  17.611  0.00  0.00    +0.000 A 
ATOM      6  C   UNL     1       1.314  10.117  18.318  0.00  0.00    +0.000 A 
ATOM      7  C   UNL     1       0.845   9.726  19.582  0.00  0.00    +0.000 A 
ATOM      8  C   UNL     1       1.245   8.506  20.148  0.00  0.00    +0.000 A 
ATOM      9  C   UNL     1       2.137   7.703  19.423  0.00  0.00    +0.000 A 
ENDROOT
BRANCH   1  11
ATOM     10  C   UNL     1       1.175   4.837  20.712  0.00  0.00    +0.000 C 
ATOM     11  C   UNL     1       2.421   5.701  20.868  0.00  0.00    +0.000 C 
ENDBRANCH   1  11
BRANCH   7  12
ATOM     12  C   UNL     1      -0.136  10.529  20.362  0.00  0.00    +0.000 C 
ATOM     13  O   UNL     1      -0.347  10.323  21.547  0.00  0.00    +0.000 OA
BRANCH  12  14
ATOM     14  O   UNL     1      -0.732  11.529  19.683  0.00  0.00    +0.000 OA
ATOM     15  H   UNL     1      -0.397  11.694  18.785  0.00  0.00    +0.000 HD
ENDBRANCH  12  14
ENDBRANCH   7  12
BRANCH   2  16
ATOM     16  C   UNL     1       4.458   4.900  18.408  0.00  0.00    +0.000 C 
BRANCH  16  17
ATOM     17  C   UNL     1       3.609   3.608  18.494  0.00  0.00    +0.000 A 
ATOM     18  C   UNL     1       2.368   3.542  17.831  0.00  0.00    +0.000 A 
ATOM     19  C   UNL     1       1.512   2.450  17.982  0.00  0.00    +0.000 A 
ATOM     20  C   UNL     1       1.882   1.386  18.794  0.00  0.00    +0.000 A 
ATOM     21  C   UNL     1       3.128   1.395  19.421  0.00  0.00    +0.000 A 
ATOM     22  C   UNL     1       3.989   2.486  19.261  0.00  0.00    +0.000 A 
ENDBRANCH  16  17
BRANCH  16  23
ATOM     23  C   UNL     1       5.304   4.964  17.116  0.00  0.00    +0.000 A 
ATOM     24  C   UNL     1       6.518   5.680  17.094  0.00  0.00    +0.000 A 
ATOM     25  C   UNL     1       7.226   5.876  15.904  0.00  0.00    +0.000 A 
ATOM     26  C   UNL     1       6.752   5.333  14.714  0.00  0.00    +0.000 A 
ATOM     27  C   UNL     1       5.606   4.547  14.724  0.00  0.00    +0.000 A 
ATOM     28  C   UNL     1       4.902   4.349  15.915  0.00  0.00    +0.000 A 
ENDBRANCH  16  23
BRANCH  16  29
ATOM     29  O   UNL     1       5.415   4.909  19.478  0.00  0.00    +0.000 OA
ATOM     30  H   UNL     1       4.910   5.073  20.285  0.00  0.00    +0.000 HD
ENDBRANCH  16  29
ENDBRANCH   2  16
TORSDOF 7
ENDMDL
MODEL 9
REMARK VINA RESULT:      -7.7      1.036      1.224
REMARK  Name = 
REMARK  8 active torsions:
REMARK  status: ('A' for Active; 'I' for Inactive)
REMARK    1  A    between atoms: C_1  and  C_2
REMARK    2  A    between atoms: C_2  and  N_3
REMARK    3  A    between atoms: C_4  and  C_5
REMARK    4  A    between atoms: C_5  and  O_6
REMARK    5  A    between atoms: C_5  and  C_7
REMARK    6  A    between atoms: C_5  and  C_13
REMARK    7  A    between atoms: C_23  and  C_24
REMARK    8  A    between atoms: C_24  and  O_26
REMARK                            x       y       z     vdW  Elec       q    Type
REMARK                         _______ _______ _______ _____ _____    ______ ____
ROOT
ATOM      1  N   UNL     1       2.670   6.471  19.398  0.00  0.00    +0.000 N 
ATOM      2  C   UNL     1       3.270   6.290  18.154  0.00  0.00    +0.000 A 
ATOM      3  N   UNL     1       3.057   7.376  17.412  0.00  0.00    +0.000 NA
ATOM      4  C   UNL     1       2.370   8.270  18.175  0.00  0.00    +0.000 A 
ATOM      5  C   UNL     1       1.923   9.561  17.856  0.00  0.00    +0.000 A 
ATOM      6  C   UNL     1       1.217  10.300  18.821  0.00  0.00    +0.000 A 
ATOM      7  C   UNL     1       0.972   9.750  20.089  0.00  0.00    +0.000 A 
ATOM      8  C   UNL     1       1.411   8.457  20.405  0.00  0.00    +0.000 A 
ATOM      9  C   UNL     1       2.114   7.740  19.427  0.00  0.00    +0.000 A 
ENDROOT
BRANCH   1  11
ATOM     10  C   UNL     1       1.198   4.884  20.597  0.00  0.00    +0.000 C 
ATOM     11  C   UNL     1       2.565   5.554  20.519  0.00  0.00    +0.000 C 
ENDBRANCH   1  11
BRANCH   7  12
ATOM     12  C   UNL     1       0.191  10.461  21.139  0.00  0.00    +0.000 C 
ATOM     13  O   UNL     1      -0.870  11.014  20.896  0.00  0.00    +0.000 OA
BRANCH  12  14
ATOM     14  O   UNL     1       0.711  10.405  22.382  0.00  0.00    +0.000 OA
ATOM     15  H   UNL     1       0.548   9.583  22.875  0.00  0.00    +0.000 HD
ENDBRANCH  12  14
ENDBRANCH   7  12
BRANCH   2  16
ATOM     16  C   UNL     1       4.071   5.050  17.634  0.00  0.00    +0.000 C 
BRANCH  16  17
ATOM     17  C   UNL     1       5.557   5.162  18.053  0.00  0.00    +0.000 A 
ATOM     18  C   UNL     1       6.560   4.628  17.220  0.00  0.00    +0.000 A 
ATOM     19  C   UNL     1       7.898   4.592  17.612  0.00  0.00    +0.000 A 
ATOM     20  C   UNL     1       8.273   5.103  18.848  0.00  0.00    +0.000 A 
ATOM     21  C   UNL     1       7.313   5.689  19.674  0.00  0.00    +0.000 A 
ATOM     22  C   UNL     1       5.972   5.732  19.275  0.00  0.00    +0.000 A 
ENDBRANCH  16  17
BRANCH  16  23
ATOM     23  C   UNL     1       3.436   3.707  18.062  0.00  0.00    +0.000 A 
ATOM     24  C   UNL     1       2.135   3.366  17.638  0.00  0.00    +0.000 A 
ATOM     25  C   UNL     1       1.485   2.230  18.128  0.00  0.00    +0.000 A 
ATOM     26  C   UNL     1       2.132   1.391  19.030  0.00  0.00    +0.000 A 
ATOM     27  C   UNL     1       3.447   1.655  19.394  0.00  0.00    +0.000 A 
ATOM     28  C   UNL     1       4.097   2.789  18.900  0.00  0.00    +0.000 A 
ENDBRANCH  16  23
BRANCH  16  29
ATOM     29  O   UNL     1       3.982   5.062  16.201  0.00  0.00    +0.000 OA
ATOM     30  H   UNL     1       3.050   5.204  15.992  0.00  0.00    +0.000 HD
ENDBRANCH  16  29
ENDBRANCH   2  16
TORSDOF 7
ENDMDL
