MODEL 1
REMARK VINA RESULT:      -7.7      0.000      0.000
REMARK  Name = 
REMARK  5 active torsions:
REMARK  status: ('A' for Active; 'I' for Inactive)
REMARK    1  A    between atoms: C_2  and  O_3
REMARK    2  A    between atoms: C_2  and  C_4
REMARK    3  A    between atoms: C_8  and  C_9
REMARK    4  A    between atoms: C_9  and  O_10
REMARK    5  A    between atoms: O_10  and  C_11
REMARK                            x       y       z     vdW  Elec       q    Type
REMARK                         _______ _______ _______ _____ _____    ______ ____
ROOT
ATOM      1  C   UNL     1       4.102   7.186  17.789  0.00  0.00    +0.000 C 
ENDROOT
BRANCH   1   6
ATOM      2  C   UNL     1       6.575   5.071  15.775  0.00  0.00    +0.000 A 
ATOM      3  C   UNL     1       7.386   4.557  16.795  0.00  0.00    +0.000 A 
ATOM      4  C   UNL     1       7.112   4.873  18.126  0.00  0.00    +0.000 A 
ATOM      5  C   UNL     1       6.039   5.709  18.441  0.00  0.00    +0.000 A 
ATOM      6  C   UNL     1       5.223   6.238  17.430  0.00  0.00    +0.000 A 
ATOM      7  C   UNL     1       5.516   5.927  16.092  0.00  0.00    +0.000 A 
BRANCH   2   9
ATOM      8  O   UNL     1       6.246   3.888  13.735  0.00  0.00    +0.000 OA
ATOM      9  C   UNL     1       6.829   4.768  14.343  0.00  0.00    +0.000 C 
BRANCH   9  10
ATOM     10  O   UNL     1       7.794   5.533  13.792  0.00  0.00    +0.000 OA
ATOM     11  H   UNL     1       8.439   5.047  13.246  0.00  0.00    +0.000 HD
ENDBRANCH   9  10
ENDBRANCH   2   9
ENDBRANCH   1   6
BRANCH   1  12
ATOM     12  O   UNL     1       2.841   6.583  17.501  0.00  0.00    +0.000 OA
BRANCH  12  13
ATOM     13  C   UNL     1       2.478   5.511  18.272  0.00  0.00    +0.000 A 
ATOM     14  C   UNL     1       1.984   4.420  17.545  0.00  0.00    +0.000 A 
ATOM     15  C   UNL     1       1.575   3.239  18.177  0.00  0.00    +0.000 A 
ATOM     16  C   UNL     1       1.687   3.213  19.562  0.00  0.00    +0.000 A 
ATOM     17  O   UNL     1       1.352   2.168  20.368  0.00  0.00    +0.000 OA
ATOM     18  C   UNL     1       1.608   2.556  21.644  0.00  0.00    +0.000 A 
ATOM     19  C   UNL     1       2.105   3.836  21.674  0.00  0.00    +0.000 A 
ATOM     20  C   UNL     1       2.165   4.273  20.324  0.00  0.00    +0.000 A 
ATOM     21  C   UNL     1       2.570   5.450  19.669  0.00  0.00    +0.000 A 
ENDBRANCH  12  13
ENDBRANCH   1  12
TORSDOF 5
ENDMDL
MODEL 2
REMARK VINA RESULT:      -7.6      2.032      3.630
REMARK  Name = 
REMARK  5 active torsions:
REMARK  status: ('A' for Active; 'I' for Inactive)
REMARK    1  A    between atoms: C_2  and  O_3
REMARK    2  A    between atoms: C_2  and  C_4
REMARK    3  A    between atoms: C_8  and  C_9
REMARK    4  A    between atoms: C_9  and  O_10
REMARK    5  A    between atoms: O_10  and  C_11
REMARK                            x       y       z     vdW  Elec       q    Type
REMARK                         _______ _______ _______ _____ _____    ______ ____
ROOT
ATOM      1  C   UNL     1       6.613   4.838  16.073  0.00  0.00    +0.000 C 
ENDROOT
BRANCH   1   6
ATOM      2  C   UNL     1       6.193   3.619  12.470  0.00  0.00    +0.000 A 
ATOM      3  C   UNL     1       7.153   4.393  11.808  0.00  0.00    +0.000 A 
ATOM      4  C   UNL     1       7.948   5.283  12.531  0.00  0.00    +0.000 A 
ATOM      5  C   UNL     1       7.780   5.408  13.911  0.00  0.00    +0.000 A 
ATOM      6  C   UNL     1       6.817   4.645  14.588  0.00  0.00    +0.000 A 
ATOM      7  C   UNL     1       6.011   3.764  13.849  0.00  0.00    +0.000 A 
BRANCH   2   9
ATOM      8  O   UNL     1       4.194   2.941  11.367  0.00  0.00    +0.000 OA
ATOM      9  C   UNL     1       5.319   2.662  11.743  0.00  0.00    +0.000 C 
BRANCH   9  10
ATOM     10  O   UNL     1       5.873   1.443  11.576  0.00  0.00    +0.000 OA
ATOM     11  H   UNL     1       5.738   1.051  10.695  0.00  0.00    +0.000 HD
ENDBRANCH   9  10
ENDBRANCH   2   9
ENDBRANCH   1   6
BRANCH   1  12
ATOM     12  O   UNL     1       5.519   5.725  16.304  0.00  0.00    +0.000 OA
BRANCH  12  13
ATOM     13  C   UNL     1       4.434   5.211  16.962  0.00  0.00    +0.000 A 
ATOM     14  C   UNL     1       3.683   6.161  17.666  0.00  0.00    +0.000 A 
ATOM     15  C   UNL     1       2.536   5.805  18.387  0.00  0.00    +0.000 A 
ATOM     16  C   UNL     1       2.189   4.459  18.364  0.00  0.00    +0.000 A 
ATOM     17  O   UNL     1       1.115   3.904  18.989  0.00  0.00    +0.000 OA
ATOM     18  C   UNL     1       1.144   2.574  18.718  0.00  0.00    +0.000 A 
ATOM     19  C   UNL     1       2.221   2.262  17.925  0.00  0.00    +0.000 A 
ATOM     20  C   UNL     1       2.906   3.482  17.684  0.00  0.00    +0.000 A 
ATOM     21  C   UNL     1       4.055   3.861  16.967  0.00  0.00    +0.000 A 
ENDBRANCH  12  13
ENDBRANCH   1  12
TORSDOF 5
ENDMDL
MODEL 3
REMARK VINA RESULT:      -7.5      2.119      3.324
REMARK  Name = 
REMARK  5 active torsions:
REMARK  status: ('A' for Active; 'I' for Inactive)
REMARK    1  A    between atoms: C_2  and  O_3
REMARK    2  A    between atoms: C_2  and  C_4
REMARK    3  A    between atoms: C_8  and  C_9
REMARK    4  A    between atoms: C_9  and  O_10
REMARK    5  A    between atoms: O_10  and  C_11
REMARK                            x       y       z     vdW  Elec       q    Type
REMARK                         _______ _______ _______ _____ _____    ______ ____
ROOT
ATOM      1  C   UNL     1       5.713   4.792  16.101  0.00  0.00    +0.000 C 
ENDROOT
BRANCH   1   6
ATOM      2  C   UNL     1       5.996   3.497  12.511  0.00  0.00    +0.000 A 
ATOM      3  C   UNL     1       7.115   4.203  12.056  0.00  0.00    +0.000 A 
ATOM      4  C   UNL     1       7.789   5.070  12.917  0.00  0.00    +0.000 A 
ATOM      5  C   UNL     1       7.341   5.242  14.228  0.00  0.00    +0.000 A 
ATOM      6  C   UNL     1       6.215   4.548  14.697  0.00  0.00    +0.000 A 
ATOM      7  C   UNL     1       5.535   3.689  13.818  0.00  0.00    +0.000 A 
BRANCH   2   9
ATOM      8  O   UNL     1       4.165   2.844  11.136  0.00  0.00    +0.000 OA
ATOM      9  C   UNL     1       5.242   2.566  11.631  0.00  0.00    +0.000 C 
BRANCH   9  10
ATOM     10  O   UNL     1       5.846   1.371  11.466  0.00  0.00    +0.000 OA
ATOM     11  H   UNL     1       6.656   1.247  11.993  0.00  0.00    +0.000 HD
ENDBRANCH   9  10
ENDBRANCH   2   9
ENDBRANCH   1   6
BRANCH   1  12
ATOM     12  O   UNL     1       4.319   4.500  16.180  0.00  0.00    +0.000 OA
BRANCH  12  13
ATOM     13  C   UNL     1       3.841   4.081  17.393  0.00  0.00    +0.000 A 
ATOM     14  C   UNL     1       4.835   3.689  18.299  0.00  0.00    +0.000 A 
ATOM     15  C   UNL     1       4.521   3.241  19.588  0.00  0.00    +0.000 A 
ATOM     16  C   UNL     1       3.170   3.207  19.914  0.00  0.00    +0.000 A 
ATOM     17  O   UNL     1       2.650   2.811  21.108  0.00  0.00    +0.000 OA
ATOM     18  C   UNL     1       1.300   2.924  21.008  0.00  0.00    +0.000 A 
ATOM     19  C   UNL     1       0.941   3.388  19.765  0.00  0.00    +0.000 A 
ATOM     20  C   UNL     1       2.150   3.580  19.046  0.00  0.00    +0.000 A 
ATOM     21  C   UNL     1       2.488   4.027  17.756  0.00  0.00    +0.000 A 
ENDBRANCH  12  13
ENDBRANCH   1  12
TORSDOF 5
ENDMDL
MODEL 4
REMARK VINA RESULT:      -7.5      2.212      3.147
REMARK  Name = 
REMARK  5 active torsions:
REMARK  status: ('A' for Active; 'I' for Inactive)
REMARK    1  A    between atoms: C_2  and  O_3
REMARK    2  A    between atoms: C_2  and  C_4
REMARK    3  A    between atoms: C_8  and  C_9
REMARK    4  A    between atoms: C_9  and  O_10
REMARK    5  A    between atoms: O_10  and  C_11
REMARK                            x       y       z     vdW  Elec       q    Type
REMARK                         _______ _______ _______ _____ _____    ______ ____
ROOT
ATOM      1  C   UNL     1       5.180   4.807  16.080  0.00  0.00    +0.000 C 
ENDROOT
BRANCH   1   6
ATOM      2  C   UNL     1       5.896   3.476  12.564  0.00  0.00    +0.000 A 
ATOM      3  C   UNL     1       7.086   4.147  12.257  0.00  0.00    +0.000 A 
ATOM      4  C   UNL     1       7.664   5.002  13.196  0.00  0.00    +0.000 A 
ATOM      5  C   UNL     1       7.052   5.197  14.436  0.00  0.00    +0.000 A 
ATOM      6  C   UNL     1       5.855   4.538  14.755  0.00  0.00    +0.000 A 
ATOM      7  C   UNL     1       5.273   3.692  13.797  0.00  0.00    +0.000 A 
BRANCH   2   9
ATOM      8  O   UNL     1       5.735   1.508  11.233  0.00  0.00    +0.000 OA
ATOM      9  C   UNL     1       5.239   2.560  11.596  0.00  0.00    +0.000 C 
BRANCH   9  10
ATOM     10  O   UNL     1       4.063   3.024  11.126  0.00  0.00    +0.000 OA
ATOM     11  H   UNL     1       4.119   3.490  10.272  0.00  0.00    +0.000 HD
ENDBRANCH   9  10
ENDBRANCH   2   9
ENDBRANCH   1   6
BRANCH   1  12
ATOM     12  O   UNL     1       5.037   3.590  16.811  0.00  0.00    +0.000 OA
BRANCH  12  13
ATOM     13  C   UNL     1       4.012   3.529  17.718  0.00  0.00    +0.000 A 
ATOM     14  C   UNL     1       2.770   3.933  17.211  0.00  0.00    +0.000 A 
ATOM     15  C   UNL     1       1.615   3.925  18.003  0.00  0.00    +0.000 A 
ATOM     16  C   UNL     1       1.773   3.495  19.316  0.00  0.00    +0.000 A 
ATOM     17  O   UNL     1       0.785   3.406  20.248  0.00  0.00    +0.000 OA
ATOM     18  C   UNL     1       1.360   2.953  21.391  0.00  0.00    +0.000 A 
ATOM     19  C   UNL     1       2.706   2.747  21.211  0.00  0.00    +0.000 A 
ATOM     20  C   UNL     1       2.986   3.092  19.863  0.00  0.00    +0.000 A 
ATOM     21  C   UNL     1       4.133   3.108  19.050  0.00  0.00    +0.000 A 
ENDBRANCH  12  13
ENDBRANCH   1  12
TORSDOF 5
ENDMDL
MODEL 5
REMARK VINA RESULT:      -7.4      1.979      3.255
REMARK  Name = 
REMARK  5 active torsions:
REMARK  status: ('A' for Active; 'I' for Inactive)
REMARK    1  A    between atoms: C_2  and  O_3
REMARK    2  A    between atoms: C_2  and  C_4
REMARK    3  A    between atoms: C_8  and  C_9
REMARK    4  A    between atoms: C_9  and  O_10
REMARK    5  A    between atoms: O_10  and  C_11
REMARK                            x       y       z     vdW  Elec       q    Type
REMARK                         _______ _______ _______ _____ _____    ______ ____
ROOT
ATOM      1  C   UNL     1       6.423   4.610  16.223  0.00  0.00    +0.000 C 
ENDROOT
BRANCH   1   6
ATOM      2  C   UNL     1       6.155   3.561  12.553  0.00  0.00    +0.000 A 
ATOM      3  C   UNL     1       7.127   4.379  11.965  0.00  0.00    +0.000 A 
ATOM      4  C   UNL     1       7.882   5.243  12.760  0.00  0.00    +0.000 A 
ATOM      5  C   UNL     1       7.661   5.299  14.137  0.00  0.00    +0.000 A 
ATOM      6  C   UNL     1       6.685   4.492  14.740  0.00  0.00    +0.000 A 
ATOM      7  C   UNL     1       5.920   3.637  13.930  0.00  0.00    +0.000 A 
BRANCH   2   9
ATOM      8  O   UNL     1       4.238   2.936  11.286  0.00  0.00    +0.000 OA
ATOM      9  C   UNL     1       5.322   2.629  11.749  0.00  0.00    +0.000 C 
BRANCH   9  10
ATOM     10  O   UNL     1       5.863   1.400  11.616  0.00  0.00    +0.000 OA
ATOM     11  H   UNL     1       6.816   1.350  11.809  0.00  0.00    +0.000 HD
ENDBRANCH   9  10
ENDBRANCH   2   9
ENDBRANCH   1   6
BRANCH   1  12
ATOM     12  O   UNL     1       5.327   5.494  16.457  0.00  0.00    +0.000 OA
BRANCH  12  13
ATOM     13  C   UNL     1       4.309   5.022  17.243  0.00  0.00    +0.000 A 
ATOM     14  C   UNL     1       3.773   3.800  16.819  0.00  0.00    +0.000 A 
ATOM     15  C   UNL     1       2.731   3.173  17.513  0.00  0.00    +0.000 A 
ATOM     16  C   UNL     1       2.261   3.833  18.643  0.00  0.00    +0.000 A 
ATOM     17  O   UNL     1       1.263   3.398  19.461  0.00  0.00    +0.000 OA
ATOM     18  C   UNL     1       1.115   4.333  20.434  0.00  0.00    +0.000 A 
ATOM     19  C   UNL     1       2.004   5.366  20.257  0.00  0.00    +0.000 A 
ATOM     20  C   UNL     1       2.758   5.049  19.097  0.00  0.00    +0.000 A 
ATOM     21  C   UNL     1       3.805   5.661  18.385  0.00  0.00    +0.000 A 
ENDBRANCH  12  13
ENDBRANCH   1  12
TORSDOF 5
ENDMDL
MODEL 6
REMARK VINA RESULT:      -7.3      2.006      2.586
REMARK  Name = 
REMARK  5 active torsions:
REMARK  status: ('A' for Active; 'I' for Inactive)
REMARK    1  A    between atoms: C_2  and  O_3
REMARK    2  A    between atoms: C_2  and  C_4
REMARK    3  A    between atoms: C_8  and  C_9
REMARK    4  A    between atoms: C_9  and  O_10
REMARK    5  A    between atoms: O_10  and  C_11
REMARK                            x       y       z     vdW  Elec       q    Type
REMARK                         _______ _______ _______ _____ _____    ______ ____
ROOT
ATOM      1  C   UNL     1       3.833   6.885  16.714  0.00  0.00    +0.000 C 
ENDROOT
BRANCH   1   6
ATOM      2  C   UNL     1       7.131   5.591  18.160  0.00  0.00    +0.000 A 
ATOM      3  C   UNL     1       7.432   4.557  17.266  0.00  0.00    +0.000 A 
ATOM      4  C   UNL     1       6.584   4.302  16.187  0.00  0.00    +0.000 A 
ATOM      5  C   UNL     1       5.433   5.070  16.005  0.00  0.00    +0.000 A 
ATOM      6  C   UNL     1       5.114   6.104  16.897  0.00  0.00    +0.000 A 
ATOM      7  C   UNL     1       5.964   6.343  17.988  0.00  0.00    +0.000 A 
BRANCH   2   9
ATOM      8  O   UNL     1       8.068   5.184  20.311  0.00  0.00    +0.000 OA
ATOM      9  C   UNL     1       7.999   5.898  19.326  0.00  0.00    +0.000 C 
BRANCH   9  10
ATOM     10  O   UNL     1       8.672   7.062  19.208  0.00  0.00    +0.000 OA
ATOM     11  H   UNL     1       8.457   7.728  19.885  0.00  0.00    +0.000 HD
ENDBRANCH   9  10
ENDBRANCH   2   9
ENDBRANCH   1   6
BRANCH   1  12
ATOM     12  O   UNL     1       3.181   7.057  17.972  0.00  0.00    +0.000 OA
BRANCH  12  13
ATOM     13  C   UNL     1       2.684   5.930  18.570  0.00  0.00    +0.000 A 
ATOM     14  C   UNL     1       1.960   5.093  17.711  0.00  0.00    +0.000 A 
ATOM     15  C   UNL     1       1.390   3.894  18.158  0.00  0.00    +0.000 A 
ATOM     16  C   UNL     1       1.583   3.586  19.500  0.00  0.00    +0.000 A 
ATOM     17  O   UNL     1       1.120   2.474  20.135  0.00  0.00    +0.000 OA
ATOM     18  C   UNL     1       1.520   2.564  21.430  0.00  0.00    +0.000 A 
ATOM     19  C   UNL     1       2.236   3.718  21.640  0.00  0.00    +0.000 A 
ATOM     20  C   UNL     1       2.287   4.389  20.390  0.00  0.00    +0.000 A 
ATOM     21  C   UNL     1       2.851   5.588  19.920  0.00  0.00    +0.000 A 
ENDBRANCH  12  13
ENDBRANCH   1  12
TORSDOF 5
ENDMDL
MODEL 7
REMARK VINA RESULT:      -7.3      1.201      6.752
REMARK  Name = 
REMARK  5 active torsions:
REMARK  status: ('A' for Active; 'I' for Inactive)
REMARK    1  A    between atoms: C_2  and  O_3
REMARK    2  A    between atoms: C_2  and  C_4
REMARK    3  A    between atoms: C_8  and  C_9
REMARK    4  A    between atoms: C_9  and  O_10
REMARK    5  A    between atoms: O_10  and  C_11
REMARK                            x       y       z     vdW  Elec       q    Type
REMARK                         _______ _______ _______ _____ _____    ______ ____
ROOT
ATOM      1  C   UNL     1       2.757   6.394  18.498  0.00  0.00    +0.000 C 
ENDROOT
BRANCH   1   6
ATOM      2  C   UNL     1       1.816   3.172  20.334  0.00  0.00    +0.000 A 
ATOM      3  C   UNL     1       1.080   2.503  19.348  0.00  0.00    +0.000 A 
ATOM      4  C   UNL     1       0.917   3.083  18.089  0.00  0.00    +0.000 A 
ATOM      5  C   UNL     1       1.477   4.332  17.816  0.00  0.00    +0.000 A 
ATOM      6  C   UNL     1       2.209   5.018  18.797  0.00  0.00    +0.000 A 
ATOM      7  C   UNL     1       2.355   4.434  20.065  0.00  0.00    +0.000 A 
BRANCH   2   9
ATOM      8  O   UNL     1       3.091   2.200  22.095  0.00  0.00    +0.000 OA
ATOM      9  C   UNL     1       2.013   2.599  21.691  0.00  0.00    +0.000 C 
BRANCH   9  10
ATOM     10  O   UNL     1       0.877   2.524  22.416  0.00  0.00    +0.000 OA
ATOM     11  H   UNL     1       0.123   3.017  22.045  0.00  0.00    +0.000 HD
ENDBRANCH   9  10
ENDBRANCH   2   9
ENDBRANCH   1   6
BRANCH   1  12
ATOM     12  O   UNL     1       4.159   6.430  18.765  0.00  0.00    +0.000 OA
BRANCH  12  13
ATOM     13  C   UNL     1       4.994   6.092  17.734  0.00  0.00    +0.000 A 
ATOM     14  C   UNL     1       6.320   6.510  17.906  0.00  0.00    +0.000 A 
ATOM     15  C   UNL     1       7.307   6.239  16.950  0.00  0.00    +0.000 A 
ATOM     16  C   UNL     1       6.895   5.535  15.824  0.00  0.00    +0.000 A 
ATOM     17  O   UNL     1       7.689   5.166  14.782  0.00  0.00    +0.000 OA
ATOM     18  C   UNL     1       6.898   4.507  13.896  0.00  0.00    +0.000 A 
ATOM     19  C   UNL     1       5.603   4.445  14.353  0.00  0.00    +0.000 A 
ATOM     20  C   UNL     1       5.590   5.107  15.608  0.00  0.00    +0.000 A 
ATOM     21  C   UNL     1       4.615   5.389  16.581  0.00  0.00    +0.000 A 
ENDBRANCH  12  13
ENDBRANCH   1  12
TORSDOF 5
ENDMDL
MODEL 8
REMARK VINA RESULT:      -7.3      2.624      6.958
REMARK  Name = 
REMARK  5 active torsions:
REMARK  status: ('A' for Active; 'I' for Inactive)
REMARK    1  A    between atoms: C_2  and  O_3
REMARK    2  A    between atoms: C_2  and  C_4
REMARK    3  A    between atoms: C_8  and  C_9
REMARK    4  A    between atoms: C_9  and  O_10
REMARK    5  A    between atoms: O_10  and  C_11
REMARK                            x       y       z     vdW  Elec       q    Type
REMARK                         _______ _______ _______ _____ _____    ______ ____
ROOT
ATOM      1  C   UNL     1       2.896   4.752  19.322  0.00  0.00    +0.000 C 
ENDROOT
BRANCH   1   6
ATOM      2  C   UNL     1       1.500   8.134  20.444  0.00  0.00    +0.000 A 
ATOM      3  C   UNL     1       1.604   8.877  19.262  0.00  0.00    +0.000 A 
ATOM      4  C   UNL     1       2.097   8.274  18.104  0.00  0.00    +0.000 A 
ATOM      5  C   UNL     1       2.496   6.936  18.126  0.00  0.00    +0.000 A 
ATOM      6  C   UNL     1       2.405   6.182  19.306  0.00  0.00    +0.000 A 
ATOM      7  C   UNL     1       1.923   6.801  20.469  0.00  0.00    +0.000 A 
BRANCH   2   9
ATOM      8  O   UNL     1      -0.200   8.881  21.935  0.00  0.00    +0.000 OA
ATOM      9  C   UNL     1       0.987   8.732  21.704  0.00  0.00    +0.000 C 
BRANCH   9  10
ATOM     10  O   UNL     1       1.960   9.132  22.548  0.00  0.00    +0.000 OA
ATOM     11  H   UNL     1       2.748   9.505  22.114  0.00  0.00    +0.000 HD
ENDBRANCH   9  10
ENDBRANCH   2   9
ENDBRANCH   1   6
BRANCH   1  12
ATOM     12  O   UNL     1       4.309   4.723  19.513  0.00  0.00    +0.000 OA
BRANCH  12  13
ATOM     13  C   UNL     1       5.088   4.857  18.394  0.00  0.00    +0.000 A 
ATOM     14  C   UNL     1       6.295   5.533  18.610  0.00  0.00    +0.000 A 
ATOM     15  C   UNL     1       7.213   5.750  17.575  0.00  0.00    +0.000 A 
ATOM     16  C   UNL     1       6.856   5.257  16.325  0.00  0.00    +0.000 A 
ATOM     17  O   UNL     1       7.601   5.354  15.189  0.00  0.00    +0.000 OA
ATOM     18  C   UNL     1       6.892   4.752  14.200  0.00  0.00    +0.000 A 
ATOM     19  C   UNL     1       5.700   4.267  14.680  0.00  0.00    +0.000 A 
ATOM     20  C   UNL     1       5.668   4.585  16.063  0.00  0.00    +0.000 A 
ATOM     21  C   UNL     1       4.760   4.379  17.117  0.00  0.00    +0.000 A 
ENDBRANCH  12  13
ENDBRANCH   1  12
TORSDOF 5
ENDMDL
MODEL 9
REMARK VINA RESULT:      -7.2      2.155      3.604
REMARK  Name = 
REMARK  5 active torsions:
REMARK  status: ('A' for Active; 'I' for Inactive)
REMARK    1  A    between atoms: C_2  and  O_3
REMARK    2  A    between atoms: C_2  and  C_4
REMARK    3  A    between atoms: C_8  and  C_9
REMARK    4  A    between atoms: C_9  and  O_10
REMARK    5  A    between atoms: O_10  and  C_11
REMARK                            x       y       z     vdW  Elec       q    Type
REMARK                         _______ _______ _______ _____ _____    ______ ____
ROOT
ATOM      1  C   UNL     1       6.119   4.761  16.022  0.00  0.00    +0.000 C 
ENDROOT
BRANCH   1   6
ATOM      2  C   UNL     1       6.114   3.498  12.410  0.00  0.00    +0.000 A 
ATOM      3  C   UNL     1       7.142   4.268  11.852  0.00  0.00    +0.000 A 
ATOM      4  C   UNL     1       7.848   5.168  12.651  0.00  0.00    +0.000 A 
ATOM      5  C   UNL     1       7.524   5.309  14.001  0.00  0.00    +0.000 A 
ATOM      6  C   UNL     1       6.491   4.551  14.572  0.00  0.00    +0.000 A 
ATOM      7  C   UNL     1       5.776   3.659  13.757  0.00  0.00    +0.000 A 
BRANCH   2   9
ATOM      8  O   UNL     1       5.756   1.438  11.271  0.00  0.00    +0.000 OA
ATOM      9  C   UNL     1       5.330   2.530  11.600  0.00  0.00    +0.000 C 
BRANCH   9  10
ATOM     10  O   UNL     1       4.118   2.993  11.229  0.00  0.00    +0.000 OA
ATOM     11  H   UNL     1       4.138   3.808  10.695  0.00  0.00    +0.000 HD
ENDBRANCH   9  10
ENDBRANCH   2   9
ENDBRANCH   1   6
BRANCH   1  12
ATOM     12  O   UNL     1       5.265   3.706  16.465  0.00  0.00    +0.000 OA
BRANCH  12  13
ATOM     13  C   UNL     1       4.419   3.991  17.504  0.00  0.00    +0.000 A 
ATOM     14  C   UNL     1       4.881   4.994  18.365  0.00  0.00    +0.000 A 
ATOM     15  C   UNL     1       4.135   5.413  19.474  0.00  0.00    +0.000 A 
ATOM     16  C   UNL     1       2.915   4.776  19.670  0.00  0.00    +0.000 A 
ATOM     17  O   UNL     1       2.037   5.032  20.678  0.00  0.00    +0.000 OA
ATOM     18  C   UNL     1       0.983   4.193  20.506  0.00  0.00    +0.000 A 
ATOM     19  C   UNL     1       1.168   3.399  19.401  0.00  0.00    +0.000 A 
ATOM     20  C   UNL     1       2.420   3.772  18.846  0.00  0.00    +0.000 A 
ATOM     21  C   UNL     1       3.185   3.367  17.738  0.00  0.00    +0.000 A 
ENDBRANCH  12  13
ENDBRANCH   1  12
TORSDOF 5
ENDMDL
