MODEL 1
REMARK VINA RESULT:      -7.7      0.000      0.000
REMARK  Name = 
REMARK  13 active torsions:
REMARK  status: ('A' for Active; 'I' for Inactive)
REMARK    1  A    between atoms: C_1  and  C_2
REMARK    2  A    between atoms: C_2  and  O_3
REMARK    3  A    between atoms: O_3  and  C_4
REMARK    4  A    between atoms: C_7  and  C_8
REMARK    5  A    between atoms: C_8  and  C_9
REMARK    6  A    between atoms: C_9  and  N_10
REMARK    7  A    between atoms: C_11  and  C_13
REMARK    8  A    between atoms: C_13  and  C_14
REMARK    9  A    between atoms: C_14  and  S_15
REMARK   10  A    between atoms: S_15  and  C_18
REMARK   11  A    between atoms: C_26  and  O_27
REMARK   12  A    between atoms: O_27  and  C_28
REMARK   13  A    between atoms: C_28  and  C_29
REMARK                            x       y       z     vdW  Elec       q    Type
REMARK                         _______ _______ _______ _____ _____    ______ ____
ROOT
ATOM      1  N   UNL     1       7.829   6.831  18.196  0.00  0.00    +0.000 N 
ATOM      2  C   UNL     1       7.481   5.710  18.913  0.00  0.00    +0.000 C 
ATOM      3  O   UNL     1       7.665   5.617  20.124  0.00  0.00    +0.000 OA
ATOM      4  H   UNL     1       7.692   6.878  17.197  0.00  0.00    +0.000 HD
ENDROOT
BRANCH   1   5
ATOM      5  C   UNL     1       8.490   7.978  18.798  0.00  0.00    +0.000 C 
BRANCH   5   6
ATOM      6  C   UNL     1       8.349   9.272  17.986  0.00  0.00    +0.000 C 
BRANCH   6  10
ATOM      7  C   UNL     1      10.307  12.669  19.861  0.00  0.00    +0.000 A 
ATOM      8  C   UNL     1       9.956  11.523  20.595  0.00  0.00    +0.000 A 
ATOM      9  C   UNL     1       9.320  10.437  19.991  0.00  0.00    +0.000 A 
ATOM     10  C   UNL     1       9.005  10.470  18.637  0.00  0.00    +0.000 A 
ATOM     11  C   UNL     1       9.301  11.631  17.909  0.00  0.00    +0.000 A 
ATOM     12  C   UNL     1       9.915  12.746  18.514  0.00  0.00    +0.000 A 
BRANCH   7  13
ATOM     13  O   UNL     1      11.008  13.708  20.430  0.00  0.00    +0.000 OA
BRANCH  13  15
ATOM     14  C   UNL     1      10.091  15.004  22.260  0.00  0.00    +0.000 C 
ATOM     15  C   UNL     1      10.229  14.867  20.755  0.00  0.00    +0.000 C 
ENDBRANCH  13  15
ENDBRANCH   7  13
BRANCH  12  16
ATOM     16  O   UNL     1      10.085  13.790  17.642  0.00  0.00    +0.000 OA
BRANCH  16  17
ATOM     17  C   UNL     1      11.054  13.642  16.605  0.00  0.00    +0.000 C 
ATOM     18  C   UNL     1      12.331  13.082  17.218  0.00  0.00    +0.000 C 
ENDBRANCH  16  17
ENDBRANCH  12  16
ENDBRANCH   6  10
ENDBRANCH   5   6
ENDBRANCH   1   5
BRANCH   2  19
ATOM     19  C   UNL     1       6.785   4.609  18.135  0.00  0.00    +0.000 C 
BRANCH  19  20
ATOM     20  C   UNL     1       7.004   4.711  16.638  0.00  0.00    +0.000 C 
BRANCH  20  21
ATOM     21  S   UNL     1       5.596   5.400  15.800  0.00  0.00    +0.000 S 
ATOM     22  O   UNL     1       5.706   6.844  15.822  0.00  0.00    +0.000 OA
ATOM     23  O   UNL     1       5.405   4.673  14.560  0.00  0.00    +0.000 OA
BRANCH  21  24
ATOM     24  C   UNL     1       4.263   4.950  16.896  0.00  0.00    +0.000 A 
ATOM     25  C   UNL     1       3.721   5.922  17.744  0.00  0.00    +0.000 A 
ATOM     26  C   UNL     1       2.689   5.574  18.615  0.00  0.00    +0.000 A 
ATOM     27  C   UNL     1       2.199   4.264  18.623  0.00  0.00    +0.000 A 
ATOM     28 CL   UNL     1       0.929   3.839  19.703  0.00  0.00    +0.000 Cl
ATOM     29  C   UNL     1       2.734   3.301  17.768  0.00  0.00    +0.000 A 
ATOM     30  C   UNL     1       3.766   3.643  16.891  0.00  0.00    +0.000 A 
ENDBRANCH  21  24
ENDBRANCH  20  21
ENDBRANCH  19  20
ENDBRANCH   2  19
TORSDOF 11
ENDMDL
MODEL 2
REMARK VINA RESULT:      -7.6      1.161      1.803
REMARK  Name = 
REMARK  13 active torsions:
REMARK  status: ('A' for Active; 'I' for Inactive)
REMARK    1  A    between atoms: C_1  and  C_2
REMARK    2  A    between atoms: C_2  and  O_3
REMARK    3  A    between atoms: O_3  and  C_4
REMARK    4  A    between atoms: C_7  and  C_8
REMARK    5  A    between atoms: C_8  and  C_9
REMARK    6  A    between atoms: C_9  and  N_10
REMARK    7  A    between atoms: C_11  and  C_13
REMARK    8  A    between atoms: C_13  and  C_14
REMARK    9  A    between atoms: C_14  and  S_15
REMARK   10  A    between atoms: S_15  and  C_18
REMARK   11  A    between atoms: C_26  and  O_27
REMARK   12  A    between atoms: O_27  and  C_28
REMARK   13  A    between atoms: C_28  and  C_29
REMARK                            x       y       z     vdW  Elec       q    Type
REMARK                         _______ _______ _______ _____ _____    ______ ____
ROOT
ATOM      1  N   UNL     1       7.595   6.770  18.075  0.00  0.00    +0.000 N 
ATOM      2  C   UNL     1       7.648   5.520  18.648  0.00  0.00    +0.000 C 
ATOM      3  O   UNL     1       8.287   5.289  19.671  0.00  0.00    +0.000 OA
ATOM      4  H   UNL     1       7.084   6.934  17.221  0.00  0.00    +0.000 HD
ENDROOT
BRANCH   1   5
ATOM      5  C   UNL     1       8.329   7.910  18.602  0.00  0.00    +0.000 C 
BRANCH   5   6
ATOM      6  C   UNL     1       8.158   9.192  17.777  0.00  0.00    +0.000 C 
BRANCH   6  10
ATOM      7  C   UNL     1      10.011  12.673  19.605  0.00  0.00    +0.000 A 
ATOM      8  C   UNL     1      10.118  11.395  20.178  0.00  0.00    +0.000 A 
ATOM      9  C   UNL     1       9.515  10.280  19.592  0.00  0.00    +0.000 A 
ATOM     10  C   UNL     1       8.776  10.413  18.422  0.00  0.00    +0.000 A 
ATOM     11  C   UNL     1       8.617  11.693  17.873  0.00  0.00    +0.000 A 
ATOM     12  C   UNL     1       9.194  12.831  18.472  0.00  0.00    +0.000 A 
BRANCH   7  13
ATOM     13  O   UNL     1      10.670  13.761  20.130  0.00  0.00    +0.000 OA
BRANCH  13  15
ATOM     14  C   UNL     1      12.325  15.515  19.899  0.00  0.00    +0.000 C 
ATOM     15  C   UNL     1      11.868  14.143  19.440  0.00  0.00    +0.000 C 
ENDBRANCH  13  15
ENDBRANCH   7  13
BRANCH  12  16
ATOM     16  O   UNL     1       8.892  13.989  17.802  0.00  0.00    +0.000 OA
BRANCH  16  17
ATOM     17  C   UNL     1       7.956  14.882  18.405  0.00  0.00    +0.000 C 
ATOM     18  C   UNL     1       6.606  14.692  17.727  0.00  0.00    +0.000 C 
ENDBRANCH  16  17
ENDBRANCH  12  16
ENDBRANCH   6  10
ENDBRANCH   5   6
ENDBRANCH   1   5
BRANCH   2  19
ATOM     19  C   UNL     1       6.810   4.445  17.982  0.00  0.00    +0.000 C 
BRANCH  19  20
ATOM     20  C   UNL     1       6.921   4.457  16.470  0.00  0.00    +0.000 C 
BRANCH  20  21
ATOM     21  S   UNL     1       5.508   5.212  15.700  0.00  0.00    +0.000 S 
ATOM     22  O   UNL     1       5.713   6.646  15.663  0.00  0.00    +0.000 OA
ATOM     23  O   UNL     1       5.188   4.460  14.502  0.00  0.00    +0.000 OA
BRANCH  21  24
ATOM     24  C   UNL     1       4.224   4.888  16.895  0.00  0.00    +0.000 A 
ATOM     25  C   UNL     1       3.757   3.580  17.055  0.00  0.00    +0.000 A 
ATOM     26  C   UNL     1       2.742   3.322  17.977  0.00  0.00    +0.000 A 
ATOM     27  C   UNL     1       2.214   4.368  18.738  0.00  0.00    +0.000 A 
ATOM     28 CL   UNL     1       0.958   4.045  19.870  0.00  0.00    +0.000 Cl
ATOM     29  C   UNL     1       2.690   5.670  18.585  0.00  0.00    +0.000 A 
ATOM     30  C   UNL     1       3.708   5.935  17.665  0.00  0.00    +0.000 A 
ENDBRANCH  21  24
ENDBRANCH  20  21
ENDBRANCH  19  20
ENDBRANCH   2  19
TORSDOF 11
ENDMDL
MODEL 3
REMARK VINA RESULT:      -7.1      2.048      3.151
REMARK  Name = 
REMARK  13 active torsions:
REMARK  status: ('A' for Active; 'I' for Inactive)
REMARK    1  A    between atoms: C_1  and  C_2
REMARK    2  A    between atoms: C_2  and  O_3
REMARK    3  A    between atoms: O_3  and  C_4
REMARK    4  A    between atoms: C_7  and  C_8
REMARK    5  A    between atoms: C_8  and  C_9
REMARK    6  A    between atoms: C_9  and  N_10
REMARK    7  A    between atoms: C_11  and  C_13
REMARK    8  A    between atoms: C_13  and  C_14
REMARK    9  A    between atoms: C_14  and  S_15
REMARK   10  A    between atoms: S_15  and  C_18
REMARK   11  A    between atoms: C_26  and  O_27
REMARK   12  A    between atoms: O_27  and  C_28
REMARK   13  A    between atoms: C_28  and  C_29
REMARK                            x       y       z     vdW  Elec       q    Type
REMARK                         _______ _______ _______ _____ _____    ______ ____
ROOT
ATOM      1  N   UNL     1       7.781   6.907  18.089  0.00  0.00    +0.000 N 
ATOM      2  C   UNL     1       7.715   5.637  18.613  0.00  0.00    +0.000 C 
ATOM      3  O   UNL     1       8.212   5.341  19.696  0.00  0.00    +0.000 OA
ATOM      4  H   UNL     1       7.387   7.123  17.186  0.00  0.00    +0.000 HD
ENDROOT
BRANCH   1   5
ATOM      5  C   UNL     1       8.487   7.994  18.747  0.00  0.00    +0.000 C 
BRANCH   5   6
ATOM      6  C   UNL     1       8.326   9.351  18.050  0.00  0.00    +0.000 C 
BRANCH   6  10
ATOM      7  C   UNL     1      10.941  12.484  19.544  0.00  0.00    +0.000 A 
ATOM      8  C   UNL     1      10.980  12.069  18.202  0.00  0.00    +0.000 A 
ATOM      9  C   UNL     1      10.144  11.057  17.728  0.00  0.00    +0.000 A 
ATOM     10  C   UNL     1       9.252  10.421  18.584  0.00  0.00    +0.000 A 
ATOM     11  C   UNL     1       9.245  10.790  19.937  0.00  0.00    +0.000 A 
ATOM     12  C   UNL     1      10.106  11.789  20.435  0.00  0.00    +0.000 A 
BRANCH   7  13
ATOM     13  O   UNL     1      11.701  13.537  20.000  0.00  0.00    +0.000 OA
BRANCH  13  15
ATOM     14  C   UNL     1      10.574  15.597  19.407  0.00  0.00    +0.000 C 
ATOM     15  C   UNL     1      11.750  14.678  19.134  0.00  0.00    +0.000 C 
ENDBRANCH  13  15
ENDBRANCH   7  13
BRANCH  12  16
ATOM     16  O   UNL     1       9.969  11.975  21.787  0.00  0.00    +0.000 OA
BRANCH  16  17
ATOM     17  C   UNL     1       8.692  12.380  22.278  0.00  0.00    +0.000 C 
ATOM     18  C   UNL     1       8.523  13.869  22.005  0.00  0.00    +0.000 C 
ENDBRANCH  16  17
ENDBRANCH  12  16
ENDBRANCH   6  10
ENDBRANCH   5   6
ENDBRANCH   1   5
BRANCH   2  19
ATOM     19  C   UNL     1       6.926   4.622  17.806  0.00  0.00    +0.000 C 
BRANCH  19  20
ATOM     20  C   UNL     1       5.617   5.175  17.274  0.00  0.00    +0.000 C 
BRANCH  20  21
ATOM     21  S   UNL     1       4.209   4.485  18.111  0.00  0.00    +0.000 S 
ATOM     22  O   UNL     1       3.407   3.761  17.146  0.00  0.00    +0.000 OA
ATOM     23  O   UNL     1       4.669   3.860  19.335  0.00  0.00    +0.000 OA
BRANCH  21  24
ATOM     24  C   UNL     1       3.301   5.952  18.566  0.00  0.00    +0.000 A 
ATOM     25  C   UNL     1       3.279   7.039  17.687  0.00  0.00    +0.000 A 
ATOM     26  C   UNL     1       2.584   8.195  18.043  0.00  0.00    +0.000 A 
ATOM     27  C   UNL     1       1.908   8.249  19.265  0.00  0.00    +0.000 A 
ATOM     28 CL   UNL     1       1.057   9.680  19.702  0.00  0.00    +0.000 Cl
ATOM     29  C   UNL     1       1.922   7.158  20.135  0.00  0.00    +0.000 A 
ATOM     30  C   UNL     1       2.614   5.997  19.784  0.00  0.00    +0.000 A 
ENDBRANCH  21  24
ENDBRANCH  20  21
ENDBRANCH  19  20
ENDBRANCH   2  19
TORSDOF 11
ENDMDL
MODEL 4
REMARK VINA RESULT:      -7.1      5.639      8.971
REMARK  Name = 
REMARK  13 active torsions:
REMARK  status: ('A' for Active; 'I' for Inactive)
REMARK    1  A    between atoms: C_1  and  C_2
REMARK    2  A    between atoms: C_2  and  O_3
REMARK    3  A    between atoms: O_3  and  C_4
REMARK    4  A    between atoms: C_7  and  C_8
REMARK    5  A    between atoms: C_8  and  C_9
REMARK    6  A    between atoms: C_9  and  N_10
REMARK    7  A    between atoms: C_11  and  C_13
REMARK    8  A    between atoms: C_13  and  C_14
REMARK    9  A    between atoms: C_14  and  S_15
REMARK   10  A    between atoms: S_15  and  C_18
REMARK   11  A    between atoms: C_26  and  O_27
REMARK   12  A    between atoms: O_27  and  C_28
REMARK   13  A    between atoms: C_28  and  C_29
REMARK                            x       y       z     vdW  Elec       q    Type
REMARK                         _______ _______ _______ _____ _____    ______ ____
ROOT
ATOM      1  N   UNL     1       1.770   8.346  20.412  0.00  0.00    +0.000 N 
ATOM      2  C   UNL     1       0.763   8.540  21.328  0.00  0.00    +0.000 C 
ATOM      3  O   UNL     1       0.100   7.614  21.788  0.00  0.00    +0.000 OA
ATOM      4  H   UNL     1       2.287   9.123  20.028  0.00  0.00    +0.000 HD
ENDROOT
BRANCH   1   5
ATOM      5  C   UNL     1       2.103   7.037  19.872  0.00  0.00    +0.000 C 
BRANCH   5   6
ATOM      6  C   UNL     1       2.113   6.983  18.340  0.00  0.00    +0.000 C 
BRANCH   6  10
ATOM      7  C   UNL     1       5.441   4.773  16.627  0.00  0.00    +0.000 A 
ATOM      8  C   UNL     1       4.260   4.129  17.033  0.00  0.00    +0.000 A 
ATOM      9  C   UNL     1       3.196   4.842  17.590  0.00  0.00    +0.000 A 
ATOM     10  C   UNL     1       3.287   6.217  17.769  0.00  0.00    +0.000 A 
ATOM     11  C   UNL     1       4.482   6.860  17.418  0.00  0.00    +0.000 A 
ATOM     12  C   UNL     1       5.575   6.148  16.884  0.00  0.00    +0.000 A 
BRANCH   7  13
ATOM     13  O   UNL     1       6.459   4.091  16.001  0.00  0.00    +0.000 OA
BRANCH  13  15
ATOM     14  C   UNL     1       7.167   4.885  13.825  0.00  0.00    +0.000 C 
ATOM     15  C   UNL     1       6.296   3.905  14.589  0.00  0.00    +0.000 C 
ENDBRANCH  13  15
ENDBRANCH   7  13
BRANCH  12  16
ATOM     16  O   UNL     1       6.659   6.952  16.641  0.00  0.00    +0.000 OA
BRANCH  16  17
ATOM     17  C   UNL     1       7.593   7.151  17.702  0.00  0.00    +0.000 C 
ATOM     18  C   UNL     1       7.966   8.626  17.742  0.00  0.00    +0.000 C 
ENDBRANCH  16  17
ENDBRANCH  12  16
ENDBRANCH   6  10
ENDBRANCH   5   6
ENDBRANCH   1   5
BRANCH   2  19
ATOM     19  C   UNL     1       0.556   9.967  21.801  0.00  0.00    +0.000 C 
BRANCH  19  20
ATOM     20  C   UNL     1       0.838  10.996  20.723  0.00  0.00    +0.000 C 
BRANCH  20  21
ATOM     21  S   UNL     1      -0.538  12.090  20.463  0.00  0.00    +0.000 S 
ATOM     22  O   UNL     1      -1.483  11.909  21.546  0.00  0.00    +0.000 OA
ATOM     23  O   UNL     1      -0.020  13.399  20.119  0.00  0.00    +0.000 OA
BRANCH  21  24
ATOM     24  C   UNL     1      -1.277  11.402  18.991  0.00  0.00    +0.000 A 
ATOM     25  C   UNL     1      -2.420  12.005  18.458  0.00  0.00    +0.000 A 
ATOM     26  C   UNL     1      -3.012  11.464  17.317  0.00  0.00    +0.000 A 
ATOM     27  C   UNL     1      -2.451  10.335  16.713  0.00  0.00    +0.000 A 
ATOM     28 CL   UNL     1      -3.189   9.668  15.308  0.00  0.00    +0.000 Cl
ATOM     29  C   UNL     1      -1.304   9.743  17.240  0.00  0.00    +0.000 A 
ATOM     30  C   UNL     1      -0.704  10.281  18.382  0.00  0.00    +0.000 A 
ENDBRANCH  21  24
ENDBRANCH  20  21
ENDBRANCH  19  20
ENDBRANCH   2  19
TORSDOF 11
ENDMDL
MODEL 5
REMARK VINA RESULT:      -7.0      5.324      8.603
REMARK  Name = 
REMARK  13 active torsions:
REMARK  status: ('A' for Active; 'I' for Inactive)
REMARK    1  A    between atoms: C_1  and  C_2
REMARK    2  A    between atoms: C_2  and  O_3
REMARK    3  A    between atoms: O_3  and  C_4
REMARK    4  A    between atoms: C_7  and  C_8
REMARK    5  A    between atoms: C_8  and  C_9
REMARK    6  A    between atoms: C_9  and  N_10
REMARK    7  A    between atoms: C_11  and  C_13
REMARK    8  A    between atoms: C_13  and  C_14
REMARK    9  A    between atoms: C_14  and  S_15
REMARK   10  A    between atoms: S_15  and  C_18
REMARK   11  A    between atoms: C_26  and  O_27
REMARK   12  A    between atoms: O_27  and  C_28
REMARK   13  A    between atoms: C_28  and  C_29
REMARK                            x       y       z     vdW  Elec       q    Type
REMARK                         _______ _______ _______ _____ _____    ______ ____
ROOT
ATOM      1  N   UNL     1       2.025   6.388  20.452  0.00  0.00    +0.000 N 
ATOM      2  C   UNL     1       1.951   7.754  20.312  0.00  0.00    +0.000 C 
ATOM      3  O   UNL     1       2.159   8.321  19.242  0.00  0.00    +0.000 OA
ATOM      4  H   UNL     1       1.875   5.943  21.345  0.00  0.00    +0.000 HD
ENDROOT
BRANCH   1   5
ATOM      5  C   UNL     1       2.404   5.503  19.361  0.00  0.00    +0.000 C 
BRANCH   5   6
ATOM      6  C   UNL     1       3.817   4.923  19.495  0.00  0.00    +0.000 C 
BRANCH   6  10
ATOM      7  C   UNL     1       6.178   5.440  15.883  0.00  0.00    +0.000 A 
ATOM      8  C   UNL     1       5.414   4.283  16.104  0.00  0.00    +0.000 A 
ATOM      9  C   UNL     1       4.662   4.117  17.269  0.00  0.00    +0.000 A 
ATOM     10  C   UNL     1       4.664   5.098  18.254  0.00  0.00    +0.000 A 
ATOM     11  C   UNL     1       5.468   6.232  18.067  0.00  0.00    +0.000 A 
ATOM     12  C   UNL     1       6.254   6.397  16.910  0.00  0.00    +0.000 A 
BRANCH   7  13
ATOM     13  O   UNL     1       6.854   5.648  14.703  0.00  0.00    +0.000 OA
BRANCH  13  15
ATOM     14  C   UNL     1       7.578   4.910  12.512  0.00  0.00    +0.000 C 
ATOM     15  C   UNL     1       6.742   4.594  13.738  0.00  0.00    +0.000 C 
ENDBRANCH  13  15
ENDBRANCH   7  13
BRANCH  12  16
ATOM     16  O   UNL     1       6.993   7.553  16.936  0.00  0.00    +0.000 OA
BRANCH  16  17
ATOM     17  C   UNL     1       7.735   7.843  18.120  0.00  0.00    +0.000 C 
ATOM     18  C   UNL     1       8.513   9.133  17.894  0.00  0.00    +0.000 C 
ENDBRANCH  16  17
ENDBRANCH  12  16
ENDBRANCH   6  10
ENDBRANCH   5   6
ENDBRANCH   1   5
BRANCH   2  19
ATOM     19  C   UNL     1       1.527   8.530  21.546  0.00  0.00    +0.000 C 
BRANCH  19  20
ATOM     20  C   UNL     1       0.057   8.902  21.536  0.00  0.00    +0.000 C 
BRANCH  20  21
ATOM     21  S   UNL     1      -0.188  10.660  21.429  0.00  0.00    +0.000 S 
ATOM     22  O   UNL     1      -1.162  11.052  22.428  0.00  0.00    +0.000 OA
ATOM     23  O   UNL     1       1.112  11.295  21.345  0.00  0.00    +0.000 OA
BRANCH  21  24
ATOM     24  C   UNL     1      -0.968  10.823  19.832  0.00  0.00    +0.000 A 
ATOM     25  C   UNL     1      -1.837  11.894  19.606  0.00  0.00    +0.000 A 
ATOM     26  C   UNL     1      -2.463  12.019  18.365  0.00  0.00    +0.000 A 
ATOM     27  C   UNL     1      -2.206  11.082  17.361  0.00  0.00    +0.000 A 
ATOM     28 CL   UNL     1      -2.984  11.238  15.834  0.00  0.00    +0.000 Cl
ATOM     29  C   UNL     1      -1.329  10.021  17.586  0.00  0.00    +0.000 A 
ATOM     30  C   UNL     1      -0.697   9.891  18.825  0.00  0.00    +0.000 A 
ENDBRANCH  21  24
ENDBRANCH  20  21
ENDBRANCH  19  20
ENDBRANCH   2  19
TORSDOF 11
ENDMDL
MODEL 6
REMARK VINA RESULT:      -7.0      1.684      2.607
REMARK  Name = 
REMARK  13 active torsions:
REMARK  status: ('A' for Active; 'I' for Inactive)
REMARK    1  A    between atoms: C_1  and  C_2
REMARK    2  A    between atoms: C_2  and  O_3
REMARK    3  A    between atoms: O_3  and  C_4
REMARK    4  A    between atoms: C_7  and  C_8
REMARK    5  A    between atoms: C_8  and  C_9
REMARK    6  A    between atoms: C_9  and  N_10
REMARK    7  A    between atoms: C_11  and  C_13
REMARK    8  A    between atoms: C_13  and  C_14
REMARK    9  A    between atoms: C_14  and  S_15
REMARK   10  A    between atoms: S_15  and  C_18
REMARK   11  A    between atoms: C_26  and  O_27
REMARK   12  A    between atoms: O_27  and  C_28
REMARK   13  A    between atoms: C_28  and  C_29
REMARK                            x       y       z     vdW  Elec       q    Type
REMARK                         _______ _______ _______ _____ _____    ______ ____
ROOT
ATOM      1  N   UNL     1       7.695   8.207  18.354  0.00  0.00    +0.000 N 
ATOM      2  C   UNL     1       7.543   7.108  17.541  0.00  0.00    +0.000 C 
ATOM      3  O   UNL     1       8.014   7.053  16.408  0.00  0.00    +0.000 OA
ATOM      4  H   UNL     1       7.280   8.241  19.273  0.00  0.00    +0.000 HD
ENDROOT
BRANCH   1   5
ATOM      5  C   UNL     1       8.381   9.415  17.924  0.00  0.00    +0.000 C 
BRANCH   5   6
ATOM      6  C   UNL     1       9.203  10.089  19.030  0.00  0.00    +0.000 C 
BRANCH   6  10
ATOM      7  C   UNL     1      10.695  13.995  17.845  0.00  0.00    +0.000 A 
ATOM      8  C   UNL     1      11.231  12.809  17.315  0.00  0.00    +0.000 A 
ATOM      9  C   UNL     1      10.754  11.556  17.704  0.00  0.00    +0.000 A 
ATOM     10  C   UNL     1       9.736  11.451  18.644  0.00  0.00    +0.000 A 
ATOM     11  C   UNL     1       9.233  12.626  19.220  0.00  0.00    +0.000 A 
ATOM     12  C   UNL     1       9.727  13.896  18.859  0.00  0.00    +0.000 A 
BRANCH   7  13
ATOM     13  O   UNL     1      11.101  15.234  17.406  0.00  0.00    +0.000 OA
BRANCH  13  15
ATOM     14  C   UNL     1      11.848  17.243  18.537  0.00  0.00    +0.000 C 
ATOM     15  C   UNL     1      12.187  15.818  18.138  0.00  0.00    +0.000 C 
ENDBRANCH  13  15
ENDBRANCH   7  13
BRANCH  12  16
ATOM     16  O   UNL     1       9.130  14.912  19.561  0.00  0.00    +0.000 OA
BRANCH  16  17
ATOM     17  C   UNL     1       7.798  15.278  19.202  0.00  0.00    +0.000 C 
ATOM     18  C   UNL     1       7.865  16.490  18.283  0.00  0.00    +0.000 C 
ENDBRANCH  16  17
ENDBRANCH  12  16
ENDBRANCH   6  10
ENDBRANCH   5   6
ENDBRANCH   1   5
BRANCH   2  19
ATOM     19  C   UNL     1       6.815   5.923  18.149  0.00  0.00    +0.000 C 
BRANCH  19  20
ATOM     20  C   UNL     1       6.728   4.735  17.211  0.00  0.00    +0.000 C 
BRANCH  20  21
ATOM     21  S   UNL     1       5.310   4.827  16.143  0.00  0.00    +0.000 S 
ATOM     22  O   UNL     1       5.069   6.217  15.814  0.00  0.00    +0.000 OA
ATOM     23  O   UNL     1       5.452   3.817  15.113  0.00  0.00    +0.000 OA
BRANCH  21  24
ATOM     24  C   UNL     1       3.998   4.301  17.232  0.00  0.00    +0.000 A 
ATOM     25  C   UNL     1       3.896   2.949  17.570  0.00  0.00    +0.000 A 
ATOM     26  C   UNL     1       2.863   2.528  18.409  0.00  0.00    +0.000 A 
ATOM     27  C   UNL     1       1.951   3.462  18.909  0.00  0.00    +0.000 A 
ATOM     28 CL   UNL     1       0.676   2.937  19.938  0.00  0.00    +0.000 Cl
ATOM     29  C   UNL     1       2.063   4.812  18.579  0.00  0.00    +0.000 A 
ATOM     30  C   UNL     1       3.096   5.241  17.742  0.00  0.00    +0.000 A 
ENDBRANCH  21  24
ENDBRANCH  20  21
ENDBRANCH  19  20
ENDBRANCH   2  19
TORSDOF 11
ENDMDL
MODEL 7
REMARK VINA RESULT:      -7.0      6.804     10.628
REMARK  Name = 
REMARK  13 active torsions:
REMARK  status: ('A' for Active; 'I' for Inactive)
REMARK    1  A    between atoms: C_1  and  C_2
REMARK    2  A    between atoms: C_2  and  O_3
REMARK    3  A    between atoms: O_3  and  C_4
REMARK    4  A    between atoms: C_7  and  C_8
REMARK    5  A    between atoms: C_8  and  C_9
REMARK    6  A    between atoms: C_9  and  N_10
REMARK    7  A    between atoms: C_11  and  C_13
REMARK    8  A    between atoms: C_13  and  C_14
REMARK    9  A    between atoms: C_14  and  S_15
REMARK   10  A    between atoms: S_15  and  C_18
REMARK   11  A    between atoms: C_26  and  O_27
REMARK   12  A    between atoms: O_27  and  C_28
REMARK   13  A    between atoms: C_28  and  C_29
REMARK                            x       y       z     vdW  Elec       q    Type
REMARK                         _______ _______ _______ _____ _____    ______ ____
ROOT
ATOM      1  N   UNL     1       1.008   9.474  18.713  0.00  0.00    +0.000 N 
ATOM      2  C   UNL     1       0.980  10.845  18.821  0.00  0.00    +0.000 C 
ATOM      3  O   UNL     1       1.909  11.557  18.448  0.00  0.00    +0.000 OA
ATOM      4  H   UNL     1       0.245   8.905  19.048  0.00  0.00    +0.000 HD
ENDROOT
BRANCH   1   5
ATOM      5  C   UNL     1       2.158   8.748  18.196  0.00  0.00    +0.000 C 
BRANCH   5   6
ATOM      6  C   UNL     1       2.443   7.433  18.932  0.00  0.00    +0.000 C 
BRANCH   6  10
ATOM      7  C   UNL     1       4.964   4.687  16.696  0.00  0.00    +0.000 A 
ATOM      8  C   UNL     1       5.001   6.073  16.469  0.00  0.00    +0.000 A 
ATOM      9  C   UNL     1       4.184   6.951  17.184  0.00  0.00    +0.000 A 
ATOM     10  C   UNL     1       3.296   6.468  18.138  0.00  0.00    +0.000 A 
ATOM     11  C   UNL     1       3.212   5.082  18.333  0.00  0.00    +0.000 A 
ATOM     12  C   UNL     1       4.009   4.183  17.596  0.00  0.00    +0.000 A 
BRANCH   7  13
ATOM     13  O   UNL     1       5.824   3.824  16.057  0.00  0.00    +0.000 OA
BRANCH  13  15
ATOM     14  C   UNL     1       6.253   3.816  13.673  0.00  0.00    +0.000 C 
ATOM     15  C   UNL     1       6.622   4.410  15.020  0.00  0.00    +0.000 C 
ENDBRANCH  13  15
ENDBRANCH   7  13
BRANCH  12  16
ATOM     16  O   UNL     1       3.751   2.873  17.909  0.00  0.00    +0.000 OA
BRANCH  16  17
ATOM     17  C   UNL     1       2.443   2.368  17.640  0.00  0.00    +0.000 C 
ATOM     18  C   UNL     1       1.794   1.987  18.963  0.00  0.00    +0.000 C 
ENDBRANCH  16  17
ENDBRANCH  12  16
ENDBRANCH   6  10
ENDBRANCH   5   6
ENDBRANCH   1   5
BRANCH   2  19
ATOM     19  C   UNL     1      -0.303  11.444  19.367  0.00  0.00    +0.000 C 
BRANCH  19  20
ATOM     20  C   UNL     1      -1.153  12.103  18.298  0.00  0.00    +0.000 C 
BRANCH  20  21
ATOM     21  S   UNL     1      -2.362  10.989  17.623  0.00  0.00    +0.000 S 
ATOM     22  O   UNL     1      -2.410  11.173  16.187  0.00  0.00    +0.000 OA
ATOM     23  O   UNL     1      -2.155   9.682  18.214  0.00  0.00    +0.000 OA
BRANCH  21  24
ATOM     24  C   UNL     1      -3.879  11.647  18.295  0.00  0.00    +0.000 A 
ATOM     25  C   UNL     1      -3.855  12.269  19.546  0.00  0.00    +0.000 A 
ATOM     26  C   UNL     1      -5.039  12.772  20.085  0.00  0.00    +0.000 A 
ATOM     27  C   UNL     1      -6.232  12.660  19.365  0.00  0.00    +0.000 A 
ATOM     28 CL   UNL     1      -7.691  13.276  20.036  0.00  0.00    +0.000 Cl
ATOM     29  C   UNL     1      -6.250  12.048  18.111  0.00  0.00    +0.000 A 
ATOM     30  C   UNL     1      -5.068  11.545  17.564  0.00  0.00    +0.000 A 
ENDBRANCH  21  24
ENDBRANCH  20  21
ENDBRANCH  19  20
ENDBRANCH   2  19
TORSDOF 11
ENDMDL
MODEL 8
REMARK VINA RESULT:      -6.9      6.301      8.764
REMARK  Name = 
REMARK  13 active torsions:
REMARK  status: ('A' for Active; 'I' for Inactive)
REMARK    1  A    between atoms: C_1  and  C_2
REMARK    2  A    between atoms: C_2  and  O_3
REMARK    3  A    between atoms: O_3  and  C_4
REMARK    4  A    between atoms: C_7  and  C_8
REMARK    5  A    between atoms: C_8  and  C_9
REMARK    6  A    between atoms: C_9  and  N_10
REMARK    7  A    between atoms: C_11  and  C_13
REMARK    8  A    between atoms: C_13  and  C_14
REMARK    9  A    between atoms: C_14  and  S_15
REMARK   10  A    between atoms: S_15  and  C_18
REMARK   11  A    between atoms: C_26  and  O_27
REMARK   12  A    between atoms: O_27  and  C_28
REMARK   13  A    between atoms: C_28  and  C_29
REMARK                            x       y       z     vdW  Elec       q    Type
REMARK                         _______ _______ _______ _____ _____    ______ ____
ROOT
ATOM      1  N   UNL     1       2.338   6.778  18.873  0.00  0.00    +0.000 N 
ATOM      2  C   UNL     1       1.930   6.338  20.110  0.00  0.00    +0.000 C 
ATOM      3  O   UNL     1       1.663   7.107  21.030  0.00  0.00    +0.000 OA
ATOM      4  H   UNL     1       2.576   6.129  18.138  0.00  0.00    +0.000 HD
ENDROOT
BRANCH   1   5
ATOM      5  C   UNL     1       2.539   8.185  18.564  0.00  0.00    +0.000 C 
BRANCH   5   6
ATOM      6  C   UNL     1       1.408   8.805  17.734  0.00  0.00    +0.000 C 
BRANCH   6  10
ATOM      7  C   UNL     1      -0.916  11.770  19.901  0.00  0.00    +0.000 A 
ATOM      8  C   UNL     1       0.342  11.342  20.358  0.00  0.00    +0.000 A 
ATOM      9  C   UNL     1       1.082  10.384  19.663  0.00  0.00    +0.000 A 
ATOM     10  C   UNL     1       0.580   9.815  18.497  0.00  0.00    +0.000 A 
ATOM     11  C   UNL     1      -0.698  10.195  18.065  0.00  0.00    +0.000 A 
ATOM     12  C   UNL     1      -1.468  11.138  18.774  0.00  0.00    +0.000 A 
BRANCH   7  13
ATOM     13  O   UNL     1      -1.614  12.773  20.534  0.00  0.00    +0.000 OA
BRANCH  13  15
ATOM     14  C   UNL     1      -3.788  12.978  21.583  0.00  0.00    +0.000 C 
ATOM     15  C   UNL     1      -2.405  12.357  21.655  0.00  0.00    +0.000 C 
ENDBRANCH  13  15
ENDBRANCH   7  13
BRANCH  12  16
ATOM     16  O   UNL     1      -2.701  11.344  18.208  0.00  0.00    +0.000 OA
BRANCH  16  17
ATOM     17  C   UNL     1      -2.828  11.154  16.800  0.00  0.00    +0.000 C 
ATOM     18  C   UNL     1      -4.310  11.094  16.455  0.00  0.00    +0.000 C 
ENDBRANCH  16  17
ENDBRANCH  12  16
ENDBRANCH   6  10
ENDBRANCH   5   6
ENDBRANCH   1   5
BRANCH   2  19
ATOM     19  C   UNL     1       1.755   4.838  20.261  0.00  0.00    +0.000 C 
BRANCH  19  20
ATOM     20  C   UNL     1       1.660   4.115  18.931  0.00  0.00    +0.000 C 
BRANCH  20  21
ATOM     21  S   UNL     1       3.043   3.033  18.656  0.00  0.00    +0.000 S 
ATOM     22  O   UNL     1       3.379   2.385  19.907  0.00  0.00    +0.000 OA
ATOM     23  O   UNL     1       2.789   2.270  17.450  0.00  0.00    +0.000 OA
BRANCH  21  24
ATOM     24  C   UNL     1       4.347   4.194  18.290  0.00  0.00    +0.000 A 
ATOM     25  C   UNL     1       4.419   4.757  17.013  0.00  0.00    +0.000 A 
ATOM     26  C   UNL     1       5.445   5.654  16.715  0.00  0.00    +0.000 A 
ATOM     27  C   UNL     1       6.381   5.989  17.698  0.00  0.00    +0.000 A 
ATOM     28 CL   UNL     1       7.648   7.091  17.323  0.00  0.00    +0.000 Cl
ATOM     29  C   UNL     1       6.300   5.434  18.975  0.00  0.00    +0.000 A 
ATOM     30  C   UNL     1       5.273   4.538  19.281  0.00  0.00    +0.000 A 
ENDBRANCH  21  24
ENDBRANCH  20  21
ENDBRANCH  19  20
ENDBRANCH   2  19
TORSDOF 11
ENDMDL
MODEL 9
REMARK VINA RESULT:      -6.9      6.371      8.264
REMARK  Name = 
REMARK  13 active torsions:
REMARK  status: ('A' for Active; 'I' for Inactive)
REMARK    1  A    between atoms: C_1  and  C_2
REMARK    2  A    between atoms: C_2  and  O_3
REMARK    3  A    between atoms: O_3  and  C_4
REMARK    4  A    between atoms: C_7  and  C_8
REMARK    5  A    between atoms: C_8  and  C_9
REMARK    6  A    between atoms: C_9  and  N_10
REMARK    7  A    between atoms: C_11  and  C_13
REMARK    8  A    between atoms: C_13  and  C_14
REMARK    9  A    between atoms: C_14  and  S_15
REMARK   10  A    between atoms: S_15  and  C_18
REMARK   11  A    between atoms: C_26  and  O_27
REMARK   12  A    between atoms: O_27  and  C_28
REMARK   13  A    between atoms: C_28  and  C_29
REMARK                            x       y       z     vdW  Elec       q    Type
REMARK                         _______ _______ _______ _____ _____    ______ ____
ROOT
ATOM      1  N   UNL     1       1.998   5.303  18.826  0.00  0.00    +0.000 N 
ATOM      2  C   UNL     1       1.484   4.068  18.507  0.00  0.00    +0.000 C 
ATOM      3  O   UNL     1       1.113   3.779  17.372  0.00  0.00    +0.000 OA
ATOM      4  H   UNL     1       2.274   5.528  19.769  0.00  0.00    +0.000 HD
ENDROOT
BRANCH   1   5
ATOM      5  C   UNL     1       2.100   6.386  17.861  0.00  0.00    +0.000 C 
BRANCH   5   6
ATOM      6  C   UNL     1       2.876   7.605  18.376  0.00  0.00    +0.000 C 
BRANCH   6  10
ATOM      7  C   UNL     1       0.300  11.002  19.222  0.00  0.00    +0.000 A 
ATOM      8  C   UNL     1       1.254  11.039  18.191  0.00  0.00    +0.000 A 
ATOM      9  C   UNL     1       2.085   9.948  17.927  0.00  0.00    +0.000 A 
ATOM     10  C   UNL     1       1.996   8.793  18.695  0.00  0.00    +0.000 A 
ATOM     11  C   UNL     1       1.085   8.767  19.762  0.00  0.00    +0.000 A 
ATOM     12  C   UNL     1       0.263   9.873  20.057  0.00  0.00    +0.000 A 
BRANCH   7  13
ATOM     13  O   UNL     1      -0.578  12.040  19.434  0.00  0.00    +0.000 OA
BRANCH  13  15
ATOM     14  C   UNL     1      -2.093  11.592  17.598  0.00  0.00    +0.000 C 
ATOM     15  C   UNL     1      -1.945  11.764  19.098  0.00  0.00    +0.000 C 
ENDBRANCH  13  15
ENDBRANCH   7  13
BRANCH  12  16
ATOM     16  O   UNL     1      -0.529   9.660  21.157  0.00  0.00    +0.000 OA
BRANCH  16  17
ATOM     17  C   UNL     1      -0.255  10.420  22.333  0.00  0.00    +0.000 C 
ATOM     18  C   UNL     1       0.053   9.453  23.469  0.00  0.00    +0.000 C 
ENDBRANCH  16  17
ENDBRANCH  12  16
ENDBRANCH   6  10
ENDBRANCH   5   6
ENDBRANCH   1   5
BRANCH   2  19
ATOM     19  C   UNL     1       1.462   3.044  19.628  0.00  0.00    +0.000 C 
BRANCH  19  20
ATOM     20  C   UNL     1       2.751   3.010  20.425  0.00  0.00    +0.000 C 
BRANCH  20  21
ATOM     21  S   UNL     1       4.076   2.240  19.524  0.00  0.00    +0.000 S 
ATOM     22  O   UNL     1       5.006   1.662  20.473  0.00  0.00    +0.000 OA
ATOM     23  O   UNL     1       3.499   1.453  18.452  0.00  0.00    +0.000 OA
BRANCH  21  24
ATOM     24  C   UNL     1       4.880   3.649  18.782  0.00  0.00    +0.000 A 
ATOM     25  C   UNL     1       4.915   3.756  17.388  0.00  0.00    +0.000 A 
ATOM     26  C   UNL     1       5.555   4.847  16.800  0.00  0.00    +0.000 A 
ATOM     27  C   UNL     1       6.143   5.825  17.608  0.00  0.00    +0.000 A 
ATOM     28 CL   UNL     1       6.936   7.166  16.878  0.00  0.00    +0.000 Cl
ATOM     29  C   UNL     1       6.096   5.721  18.998  0.00  0.00    +0.000 A 
ATOM     30  C   UNL     1       5.454   4.632  19.594  0.00  0.00    +0.000 A 
ENDBRANCH  21  24
ENDBRANCH  20  21
ENDBRANCH  19  20
ENDBRANCH   2  19
TORSDOF 11
ENDMDL
