MODEL 1
REMARK VINA RESULT:      -8.0      0.000      0.000
REMARK  Name = 
REMARK  9 active torsions:
REMARK  status: ('A' for Active; 'I' for Inactive)
REMARK    1  A    between atoms: C_1  and  C_2
REMARK    2  A    between atoms: C_2  and  C_3
REMARK    3  A    between atoms: C_11  and  C_12
REMARK    4  A    between atoms: N_14  and  C_15
REMARK    5  A    between atoms: C_15  and  C_16
REMARK    6  A    between atoms: C_18  and  O_19
REMARK    7  A    between atoms: O_19  and  C_20
REMARK    8  A    between atoms: C_23  and  O_24
REMARK    9  A    between atoms: O_24  and  C_25
REMARK                            x       y       z     vdW  Elec       q    Type
REMARK                         _______ _______ _______ _____ _____    ______ ____
ROOT
ATOM      1  C   UNL     1      -6.542  12.978  20.127  0.00  0.00    +0.000 C 
ATOM      2  C   UNL     1      -5.182  13.397  19.581  0.00  0.00    +0.000 C 
ATOM      3  N   UNL     1      -4.073  12.691  20.254  0.00  0.00    +0.000 N 
ATOM      4  C   UNL     1      -3.179  12.014  19.320  0.00  0.00    +0.000 C 
ATOM      5  O   UNL     1      -3.481  11.915  18.127  0.00  0.00    +0.000 OA
ATOM      6  N   UNL     1      -1.945  11.506  19.722  0.00  0.00    +0.000 N 
ATOM      7  C   UNL     1      -1.504  11.759  21.012  0.00  0.00    +0.000 C 
ATOM      8  C   UNL     1      -0.099  12.186  21.321  0.00  0.00    +0.000 C 
ATOM      9  C   UNL     1       0.890  11.311  20.623  0.00  0.00    +0.000 C 
ATOM     10  C   UNL     1       0.459  11.197  19.136  0.00  0.00    +0.000 C 
ATOM     11  C   UNL     1      -1.004  10.722  18.910  0.00  0.00    +0.000 C 
ATOM     12  C   UNL     1      -4.264  12.737  21.743  0.00  0.00    +0.000 A 
ATOM     13  C   UNL     1      -3.301  12.684  22.766  0.00  0.00    +0.000 A 
ATOM     14  C   UNL     1      -3.557  12.462  24.129  0.00  0.00    +0.000 A 
ATOM     15  C   UNL     1      -4.838  12.580  24.578  0.00  0.00    +0.000 A 
ATOM     16  C   UNL     1      -5.824  12.901  23.652  0.00  0.00    +0.000 A 
ATOM     17  C   UNL     1      -5.551  12.945  22.263  0.00  0.00    +0.000 A 
ATOM     18  O   UNL     1      -6.663  13.258  21.521  0.00  0.00    +0.000 OA
ENDROOT
BRANCH   9  19
ATOM     19  C   UNL     1       1.046   9.977  21.345  0.00  0.00    +0.000 C 
ATOM     20  O   UNL     1       1.039   9.907  22.563  0.00  0.00    +0.000 OA
ATOM     21  N   UNL     1       1.147   8.857  20.532  0.00  0.00    +0.000 N 
ATOM     22  H   UNL     1       1.409   8.961  19.580  0.00  0.00    +0.000 HD
BRANCH  21  23
ATOM     23  C   UNL     1       1.359   7.554  21.137  0.00  0.00    +0.000 C 
BRANCH  23  24
ATOM     24  C   UNL     1       1.757   6.429  20.212  0.00  0.00    +0.000 A 
ATOM     25  C   UNL     1       1.896   5.109  20.698  0.00  0.00    +0.000 A 
ATOM     26  C   UNL     1       2.370   4.060  19.898  0.00  0.00    +0.000 A 
ATOM     27  C   UNL     1       2.679   4.310  18.570  0.00  0.00    +0.000 A 
ATOM     28  C   UNL     1       2.532   5.601  18.061  0.00  0.00    +0.000 A 
ATOM     29  C   UNL     1       2.073   6.660  18.858  0.00  0.00    +0.000 A 
BRANCH  26  30
ATOM     30  O   UNL     1       2.513   2.864  20.547  0.00  0.00    +0.000 OA
ATOM     31  C   UNL     1       1.685   2.642  21.684  0.00  0.00    +0.000 C 
ENDBRANCH  26  30
BRANCH  29  32
ATOM     32  O   UNL     1       2.132   7.862  18.205  0.00  0.00    +0.000 OA
ATOM     33  C   UNL     1       3.332   8.241  17.546  0.00  0.00    +0.000 C 
ENDBRANCH  29  32
ENDBRANCH  23  24
ENDBRANCH  21  23
ENDBRANCH   9  19
BRANCH   1  35
ATOM     34  C   UNL     1      -6.922  11.215  18.340  0.00  0.00    +0.000 C 
ATOM     35  C   UNL     1      -6.878  11.512  19.832  0.00  0.00    +0.000 C 
ENDBRANCH   1  35
TORSDOF 6
ENDMDL
MODEL 2
REMARK VINA RESULT:      -8.0      6.524     10.490
REMARK  Name = 
REMARK  9 active torsions:
REMARK  status: ('A' for Active; 'I' for Inactive)
REMARK    1  A    between atoms: C_1  and  C_2
REMARK    2  A    between atoms: C_2  and  C_3
REMARK    3  A    between atoms: C_11  and  C_12
REMARK    4  A    between atoms: N_14  and  C_15
REMARK    5  A    between atoms: C_15  and  C_16
REMARK    6  A    between atoms: C_18  and  O_19
REMARK    7  A    between atoms: O_19  and  C_20
REMARK    8  A    between atoms: C_23  and  O_24
REMARK    9  A    between atoms: O_24  and  C_25
REMARK                            x       y       z     vdW  Elec       q    Type
REMARK                         _______ _______ _______ _____ _____    ______ ____
ROOT
ATOM      1  C   UNL     1       1.128   2.904  19.408  0.00  0.00    +0.000 C 
ATOM      2  C   UNL     1       1.863   3.263  18.122  0.00  0.00    +0.000 C 
ATOM      3  N   UNL     1       2.900   4.291  18.344  0.00  0.00    +0.000 N 
ATOM      4  C   UNL     1       4.215   3.886  17.861  0.00  0.00    +0.000 C 
ATOM      5  O   UNL     1       4.416   2.723  17.495  0.00  0.00    +0.000 OA
ATOM      6  N   UNL     1       5.267   4.793  17.746  0.00  0.00    +0.000 N 
ATOM      7  C   UNL     1       5.022   6.138  17.980  0.00  0.00    +0.000 C 
ATOM      8  C   UNL     1       5.546   7.226  17.090  0.00  0.00    +0.000 C 
ATOM      9  C   UNL     1       7.000   7.031  16.809  0.00  0.00    +0.000 C 
ATOM     10  C   UNL     1       7.207   5.554  16.377  0.00  0.00    +0.000 C 
ATOM     11  C   UNL     1       6.657   4.494  17.372  0.00  0.00    +0.000 C 
ATOM     12  C   UNL     1       2.336   5.422  19.156  0.00  0.00    +0.000 A 
ATOM     13  C   UNL     1       2.720   6.774  19.187  0.00  0.00    +0.000 A 
ATOM     14  C   UNL     1       2.339   7.718  20.153  0.00  0.00    +0.000 A 
ATOM     15  C   UNL     1       1.301   7.416  20.983  0.00  0.00    +0.000 A 
ATOM     16  C   UNL     1       0.686   6.178  20.833  0.00  0.00    +0.000 A 
ATOM     17  C   UNL     1       1.211   5.191  19.964  0.00  0.00    +0.000 A 
ATOM     18  O   UNL     1       0.470   4.036  19.976  0.00  0.00    +0.000 OA
ENDROOT
BRANCH   9  19
ATOM     19  C   UNL     1       7.851   7.473  17.994  0.00  0.00    +0.000 C 
ATOM     20  O   UNL     1       8.190   6.688  18.864  0.00  0.00    +0.000 OA
ATOM     21  N   UNL     1       8.246   8.803  17.992  0.00  0.00    +0.000 N 
ATOM     22  H   UNL     1       7.755   9.463  17.435  0.00  0.00    +0.000 HD
BRANCH  21  23
ATOM     23  C   UNL     1       9.007   9.322  19.114  0.00  0.00    +0.000 C 
BRANCH  23  24
ATOM     24  C   UNL     1       9.369  10.788  19.074  0.00  0.00    +0.000 A 
ATOM     25  C   UNL     1       9.947  11.358  17.917  0.00  0.00    +0.000 A 
ATOM     26  C   UNL     1      10.398  12.684  17.879  0.00  0.00    +0.000 A 
ATOM     27  C   UNL     1      10.241  13.484  19.000  0.00  0.00    +0.000 A 
ATOM     28  C   UNL     1       9.657  12.950  20.149  0.00  0.00    +0.000 A 
ATOM     29  C   UNL     1       9.216  11.619  20.202  0.00  0.00    +0.000 A 
BRANCH  26  30
ATOM     30  O   UNL     1      10.998  13.051  16.704  0.00  0.00    +0.000 OA
ATOM     31  C   UNL     1      11.761  14.253  16.716  0.00  0.00    +0.000 C 
ENDBRANCH  26  30
BRANCH  29  32
ATOM     32  O   UNL     1       8.802  11.261  21.457  0.00  0.00    +0.000 OA
ATOM     33  C   UNL     1       8.679  12.257  22.462  0.00  0.00    +0.000 C 
ENDBRANCH  29  32
ENDBRANCH  23  24
ENDBRANCH  21  23
ENDBRANCH   9  19
BRANCH   1  35
ATOM     34  C   UNL     1       1.602   2.511  21.871  0.00  0.00    +0.000 C 
ATOM     35  C   UNL     1       2.032   2.220  20.440  0.00  0.00    +0.000 C 
ENDBRANCH   1  35
TORSDOF 6
ENDMDL
MODEL 3
REMARK VINA RESULT:      -7.8      1.282      2.439
REMARK  Name = 
REMARK  9 active torsions:
REMARK  status: ('A' for Active; 'I' for Inactive)
REMARK    1  A    between atoms: C_1  and  C_2
REMARK    2  A    between atoms: C_2  and  C_3
REMARK    3  A    between atoms: C_11  and  C_12
REMARK    4  A    between atoms: N_14  and  C_15
REMARK    5  A    between atoms: C_15  and  C_16
REMARK    6  A    between atoms: C_18  and  O_19
REMARK    7  A    between atoms: O_19  and  C_20
REMARK    8  A    between atoms: C_23  and  O_24
REMARK    9  A    between atoms: O_24  and  C_25
REMARK                            x       y       z     vdW  Elec       q    Type
REMARK                         _______ _______ _______ _____ _____    ______ ____
ROOT
ATOM      1  C   UNL     1      -6.384  12.888  20.110  0.00  0.00    +0.000 C 
ATOM      2  C   UNL     1      -5.101  13.197  19.347  0.00  0.00    +0.000 C 
ATOM      3  N   UNL     1      -3.943  12.455  19.886  0.00  0.00    +0.000 N 
ATOM      4  C   UNL     1      -3.239  11.683  18.867  0.00  0.00    +0.000 C 
ATOM      5  O   UNL     1      -3.722  11.550  17.739  0.00  0.00    +0.000 OA
ATOM      6  N   UNL     1      -1.987  11.118  19.109  0.00  0.00    +0.000 N 
ATOM      7  C   UNL     1      -1.343  11.402  20.304  0.00  0.00    +0.000 C 
ATOM      8  C   UNL     1       0.113  11.754  20.378  0.00  0.00    +0.000 C 
ATOM      9  C   UNL     1       0.937  10.789  19.589  0.00  0.00    +0.000 C 
ATOM     10  C   UNL     1       0.280  10.635  18.191  0.00  0.00    +0.000 C 
ATOM     11  C   UNL     1      -1.224  10.242  18.210  0.00  0.00    +0.000 C 
ATOM     12  C   UNL     1      -3.904  12.580  21.382  0.00  0.00    +0.000 A 
ATOM     13  C   UNL     1      -2.802  12.513  22.252  0.00  0.00    +0.000 A 
ATOM     14  C   UNL     1      -2.860  12.369  23.648  0.00  0.00    +0.000 A 
ATOM     15  C   UNL     1      -4.051  12.586  24.274  0.00  0.00    +0.000 A 
ATOM     16  C   UNL     1      -5.147  12.925  23.489  0.00  0.00    +0.000 A 
ATOM     17  C   UNL     1      -5.085  12.890  22.075  0.00  0.00    +0.000 A 
ATOM     18  O   UNL     1      -6.277  13.238  21.490  0.00  0.00    +0.000 OA
ENDROOT
BRANCH   9  19
ATOM     19  C   UNL     1       1.127   9.482  20.351  0.00  0.00    +0.000 C 
ATOM     20  O   UNL     1       0.783   9.367  21.515  0.00  0.00    +0.000 OA
ATOM     21  N   UNL     1       1.669   8.432  19.624  0.00  0.00    +0.000 N 
ATOM     22  H   UNL     1       2.169   8.618  18.786  0.00  0.00    +0.000 HD
BRANCH  21  23
ATOM     23  C   UNL     1       1.940   7.170  20.289  0.00  0.00    +0.000 C 
BRANCH  23  24
ATOM     24  C   UNL     1       2.823   6.188  19.556  0.00  0.00    +0.000 A 
ATOM     25  C   UNL     1       3.485   6.562  18.364  0.00  0.00    +0.000 A 
ATOM     26  C   UNL     1       4.221   5.649  17.597  0.00  0.00    +0.000 A 
ATOM     27  C   UNL     1       4.342   4.339  18.036  0.00  0.00    +0.000 A 
ATOM     28  C   UNL     1       3.713   3.951  19.219  0.00  0.00    +0.000 A 
ATOM     29  C   UNL     1       2.961   4.853  19.986  0.00  0.00    +0.000 A 
BRANCH  26  30
ATOM     30  O   UNL     1       4.735   6.160  16.436  0.00  0.00    +0.000 OA
ATOM     31  C   UNL     1       5.348   5.240  15.539  0.00  0.00    +0.000 C 
ENDBRANCH  26  30
BRANCH  29  32
ATOM     32  O   UNL     1       2.321   4.238  21.028  0.00  0.00    +0.000 OA
ATOM     33  C   UNL     1       1.252   3.343  20.761  0.00  0.00    +0.000 C 
ENDBRANCH  29  32
ENDBRANCH  23  24
ENDBRANCH  21  23
ENDBRANCH   9  19
BRANCH   1  35
ATOM     34  C   UNL     1      -7.099  11.066  18.494  0.00  0.00    +0.000 C 
ATOM     35  C   UNL     1      -6.840  11.434  19.947  0.00  0.00    +0.000 C 
ENDBRANCH   1  35
TORSDOF 6
ENDMDL
MODEL 4
REMARK VINA RESULT:      -7.4      1.786      2.530
REMARK  Name = 
REMARK  9 active torsions:
REMARK  status: ('A' for Active; 'I' for Inactive)
REMARK    1  A    between atoms: C_1  and  C_2
REMARK    2  A    between atoms: C_2  and  C_3
REMARK    3  A    between atoms: C_11  and  C_12
REMARK    4  A    between atoms: N_14  and  C_15
REMARK    5  A    between atoms: C_15  and  C_16
REMARK    6  A    between atoms: C_18  and  O_19
REMARK    7  A    between atoms: O_19  and  C_20
REMARK    8  A    between atoms: C_23  and  O_24
REMARK    9  A    between atoms: O_24  and  C_25
REMARK                            x       y       z     vdW  Elec       q    Type
REMARK                         _______ _______ _______ _____ _____    ______ ____
ROOT
ATOM      1  C   UNL     1      -5.882  12.813  19.699  0.00  0.00    +0.000 C 
ATOM      2  C   UNL     1      -4.578  12.984  18.930  0.00  0.00    +0.000 C 
ATOM      3  N   UNL     1      -3.479  12.189  19.516  0.00  0.00    +0.000 N 
ATOM      4  C   UNL     1      -2.830  11.314  18.545  0.00  0.00    +0.000 C 
ATOM      5  O   UNL     1      -3.319  11.155  17.422  0.00  0.00    +0.000 OA
ATOM      6  N   UNL     1      -1.625  10.672  18.826  0.00  0.00    +0.000 N 
ATOM      7  C   UNL     1      -0.965  10.972  20.008  0.00  0.00    +0.000 C 
ATOM      8  C   UNL     1       0.513  11.219  20.074  0.00  0.00    +0.000 C 
ATOM      9  C   UNL     1       1.265  10.155  19.344  0.00  0.00    +0.000 C 
ATOM     10  C   UNL     1       0.604   9.975  17.951  0.00  0.00    +0.000 C 
ATOM     11  C   UNL     1      -0.925   9.695  17.981  0.00  0.00    +0.000 C 
ATOM     12  C   UNL     1      -3.436  12.392  21.003  0.00  0.00    +0.000 A 
ATOM     13  C   UNL     1      -2.344  12.291  21.884  0.00  0.00    +0.000 A 
ATOM     14  C   UNL     1      -2.418  12.228  23.285  0.00  0.00    +0.000 A 
ATOM     15  C   UNL     1      -3.591  12.566  23.890  0.00  0.00    +0.000 A 
ATOM     16  C   UNL     1      -4.657  12.941  23.080  0.00  0.00    +0.000 A 
ATOM     17  C   UNL     1      -4.592  12.825  21.670  0.00  0.00    +0.000 A 
ATOM     18  O   UNL     1      -5.754  13.227  21.059  0.00  0.00    +0.000 OA
ENDROOT
BRANCH   9  19
ATOM     19  C   UNL     1       1.356   8.882  20.176  0.00  0.00    +0.000 C 
ATOM     20  O   UNL     1       1.001   8.855  21.343  0.00  0.00    +0.000 OA
ATOM     21  N   UNL     1       1.821   7.756  19.510  0.00  0.00    +0.000 N 
ATOM     22  H   UNL     1       2.336   7.859  18.667  0.00  0.00    +0.000 HD
BRANCH  21  23
ATOM     23  C   UNL     1       1.996   6.515  20.244  0.00  0.00    +0.000 C 
BRANCH  23  24
ATOM     24  C   UNL     1       2.901   5.477  19.624  0.00  0.00    +0.000 A 
ATOM     25  C   UNL     1       4.287   5.719  19.484  0.00  0.00    +0.000 A 
ATOM     26  C   UNL     1       5.140   4.830  18.815  0.00  0.00    +0.000 A 
ATOM     27  C   UNL     1       4.620   3.651  18.303  0.00  0.00    +0.000 A 
ATOM     28  C   UNL     1       3.259   3.382  18.444  0.00  0.00    +0.000 A 
ATOM     29  C   UNL     1       2.394   4.272  19.099  0.00  0.00    +0.000 A 
BRANCH  26  30
ATOM     30  O   UNL     1       6.437   5.253  18.707  0.00  0.00    +0.000 OA
ATOM     31  C   UNL     1       7.090   5.025  17.463  0.00  0.00    +0.000 C 
ENDBRANCH  26  30
BRANCH  29  32
ATOM     32  O   UNL     1       1.085   3.883  19.007  0.00  0.00    +0.000 OA
ATOM     33  C   UNL     1       0.776   2.511  18.809  0.00  0.00    +0.000 C 
ENDBRANCH  29  32
ENDBRANCH  23  24
ENDBRANCH  21  23
ENDBRANCH   9  19
BRANCH   1  35
ATOM     34  C   UNL     1      -7.637  11.178  20.532  0.00  0.00    +0.000 C 
ATOM     35  C   UNL     1      -6.444  11.389  19.612  0.00  0.00    +0.000 C 
ENDBRANCH   1  35
TORSDOF 6
ENDMDL
MODEL 5
REMARK VINA RESULT:      -7.3      1.502      1.822
REMARK  Name = 
REMARK  9 active torsions:
REMARK  status: ('A' for Active; 'I' for Inactive)
REMARK    1  A    between atoms: C_1  and  C_2
REMARK    2  A    between atoms: C_2  and  C_3
REMARK    3  A    between atoms: C_11  and  C_12
REMARK    4  A    between atoms: N_14  and  C_15
REMARK    5  A    between atoms: C_15  and  C_16
REMARK    6  A    between atoms: C_18  and  O_19
REMARK    7  A    between atoms: O_19  and  C_20
REMARK    8  A    between atoms: C_23  and  O_24
REMARK    9  A    between atoms: O_24  and  C_25
REMARK                            x       y       z     vdW  Elec       q    Type
REMARK                         _______ _______ _______ _____ _____    ______ ____
ROOT
ATOM      1  C   UNL     1      -5.806  13.871  21.250  0.00  0.00    +0.000 C 
ATOM      2  C   UNL     1      -4.899  13.799  20.028  0.00  0.00    +0.000 C 
ATOM      3  N   UNL     1      -3.650  13.060  20.306  0.00  0.00    +0.000 N 
ATOM      4  C   UNL     1      -3.414  11.970  19.367  0.00  0.00    +0.000 C 
ATOM      5  O   UNL     1      -4.294  11.628  18.570  0.00  0.00    +0.000 OA
ATOM      6  N   UNL     1      -2.185  11.314  19.297  0.00  0.00    +0.000 N 
ATOM      7  C   UNL     1      -1.126  11.793  20.053  0.00  0.00    +0.000 C 
ATOM      8  C   UNL     1       0.261  11.947  19.502  0.00  0.00    +0.000 C 
ATOM      9  C   UNL     1       0.688  10.712  18.780  0.00  0.00    +0.000 C 
ATOM     10  C   UNL     1      -0.455  10.308  17.811  0.00  0.00    +0.000 C 
ATOM     11  C   UNL     1      -1.852  10.144  18.473  0.00  0.00    +0.000 C 
ATOM     12  C   UNL     1      -3.042  13.547  21.590  0.00  0.00    +0.000 A 
ATOM     13  C   UNL     1      -1.695  13.546  21.993  0.00  0.00    +0.000 A 
ATOM     14  C   UNL     1      -1.225  13.763  23.298  0.00  0.00    +0.000 A 
ATOM     15  C   UNL     1      -2.080  14.293  24.218  0.00  0.00    +0.000 A 
ATOM     16  C   UNL     1      -3.379  14.574  23.812  0.00  0.00    +0.000 A 
ATOM     17  C   UNL     1      -3.860  14.181  22.539  0.00  0.00    +0.000 A 
ATOM     18  O   UNL     1      -5.171  14.534  22.343  0.00  0.00    +0.000 OA
ENDROOT
BRANCH   9  19
ATOM     19  C   UNL     1       1.106   9.622  19.760  0.00  0.00    +0.000 C 
ATOM     20  O   UNL     1       0.921   9.738  20.961  0.00  0.00    +0.000 OA
ATOM     21  N   UNL     1       1.664   8.483  19.197  0.00  0.00    +0.000 N 
ATOM     22  H   UNL     1       2.036   8.519  18.277  0.00  0.00    +0.000 HD
BRANCH  21  23
ATOM     23  C   UNL     1       2.145   7.422  20.064  0.00  0.00    +0.000 C 
BRANCH  23  24
ATOM     24  C   UNL     1       2.483   6.104  19.406  0.00  0.00    +0.000 A 
ATOM     25  C   UNL     1       2.164   4.880  20.038  0.00  0.00    +0.000 A 
ATOM     26  C   UNL     1       2.559   3.641  19.514  0.00  0.00    +0.000 A 
ATOM     27  C   UNL     1       3.254   3.604  18.315  0.00  0.00    +0.000 A 
ATOM     28  C   UNL     1       3.564   4.798  17.664  0.00  0.00    +0.000 A 
ATOM     29  C   UNL     1       3.186   6.044  18.187  0.00  0.00    +0.000 A 
BRANCH  26  30
ATOM     30  O   UNL     1       2.232   2.562  20.290  0.00  0.00    +0.000 OA
ATOM     31  C   UNL     1       1.324   2.788  21.363  0.00  0.00    +0.000 C 
ENDBRANCH  26  30
BRANCH  29  32
ATOM     32  O   UNL     1       3.705   7.086  17.466  0.00  0.00    +0.000 OA
ATOM     33  C   UNL     1       4.825   6.863  16.623  0.00  0.00    +0.000 C 
ENDBRANCH  29  32
ENDBRANCH  23  24
ENDBRANCH  21  23
ENDBRANCH   9  19
BRANCH   1  35
ATOM     34  C   UNL     1      -7.222  12.581  22.917  0.00  0.00    +0.000 C 
ATOM     35  C   UNL     1      -6.342  12.500  21.678  0.00  0.00    +0.000 C 
ENDBRANCH   1  35
TORSDOF 6
ENDMDL
MODEL 6
REMARK VINA RESULT:      -7.2      1.513      1.949
REMARK  Name = 
REMARK  9 active torsions:
REMARK  status: ('A' for Active; 'I' for Inactive)
REMARK    1  A    between atoms: C_1  and  C_2
REMARK    2  A    between atoms: C_2  and  C_3
REMARK    3  A    between atoms: C_11  and  C_12
REMARK    4  A    between atoms: N_14  and  C_15
REMARK    5  A    between atoms: C_15  and  C_16
REMARK    6  A    between atoms: C_18  and  O_19
REMARK    7  A    between atoms: O_19  and  C_20
REMARK    8  A    between atoms: C_23  and  O_24
REMARK    9  A    between atoms: O_24  and  C_25
REMARK                            x       y       z     vdW  Elec       q    Type
REMARK                         _______ _______ _______ _____ _____    ______ ____
ROOT
ATOM      1  C   UNL     1      -7.646  11.943  20.638  0.00  0.00    +0.000 C 
ATOM      2  C   UNL     1      -6.655  12.790  19.850  0.00  0.00    +0.000 C 
ATOM      3  N   UNL     1      -5.269  12.617  20.333  0.00  0.00    +0.000 N 
ATOM      4  C   UNL     1      -4.340  12.244  19.273  0.00  0.00    +0.000 C 
ATOM      5  O   UNL     1      -4.760  11.930  18.155  0.00  0.00    +0.000 OA
ATOM      6  N   UNL     1      -2.959  12.275  19.463  0.00  0.00    +0.000 N 
ATOM      7  C   UNL     1      -2.457  12.792  20.647  0.00  0.00    +0.000 C 
ATOM      8  C   UNL     1      -1.296  13.742  20.692  0.00  0.00    +0.000 C 
ATOM      9  C   UNL     1      -0.166  13.243  19.852  0.00  0.00    +0.000 C 
ATOM     10  C   UNL     1      -0.743  12.840  18.468  0.00  0.00    +0.000 C 
ATOM     11  C   UNL     1      -1.925  11.832  18.517  0.00  0.00    +0.000 C 
ATOM     12  C   UNL     1      -5.232  12.724  21.831  0.00  0.00    +0.000 A 
ATOM     13  C   UNL     1      -4.178  13.129  22.668  0.00  0.00    +0.000 A 
ATOM     14  C   UNL     1      -4.116  12.953  24.060  0.00  0.00    +0.000 A 
ATOM     15  C   UNL     1      -5.258  12.622  24.725  0.00  0.00    +0.000 A 
ATOM     16  C   UNL     1      -6.421  12.462  23.981  0.00  0.00    +0.000 A 
ATOM     17  C   UNL     1      -6.403  12.479  22.565  0.00  0.00    +0.000 A 
ATOM     18  O   UNL     1      -7.649  12.283  22.024  0.00  0.00    +0.000 OA
ENDROOT
BRANCH   9  19
ATOM     19  C   UNL     1       0.601  12.137  20.568  0.00  0.00    +0.000 C 
ATOM     20  O   UNL     1       1.532  12.388  21.315  0.00  0.00    +0.000 OA
ATOM     21  N   UNL     1       0.144  10.845  20.351  0.00  0.00    +0.000 N 
ATOM     22  H   UNL     1      -0.424  10.649  19.560  0.00  0.00    +0.000 HD
BRANCH  21  23
ATOM     23  C   UNL     1       0.855   9.728  20.947  0.00  0.00    +0.000 C 
BRANCH  23  24
ATOM     24  C   UNL     1       1.438   8.706  19.999  0.00  0.00    +0.000 A 
ATOM     25  C   UNL     1       1.839   7.433  20.466  0.00  0.00    +0.000 A 
ATOM     26  C   UNL     1       2.484   6.501  19.643  0.00  0.00    +0.000 A 
ATOM     27  C   UNL     1       2.707   6.815  18.311  0.00  0.00    +0.000 A 
ATOM     28  C   UNL     1       2.304   8.057  17.822  0.00  0.00    +0.000 A 
ATOM     29  C   UNL     1       1.670   9.004  18.642  0.00  0.00    +0.000 A 
BRANCH  26  30
ATOM     30  O   UNL     1       2.869   5.350  20.275  0.00  0.00    +0.000 OA
ATOM     31  C   UNL     1       3.190   4.235  19.449  0.00  0.00    +0.000 C 
ENDBRANCH  26  30
BRANCH  29  32
ATOM     32  O   UNL     1       1.483  10.200  18.002  0.00  0.00    +0.000 OA
ATOM     33  C   UNL     1       2.596  11.050  17.771  0.00  0.00    +0.000 C 
ENDBRANCH  29  32
ENDBRANCH  23  24
ENDBRANCH  21  23
ENDBRANCH   9  19
BRANCH   1  35
ATOM     34  C   UNL     1      -7.199  10.067  18.987  0.00  0.00    +0.000 C 
ATOM     35  C   UNL     1      -7.432  10.437  20.444  0.00  0.00    +0.000 C 
ENDBRANCH   1  35
TORSDOF 6
ENDMDL
MODEL 7
REMARK VINA RESULT:      -7.0      1.675      2.755
REMARK  Name = 
REMARK  9 active torsions:
REMARK  status: ('A' for Active; 'I' for Inactive)
REMARK    1  A    between atoms: C_1  and  C_2
REMARK    2  A    between atoms: C_2  and  C_3
REMARK    3  A    between atoms: C_11  and  C_12
REMARK    4  A    between atoms: N_14  and  C_15
REMARK    5  A    between atoms: C_15  and  C_16
REMARK    6  A    between atoms: C_18  and  O_19
REMARK    7  A    between atoms: O_19  and  C_20
REMARK    8  A    between atoms: C_23  and  O_24
REMARK    9  A    between atoms: O_24  and  C_25
REMARK                            x       y       z     vdW  Elec       q    Type
REMARK                         _______ _______ _______ _____ _____    ______ ____
ROOT
ATOM      1  C   UNL     1      -6.162  12.147  18.433  0.00  0.00    +0.000 C 
ATOM      2  C   UNL     1      -4.812  12.353  17.758  0.00  0.00    +0.000 C 
ATOM      3  N   UNL     1      -3.701  11.796  18.557  0.00  0.00    +0.000 N 
ATOM      4  C   UNL     1      -2.868  10.865  17.803  0.00  0.00    +0.000 C 
ATOM      5  O   UNL     1      -3.220  10.477  16.684  0.00  0.00    +0.000 OA
ATOM      6  N   UNL     1      -1.637  10.425  18.285  0.00  0.00    +0.000 N 
ATOM      7  C   UNL     1      -1.137  10.980  19.453  0.00  0.00    +0.000 C 
ATOM      8  C   UNL     1       0.293  11.411  19.600  0.00  0.00    +0.000 C 
ATOM      9  C   UNL     1       1.223  10.345  19.122  0.00  0.00    +0.000 C 
ATOM     10  C   UNL     1       0.730   9.873  17.728  0.00  0.00    +0.000 C 
ATOM     11  C   UNL     1      -0.756   9.419  17.675  0.00  0.00    +0.000 C 
ATOM     12  C   UNL     1      -3.831  12.230  19.989  0.00  0.00    +0.000 A 
ATOM     13  C   UNL     1      -2.831  12.398  20.962  0.00  0.00    +0.000 A 
ATOM     14  C   UNL     1      -3.040  12.544  22.343  0.00  0.00    +0.000 A 
ATOM     15  C   UNL     1      -4.298  12.828  22.784  0.00  0.00    +0.000 A 
ATOM     16  C   UNL     1      -5.309  12.943  21.837  0.00  0.00    +0.000 A 
ATOM     17  C   UNL     1      -5.089  12.619  20.476  0.00  0.00    +0.000 A 
ATOM     18  O   UNL     1      -6.218  12.779  19.712  0.00  0.00    +0.000 OA
ENDROOT
BRANCH   9  19
ATOM     19  C   UNL     1       1.362   9.235  20.157  0.00  0.00    +0.000 C 
ATOM     20  O   UNL     1       1.219   9.453  21.349  0.00  0.00    +0.000 OA
ATOM     21  N   UNL     1       1.614   7.966  19.655  0.00  0.00    +0.000 N 
ATOM     22  H   UNL     1       1.978   7.863  18.737  0.00  0.00    +0.000 HD
BRANCH  21  23
ATOM     23  C   UNL     1       1.821   6.863  20.576  0.00  0.00    +0.000 C 
BRANCH  23  24
ATOM     24  C   UNL     1       2.702   5.732  20.100  0.00  0.00    +0.000 A 
ATOM     25  C   UNL     1       3.807   5.984  19.255  0.00  0.00    +0.000 A 
ATOM     26  C   UNL     1       4.580   4.954  18.703  0.00  0.00    +0.000 A 
ATOM     27  C   UNL     1       4.280   3.639  19.023  0.00  0.00    +0.000 A 
ATOM     28  C   UNL     1       3.206   3.365  19.869  0.00  0.00    +0.000 A 
ATOM     29  C   UNL     1       2.416   4.389  20.414  0.00  0.00    +0.000 A 
BRANCH  26  30
ATOM     30  O   UNL     1       5.565   5.372  17.849  0.00  0.00    +0.000 OA
ATOM     31  C   UNL     1       5.782   4.589  16.680  0.00  0.00    +0.000 C 
ENDBRANCH  26  30
BRANCH  29  32
ATOM     32  O   UNL     1       1.338   3.900  21.103  0.00  0.00    +0.000 OA
ATOM     33  C   UNL     1       1.414   2.611  21.694  0.00  0.00    +0.000 C 
ENDBRANCH  29  32
ENDBRANCH  23  24
ENDBRANCH  21  23
ENDBRANCH   9  19
BRANCH   1  35
ATOM     34  C   UNL     1      -7.266  10.347  19.844  0.00  0.00    +0.000 C 
ATOM     35  C   UNL     1      -6.559  10.669  18.535  0.00  0.00    +0.000 C 
ENDBRANCH   1  35
TORSDOF 6
ENDMDL
MODEL 8
REMARK VINA RESULT:      -6.9      4.342      8.010
REMARK  Name = 
REMARK  9 active torsions:
REMARK  status: ('A' for Active; 'I' for Inactive)
REMARK    1  A    between atoms: C_1  and  C_2
REMARK    2  A    between atoms: C_2  and  C_3
REMARK    3  A    between atoms: C_11  and  C_12
REMARK    4  A    between atoms: N_14  and  C_15
REMARK    5  A    between atoms: C_15  and  C_16
REMARK    6  A    between atoms: C_18  and  O_19
REMARK    7  A    between atoms: O_19  and  C_20
REMARK    8  A    between atoms: C_23  and  O_24
REMARK    9  A    between atoms: O_24  and  C_25
REMARK                            x       y       z     vdW  Elec       q    Type
REMARK                         _______ _______ _______ _____ _____    ______ ____
ROOT
ATOM      1  C   UNL     1       3.524  16.489  19.294  0.00  0.00    +0.000 C 
ATOM      2  C   UNL     1       2.906  16.417  20.685  0.00  0.00    +0.000 C 
ATOM      3  N   UNL     1       1.495  15.981  20.643  0.00  0.00    +0.000 N 
ATOM      4  C   UNL     1       1.229  14.832  21.502  0.00  0.00    +0.000 C 
ATOM      5  O   UNL     1       2.161  14.216  22.028  0.00  0.00    +0.000 OA
ATOM      6  N   UNL     1      -0.070  14.423  21.799  0.00  0.00    +0.000 N 
ATOM      7  C   UNL     1      -1.134  15.201  21.367  0.00  0.00    +0.000 C 
ATOM      8  C   UNL     1      -2.302  15.537  22.246  0.00  0.00    +0.000 C 
ATOM      9  C   UNL     1      -2.828  14.316  22.926  0.00  0.00    +0.000 C 
ATOM     10  C   UNL     1      -1.622  13.564  23.551  0.00  0.00    +0.000 C 
ATOM     11  C   UNL     1      -0.470  13.232  22.562  0.00  0.00    +0.000 C 
ATOM     12  C   UNL     1       0.749  16.756  19.594  0.00  0.00    +0.000 A 
ATOM     13  C   UNL     1      -0.619  17.072  19.526  0.00  0.00    +0.000 A 
ATOM     14  C   UNL     1      -1.297  17.563  18.398  0.00  0.00    +0.000 A 
ATOM     15  C   UNL     1      -0.562  18.045  17.356  0.00  0.00    +0.000 A 
ATOM     16  C   UNL     1       0.823  18.009  17.466  0.00  0.00    +0.000 A 
ATOM     17  C   UNL     1       1.465  17.351  18.543  0.00  0.00    +0.000 A 
ATOM     18  O   UNL     1       2.833  17.413  18.453  0.00  0.00    +0.000 OA
ENDROOT
BRANCH   9  19
ATOM     19  C   UNL     1      -3.675  13.481  21.974  0.00  0.00    +0.000 C 
ATOM     20  O   UNL     1      -4.342  12.539  22.371  0.00  0.00    +0.000 OA
ATOM     21  N   UNL     1      -3.673  13.887  20.647  0.00  0.00    +0.000 N 
ATOM     22  H   UNL     1      -2.942  14.469  20.310  0.00  0.00    +0.000 HD
BRANCH  21  23
ATOM     23  C   UNL     1      -4.405  13.111  19.662  0.00  0.00    +0.000 C 
BRANCH  23  24
ATOM     24  C   UNL     1      -3.649  12.003  18.967  0.00  0.00    +0.000 A 
ATOM     25  C   UNL     1      -2.259  11.841  19.167  0.00  0.00    +0.000 A 
ATOM     26  C   UNL     1      -1.503  10.899  18.456  0.00  0.00    +0.000 A 
ATOM     27  C   UNL     1      -2.141  10.066  17.550  0.00  0.00    +0.000 A 
ATOM     28  C   UNL     1      -3.515  10.194  17.347  0.00  0.00    +0.000 A 
ATOM     29  C   UNL     1      -4.278  11.145  18.043  0.00  0.00    +0.000 A 
BRANCH  26  30
ATOM     30  O   UNL     1      -0.161  10.925  18.720  0.00  0.00    +0.000 OA
ATOM     31  C   UNL     1       0.453  12.205  18.824  0.00  0.00    +0.000 C 
ENDBRANCH  26  30
BRANCH  29  32
ATOM     32  O   UNL     1      -5.572  11.195  17.598  0.00  0.00    +0.000 OA
ATOM     33  C   UNL     1      -6.621  10.763  18.451  0.00  0.00    +0.000 C 
ENDBRANCH  29  32
ENDBRANCH  23  24
ENDBRANCH  21  23
ENDBRANCH   9  19
BRANCH   1  35
ATOM     34  C   UNL     1       4.962  14.939  17.887  0.00  0.00    +0.000 C 
ATOM     35  C   UNL     1       3.640  15.117  18.620  0.00  0.00    +0.000 C 
ENDBRANCH   1  35
TORSDOF 6
ENDMDL
MODEL 9
REMARK VINA RESULT:      -6.8      3.083      4.786
REMARK  Name = 
REMARK  9 active torsions:
REMARK  status: ('A' for Active; 'I' for Inactive)
REMARK    1  A    between atoms: C_1  and  C_2
REMARK    2  A    between atoms: C_2  and  C_3
REMARK    3  A    between atoms: C_11  and  C_12
REMARK    4  A    between atoms: N_14  and  C_15
REMARK    5  A    between atoms: C_15  and  C_16
REMARK    6  A    between atoms: C_18  and  O_19
REMARK    7  A    between atoms: O_19  and  C_20
REMARK    8  A    between atoms: C_23  and  O_24
REMARK    9  A    between atoms: O_24  and  C_25
REMARK                            x       y       z     vdW  Elec       q    Type
REMARK                         _______ _______ _______ _____ _____    ______ ____
ROOT
ATOM      1  C   UNL     1      -0.953  15.866  22.109  0.00  0.00    +0.000 C 
ATOM      2  C   UNL     1      -1.156  15.254  20.728  0.00  0.00    +0.000 C 
ATOM      3  N   UNL     1      -0.313  14.058  20.521  0.00  0.00    +0.000 N 
ATOM      4  C   UNL     1      -1.079  12.887  20.109  0.00  0.00    +0.000 C 
ATOM      5  O   UNL     1      -2.314  12.906  20.137  0.00  0.00    +0.000 OA
ATOM      6  N   UNL     1      -0.458  11.737  19.625  0.00  0.00    +0.000 N 
ATOM      7  C   UNL     1       0.913  11.753  19.414  0.00  0.00    +0.000 C 
ATOM      8  C   UNL     1       1.551  11.191  18.179  0.00  0.00    +0.000 C 
ATOM      9  C   UNL     1       1.021   9.828  17.876  0.00  0.00    +0.000 C 
ATOM     10  C   UNL     1      -0.528   9.894  17.946  0.00  0.00    +0.000 C 
ATOM     11  C   UNL     1      -1.103  10.464  19.273  0.00  0.00    +0.000 C 
ATOM     12  C   UNL     1       1.098  14.345  20.949  0.00  0.00    +0.000 A 
ATOM     13  C   UNL     1       2.298  13.767  20.501  0.00  0.00    +0.000 A 
ATOM     14  C   UNL     1       3.552  13.882  21.123  0.00  0.00    +0.000 A 
ATOM     15  C   UNL     1       3.719  14.841  22.077  0.00  0.00    +0.000 A 
ATOM     16  C   UNL     1       2.628  15.643  22.391  0.00  0.00    +0.000 A 
ATOM     17  C   UNL     1       1.339  15.381  21.865  0.00  0.00    +0.000 A 
ATOM     18  O   UNL     1       0.400  16.275  22.313  0.00  0.00    +0.000 OA
ENDROOT
BRANCH   9  19
ATOM     19  C   UNL     1       1.655   8.780  18.783  0.00  0.00    +0.000 C 
ATOM     20  O   UNL     1       1.445   8.765  19.985  0.00  0.00    +0.000 OA
ATOM     21  N   UNL     1       2.442   7.828  18.151  0.00  0.00    +0.000 N 
ATOM     22  H   UNL     1       2.802   8.010  17.243  0.00  0.00    +0.000 HD
BRANCH  21  23
ATOM     23  C   UNL     1       3.132   6.830  18.947  0.00  0.00    +0.000 C 
BRANCH  23  24
ATOM     24  C   UNL     1       2.808   5.383  18.660  0.00  0.00    +0.000 A 
ATOM     25  C   UNL     1       1.952   4.651  19.514  0.00  0.00    +0.000 A 
ATOM     26  C   UNL     1       1.716   3.280  19.344  0.00  0.00    +0.000 A 
ATOM     27  C   UNL     1       2.309   2.619  18.280  0.00  0.00    +0.000 A 
ATOM     28  C   UNL     1       3.143   3.323  17.412  0.00  0.00    +0.000 A 
ATOM     29  C   UNL     1       3.398   4.693  17.582  0.00  0.00    +0.000 A 
BRANCH  26  30
ATOM     30  O   UNL     1       0.921   2.713  20.303  0.00  0.00    +0.000 OA
ATOM     31  C   UNL     1       1.461   2.618  21.618  0.00  0.00    +0.000 C 
ENDBRANCH  26  30
BRANCH  29  32
ATOM     32  O   UNL     1       4.344   5.155  16.708  0.00  0.00    +0.000 OA
ATOM     33  C   UNL     1       5.648   4.594  16.729  0.00  0.00    +0.000 C 
ENDBRANCH  29  32
ENDBRANCH  23  24
ENDBRANCH  21  23
ENDBRANCH   9  19
BRANCH   1  35
ATOM     34  C   UNL     1      -1.165  15.547  24.619  0.00  0.00    +0.000 C 
ATOM     35  C   UNL     1      -1.425  14.949  23.243  0.00  0.00    +0.000 C 
ENDBRANCH   1  35
TORSDOF 6
ENDMDL
