MODEL 1
REMARK VINA RESULT:      -7.8      0.000      0.000
REMARK  Name = 
REMARK  8 active torsions:
REMARK  status: ('A' for Active; 'I' for Inactive)
REMARK    1  A    between atoms: C_1  and  C_2
REMARK    2  A    between atoms: N_4  and  C_5
REMARK    3  A    between atoms: C_8  and  N_9
REMARK    4  A    between atoms: C_10  and  C_12
REMARK    5  A    between atoms: C_12  and  O_13
REMARK    6  A    between atoms: O_13  and  C_14
REMARK    7  A    between atoms: C_14  and  C_16
REMARK    8  A    between atoms: C_19  and  N_20
REMARK                            x       y       z     vdW  Elec       q    Type
REMARK                         _______ _______ _______ _____ _____    ______ ____
ROOT
ATOM      1  N   UNL     1       2.990   6.261  19.839  0.00  0.00    +0.000 N 
ATOM      2  C   UNL     1       2.615   4.972  19.479  0.00  0.00    +0.000 C 
ATOM      3  O   UNL     1       1.597   4.653  18.868  0.00  0.00    +0.000 OA
ATOM      4  H   UNL     1       3.824   6.367  20.404  0.00  0.00    +0.000 HD
ENDROOT
BRANCH   1   8
ATOM      5  C   UNL     1       0.870   9.827  18.904  0.00  0.00    +0.000 A 
ATOM      6  C   UNL     1       0.827   9.296  20.188  0.00  0.00    +0.000 A 
ATOM      7  C   UNL     1       1.517   8.120  20.506  0.00  0.00    +0.000 A 
ATOM      8  C   UNL     1       2.274   7.446  19.553  0.00  0.00    +0.000 A 
ATOM      9  C   UNL     1       2.315   7.972  18.255  0.00  0.00    +0.000 A 
ATOM     10  C   UNL     1       1.607   9.146  17.928  0.00  0.00    +0.000 A 
BRANCH   5  14
ATOM     11  C   UNL     1      -0.376  13.352  18.391  0.00  0.00    +0.000 C 
ATOM     12  C   UNL     1       0.638  12.303  18.759  0.00  0.00    +0.000 C 
ATOM     13  O   UNL     1       1.736  12.635  19.190  0.00  0.00    +0.000 OA
ATOM     14  N   UNL     1       0.182  11.009  18.551  0.00  0.00    +0.000 N 
ATOM     15  H   UNL     1      -0.681  10.898  18.033  0.00  0.00    +0.000 HD
ENDBRANCH   5  14
ENDBRANCH   1   8
BRANCH   2  16
ATOM     16  C   UNL     1       3.592   3.880  19.916  0.00  0.00    +0.000 C 
BRANCH  16  17
ATOM     17  O   UNL     1       4.569   3.633  18.905  0.00  0.00    +0.000 OA
BRANCH  17  18
ATOM     18  C   UNL     1       5.510   4.610  18.783  0.00  0.00    +0.000 C 
ATOM     19  O   UNL     1       6.210   5.006  19.708  0.00  0.00    +0.000 OA
BRANCH  18  20
ATOM     20  C   UNL     1       5.544   5.119  17.430  0.00  0.00    +0.000 A 
ATOM     21  C   UNL     1       4.889   6.200  16.856  0.00  0.00    +0.000 A 
ATOM     22  C   UNL     1       5.292   6.262  15.497  0.00  0.00    +0.000 A 
ATOM     23  C   UNL     1       6.172   5.218  15.332  0.00  0.00    +0.000 A 
ATOM     24  O   UNL     1       6.333   4.511  16.482  0.00  0.00    +0.000 OA
BRANCH  23  25
ATOM     25  N   UNL     1       6.910   4.767  14.193  0.00  0.00    +0.000 N 
ATOM     26  O   UNL     1       7.893   5.450  13.876  0.00  0.00    +0.000 OA
ATOM     27  O   UNL     1       6.516   3.747  13.613  0.00  0.00    +0.000 OA
ENDBRANCH  23  25
ENDBRANCH  18  20
ENDBRANCH  17  18
ENDBRANCH  16  17
ENDBRANCH   2  16
TORSDOF 7
ENDMDL
MODEL 2
REMARK VINA RESULT:      -7.8      1.989      2.633
REMARK  Name = 
REMARK  8 active torsions:
REMARK  status: ('A' for Active; 'I' for Inactive)
REMARK    1  A    between atoms: C_1  and  C_2
REMARK    2  A    between atoms: N_4  and  C_5
REMARK    3  A    between atoms: C_8  and  N_9
REMARK    4  A    between atoms: C_10  and  C_12
REMARK    5  A    between atoms: C_12  and  O_13
REMARK    6  A    between atoms: O_13  and  C_14
REMARK    7  A    between atoms: C_14  and  C_16
REMARK    8  A    between atoms: C_19  and  N_20
REMARK                            x       y       z     vdW  Elec       q    Type
REMARK                         _______ _______ _______ _____ _____    ______ ____
ROOT
ATOM      1  N   UNL     1       2.633   5.920  20.633  0.00  0.00    +0.000 N 
ATOM      2  C   UNL     1       1.980   4.693  20.650  0.00  0.00    +0.000 C 
ATOM      3  O   UNL     1       0.822   4.479  20.297  0.00  0.00    +0.000 OA
ATOM      4  H   UNL     1       3.567   5.960  21.022  0.00  0.00    +0.000 HD
ENDROOT
BRANCH   1   8
ATOM      5  C   UNL     1       0.955   9.618  19.371  0.00  0.00    +0.000 A 
ATOM      6  C   UNL     1       1.654   8.817  18.475  0.00  0.00    +0.000 A 
ATOM      7  C   UNL     1       2.215   7.601  18.880  0.00  0.00    +0.000 A 
ATOM      8  C   UNL     1       2.087   7.147  20.188  0.00  0.00    +0.000 A 
ATOM      9  C   UNL     1       1.391   7.952  21.098  0.00  0.00    +0.000 A 
ATOM     10  C   UNL     1       0.841   9.186  20.697  0.00  0.00    +0.000 A 
BRANCH   5  14
ATOM     11  C   UNL     1      -1.172  12.445  18.057  0.00  0.00    +0.000 C 
ATOM     12  C   UNL     1      -0.896  11.028  18.482  0.00  0.00    +0.000 C 
ATOM     13  O   UNL     1      -1.764  10.170  18.360  0.00  0.00    +0.000 OA
ATOM     14  N   UNL     1       0.382  10.853  18.994  0.00  0.00    +0.000 N 
ATOM     15  H   UNL     1       0.923  11.686  19.186  0.00  0.00    +0.000 HD
ENDBRANCH   5  14
ENDBRANCH   1   8
BRANCH   2  16
ATOM     16  C   UNL     1       2.822   3.532  21.178  0.00  0.00    +0.000 C 
BRANCH  16  17
ATOM     17  O   UNL     1       3.072   2.573  20.150  0.00  0.00    +0.000 OA
BRANCH  17  18
ATOM     18  C   UNL     1       4.382   2.461  19.794  0.00  0.00    +0.000 C 
ATOM     19  O   UNL     1       5.152   1.633  20.266  0.00  0.00    +0.000 OA
BRANCH  18  20
ATOM     20  C   UNL     1       4.730   3.462  18.810  0.00  0.00    +0.000 A 
ATOM     21  C   UNL     1       4.092   3.830  17.633  0.00  0.00    +0.000 A 
ATOM     22  C   UNL     1       4.852   4.878  17.054  0.00  0.00    +0.000 A 
ATOM     23  C   UNL     1       5.900   5.087  17.918  0.00  0.00    +0.000 A 
ATOM     24  O   UNL     1       5.851   4.240  18.980  0.00  0.00    +0.000 OA
BRANCH  23  25
ATOM     25  N   UNL     1       6.994   6.007  17.883  0.00  0.00    +0.000 N 
ATOM     26  O   UNL     1       7.241   6.518  16.782  0.00  0.00    +0.000 OA
ATOM     27  O   UNL     1       7.609   6.219  18.936  0.00  0.00    +0.000 OA
ENDBRANCH  23  25
ENDBRANCH  18  20
ENDBRANCH  17  18
ENDBRANCH  16  17
ENDBRANCH   2  16
TORSDOF 7
ENDMDL
MODEL 3
REMARK VINA RESULT:      -7.8      1.440      2.159
REMARK  Name = 
REMARK  8 active torsions:
REMARK  status: ('A' for Active; 'I' for Inactive)
REMARK    1  A    between atoms: C_1  and  C_2
REMARK    2  A    between atoms: N_4  and  C_5
REMARK    3  A    between atoms: C_8  and  N_9
REMARK    4  A    between atoms: C_10  and  C_12
REMARK    5  A    between atoms: C_12  and  O_13
REMARK    6  A    between atoms: O_13  and  C_14
REMARK    7  A    between atoms: C_14  and  C_16
REMARK    8  A    between atoms: C_19  and  N_20
REMARK                            x       y       z     vdW  Elec       q    Type
REMARK                         _______ _______ _______ _____ _____    ______ ____
ROOT
ATOM      1  N   UNL     1       2.596   6.245  20.329  0.00  0.00    +0.000 N 
ATOM      2  C   UNL     1       1.900   5.065  20.564  0.00  0.00    +0.000 C 
ATOM      3  O   UNL     1       0.699   4.880  20.388  0.00  0.00    +0.000 OA
ATOM      4  H   UNL     1       3.575   6.274  20.589  0.00  0.00    +0.000 HD
ENDROOT
BRANCH   1   8
ATOM      5  C   UNL     1       0.904   9.870  18.887  0.00  0.00    +0.000 A 
ATOM      6  C   UNL     1       1.696   9.082  18.060  0.00  0.00    +0.000 A 
ATOM      7  C   UNL     1       2.262   7.890  18.525  0.00  0.00    +0.000 A 
ATOM      8  C   UNL     1       2.048   7.448  19.826  0.00  0.00    +0.000 A 
ATOM      9  C   UNL     1       1.257   8.241  20.667  0.00  0.00    +0.000 A 
ATOM     10  C   UNL     1       0.701   9.451  20.207  0.00  0.00    +0.000 A 
BRANCH   5  14
ATOM     11  C   UNL     1      -0.182  13.437  18.302  0.00  0.00    +0.000 C 
ATOM     12  C   UNL     1       0.710  12.354  18.844  0.00  0.00    +0.000 C 
ATOM     13  O   UNL     1       1.666  12.644  19.554  0.00  0.00    +0.000 OA
ATOM     14  N   UNL     1       0.322  11.081  18.449  0.00  0.00    +0.000 N 
ATOM     15  H   UNL     1      -0.385  11.014  17.728  0.00  0.00    +0.000 HD
ENDBRANCH   5  14
ENDBRANCH   1   8
BRANCH   2  16
ATOM     16  C   UNL     1       2.757   3.920  21.105  0.00  0.00    +0.000 C 
BRANCH  16  17
ATOM     17  O   UNL     1       3.019   2.954  20.086  0.00  0.00    +0.000 OA
BRANCH  17  18
ATOM     18  C   UNL     1       4.329   2.861  19.725  0.00  0.00    +0.000 C 
ATOM     19  O   UNL     1       5.150   2.156  20.300  0.00  0.00    +0.000 OA
BRANCH  18  20
ATOM     20  C   UNL     1       4.608   3.721  18.597  0.00  0.00    +0.000 A 
ATOM     21  C   UNL     1       3.847   4.010  17.473  0.00  0.00    +0.000 A 
ATOM     22  C   UNL     1       4.590   4.927  16.687  0.00  0.00    +0.000 A 
ATOM     23  C   UNL     1       5.754   5.143  17.385  0.00  0.00    +0.000 A 
ATOM     24  O   UNL     1       5.790   4.421  18.536  0.00  0.00    +0.000 OA
BRANCH  23  25
ATOM     25  N   UNL     1       6.891   5.965  17.108  0.00  0.00    +0.000 N 
ATOM     26  O   UNL     1       7.439   5.787  16.012  0.00  0.00    +0.000 OA
ATOM     27  O   UNL     1       7.243   6.779  17.972  0.00  0.00    +0.000 OA
ENDBRANCH  23  25
ENDBRANCH  18  20
ENDBRANCH  17  18
ENDBRANCH  16  17
ENDBRANCH   2  16
TORSDOF 7
ENDMDL
MODEL 4
REMARK VINA RESULT:      -7.8      0.774      1.040
REMARK  Name = 
REMARK  8 active torsions:
REMARK  status: ('A' for Active; 'I' for Inactive)
REMARK    1  A    between atoms: C_1  and  C_2
REMARK    2  A    between atoms: N_4  and  C_5
REMARK    3  A    between atoms: C_8  and  N_9
REMARK    4  A    between atoms: C_10  and  C_12
REMARK    5  A    between atoms: C_12  and  O_13
REMARK    6  A    between atoms: O_13  and  C_14
REMARK    7  A    between atoms: C_14  and  C_16
REMARK    8  A    between atoms: C_19  and  N_20
REMARK                            x       y       z     vdW  Elec       q    Type
REMARK                         _______ _______ _______ _____ _____    ______ ____
ROOT
ATOM      1  N   UNL     1       2.889   6.170  19.850  0.00  0.00    +0.000 N 
ATOM      2  C   UNL     1       2.304   4.924  20.046  0.00  0.00    +0.000 C 
ATOM      3  O   UNL     1       1.100   4.686  20.101  0.00  0.00    +0.000 OA
ATOM      4  H   UNL     1       3.900   6.227  19.898  0.00  0.00    +0.000 HD
ENDROOT
BRANCH   1   8
ATOM      5  C   UNL     1       0.853   9.847  19.205  0.00  0.00    +0.000 A 
ATOM      6  C   UNL     1       0.870   9.260  20.465  0.00  0.00    +0.000 A 
ATOM      7  C   UNL     1       1.532   8.048  20.688  0.00  0.00    +0.000 A 
ATOM      8  C   UNL     1       2.202   7.392  19.661  0.00  0.00    +0.000 A 
ATOM      9  C   UNL     1       2.182   7.973  18.387  0.00  0.00    +0.000 A 
ATOM     10  C   UNL     1       1.500   9.184  18.156  0.00  0.00    +0.000 A 
BRANCH   5  14
ATOM     11  C   UNL     1      -0.182  13.435  18.658  0.00  0.00    +0.000 C 
ATOM     12  C   UNL     1       0.800  12.304  18.798  0.00  0.00    +0.000 C 
ATOM     13  O   UNL     1       2.005  12.531  18.772  0.00  0.00    +0.000 OA
ATOM     14  N   UNL     1       0.189  11.067  18.947  0.00  0.00    +0.000 N 
ATOM     15  H   UNL     1      -0.808  11.019  18.781  0.00  0.00    +0.000 HD
ENDBRANCH   5  14
ENDBRANCH   1   8
BRANCH   2  16
ATOM     16  C   UNL     1       3.298   3.775  20.214  0.00  0.00    +0.000 C 
BRANCH  16  17
ATOM     17  O   UNL     1       4.421   3.940  19.347  0.00  0.00    +0.000 OA
BRANCH  17  18
ATOM     18  C   UNL     1       4.256   3.402  18.107  0.00  0.00    +0.000 C 
ATOM     19  O   UNL     1       3.772   2.296  17.899  0.00  0.00    +0.000 OA
BRANCH  18  20
ATOM     20  C   UNL     1       4.751   4.304  17.091  0.00  0.00    +0.000 A 
ATOM     21  C   UNL     1       4.538   5.663  16.910  0.00  0.00    +0.000 A 
ATOM     22  C   UNL     1       5.274   6.055  15.762  0.00  0.00    +0.000 A 
ATOM     23  C   UNL     1       5.894   4.910  15.321  0.00  0.00    +0.000 A 
ATOM     24  O   UNL     1       5.588   3.841  16.103  0.00  0.00    +0.000 OA
BRANCH  23  25
ATOM     25  N   UNL     1       6.767   4.667  14.216  0.00  0.00    +0.000 N 
ATOM     26  O   UNL     1       7.770   5.390  14.144  0.00  0.00    +0.000 OA
ATOM     27  O   UNL     1       6.461   3.769  13.421  0.00  0.00    +0.000 OA
ENDBRANCH  23  25
ENDBRANCH  18  20
ENDBRANCH  17  18
ENDBRANCH  16  17
ENDBRANCH   2  16
TORSDOF 7
ENDMDL
MODEL 5
REMARK VINA RESULT:      -7.7      1.731      2.116
REMARK  Name = 
REMARK  8 active torsions:
REMARK  status: ('A' for Active; 'I' for Inactive)
REMARK    1  A    between atoms: C_1  and  C_2
REMARK    2  A    between atoms: N_4  and  C_5
REMARK    3  A    between atoms: C_8  and  N_9
REMARK    4  A    between atoms: C_10  and  C_12
REMARK    5  A    between atoms: C_12  and  O_13
REMARK    6  A    between atoms: O_13  and  C_14
REMARK    7  A    between atoms: C_14  and  C_16
REMARK    8  A    between atoms: C_19  and  N_20
REMARK                            x       y       z     vdW  Elec       q    Type
REMARK                         _______ _______ _______ _____ _____    ______ ____
ROOT
ATOM      1  N   UNL     1       2.555   5.893  20.568  0.00  0.00    +0.000 N 
ATOM      2  C   UNL     1       1.864   4.687  20.551  0.00  0.00    +0.000 C 
ATOM      3  O   UNL     1       0.721   4.508  20.138  0.00  0.00    +0.000 OA
ATOM      4  H   UNL     1       3.468   5.906  21.005  0.00  0.00    +0.000 HD
ENDROOT
BRANCH   1   8
ATOM      5  C   UNL     1       1.141   9.617  19.077  0.00  0.00    +0.000 A 
ATOM      6  C   UNL     1       0.896   9.244  20.394  0.00  0.00    +0.000 A 
ATOM      7  C   UNL     1       1.351   8.019  20.894  0.00  0.00    +0.000 A 
ATOM      8  C   UNL     1       2.071   7.136  20.096  0.00  0.00    +0.000 A 
ATOM      9  C   UNL     1       2.315   7.501  18.766  0.00  0.00    +0.000 A 
ATOM     10  C   UNL     1       1.841   8.727  18.255  0.00  0.00    +0.000 A 
BRANCH   5  14
ATOM     11  C   UNL     1      -0.799  12.630  17.894  0.00  0.00    +0.000 C 
ATOM     12  C   UNL     1      -0.587  11.368  18.684  0.00  0.00    +0.000 C 
ATOM     13  O   UNL     1      -1.498  10.910  19.366  0.00  0.00    +0.000 OA
ATOM     14  N   UNL     1       0.690  10.844  18.542  0.00  0.00    +0.000 N 
ATOM     15  H   UNL     1       1.381  11.423  18.081  0.00  0.00    +0.000 HD
ENDBRANCH   5  14
ENDBRANCH   1   8
BRANCH   2  16
ATOM     16  C   UNL     1       2.642   3.502  21.122  0.00  0.00    +0.000 C 
BRANCH  16  17
ATOM     17  O   UNL     1       3.812   3.237  20.347  0.00  0.00    +0.000 OA
BRANCH  17  18
ATOM     18  C   UNL     1       3.560   2.835  19.071  0.00  0.00    +0.000 C 
ATOM     19  O   UNL     1       2.906   1.840  18.783  0.00  0.00    +0.000 OA
BRANCH  18  20
ATOM     20  C   UNL     1       4.187   3.728  18.122  0.00  0.00    +0.000 A 
ATOM     21  C   UNL     1       3.630   4.547  17.149  0.00  0.00    +0.000 A 
ATOM     22  C   UNL     1       4.698   5.223  16.506  0.00  0.00    +0.000 A 
ATOM     23  C   UNL     1       5.839   4.777  17.133  0.00  0.00    +0.000 A 
ATOM     24  O   UNL     1       5.555   3.870  18.105  0.00  0.00    +0.000 OA
BRANCH  23  25
ATOM     25  N   UNL     1       7.219   5.093  16.934  0.00  0.00    +0.000 N 
ATOM     26  O   UNL     1       8.034   4.242  17.314  0.00  0.00    +0.000 OA
ATOM     27  O   UNL     1       7.495   6.179  16.409  0.00  0.00    +0.000 OA
ENDBRANCH  23  25
ENDBRANCH  18  20
ENDBRANCH  17  18
ENDBRANCH  16  17
ENDBRANCH   2  16
TORSDOF 7
ENDMDL
MODEL 6
REMARK VINA RESULT:      -7.6      0.341      1.189
REMARK  Name = 
REMARK  8 active torsions:
REMARK  status: ('A' for Active; 'I' for Inactive)
REMARK    1  A    between atoms: C_1  and  C_2
REMARK    2  A    between atoms: N_4  and  C_5
REMARK    3  A    between atoms: C_8  and  N_9
REMARK    4  A    between atoms: C_10  and  C_12
REMARK    5  A    between atoms: C_12  and  O_13
REMARK    6  A    between atoms: O_13  and  C_14
REMARK    7  A    between atoms: C_14  and  C_16
REMARK    8  A    between atoms: C_19  and  N_20
REMARK                            x       y       z     vdW  Elec       q    Type
REMARK                         _______ _______ _______ _____ _____    ______ ____
ROOT
ATOM      1  N   UNL     1       2.991   6.275  19.708  0.00  0.00    +0.000 N 
ATOM      2  C   UNL     1       2.469   4.987  19.741  0.00  0.00    +0.000 C 
ATOM      3  O   UNL     1       1.290   4.675  19.598  0.00  0.00    +0.000 OA
ATOM      4  H   UNL     1       3.976   6.389  19.914  0.00  0.00    +0.000 HD
ENDROOT
BRANCH   1   8
ATOM      5  C   UNL     1       0.755   9.845  19.119  0.00  0.00    +0.000 A 
ATOM      6  C   UNL     1       1.454   9.266  18.065  0.00  0.00    +0.000 A 
ATOM      7  C   UNL     1       2.197   8.095  18.248  0.00  0.00    +0.000 A 
ATOM      8  C   UNL     1       2.257   7.464  19.486  0.00  0.00    +0.000 A 
ATOM      9  C   UNL     1       1.562   8.046  20.555  0.00  0.00    +0.000 A 
ATOM     10  C   UNL     1       0.828   9.236  20.377  0.00  0.00    +0.000 A 
BRANCH   5  14
ATOM     11  C   UNL     1      -0.608  13.363  19.057  0.00  0.00    +0.000 C 
ATOM     12  C   UNL     1       0.468  12.319  19.176  0.00  0.00    +0.000 C 
ATOM     13  O   UNL     1       1.620  12.650  19.433  0.00  0.00    +0.000 OA
ATOM     14  N   UNL     1       0.000  11.029  18.966  0.00  0.00    +0.000 N 
ATOM     15  H   UNL     1      -0.938  10.929  18.599  0.00  0.00    +0.000 HD
ENDBRANCH   5  14
ENDBRANCH   1   8
BRANCH   2  16
ATOM     16  C   UNL     1       3.503   3.890  19.994  0.00  0.00    +0.000 C 
BRANCH  16  17
ATOM     17  O   UNL     1       4.223   3.581  18.800  0.00  0.00    +0.000 OA
BRANCH  17  18
ATOM     18  C   UNL     1       5.376   4.287  18.641  0.00  0.00    +0.000 C 
ATOM     19  O   UNL     1       6.230   4.409  19.511  0.00  0.00    +0.000 OA
BRANCH  18  20
ATOM     20  C   UNL     1       5.432   4.881  17.324  0.00  0.00    +0.000 A 
ATOM     21  C   UNL     1       4.729   5.950  16.786  0.00  0.00    +0.000 A 
ATOM     22  C   UNL     1       5.183   6.124  15.453  0.00  0.00    +0.000 A 
ATOM     23  C   UNL     1       6.138   5.153  15.267  0.00  0.00    +0.000 A 
ATOM     24  O   UNL     1       6.300   4.388  16.378  0.00  0.00    +0.000 OA
BRANCH  23  25
ATOM     25  N   UNL     1       6.952   4.824  14.138  0.00  0.00    +0.000 N 
ATOM     26  O   UNL     1       6.568   3.871  13.447  0.00  0.00    +0.000 OA
ATOM     27  O   UNL     1       7.969   5.502  13.939  0.00  0.00    +0.000 OA
ENDBRANCH  23  25
ENDBRANCH  18  20
ENDBRANCH  17  18
ENDBRANCH  16  17
ENDBRANCH   2  16
TORSDOF 7
ENDMDL
MODEL 7
REMARK VINA RESULT:      -7.6      6.097      6.790
REMARK  Name = 
REMARK  8 active torsions:
REMARK  status: ('A' for Active; 'I' for Inactive)
REMARK    1  A    between atoms: C_1  and  C_2
REMARK    2  A    between atoms: N_4  and  C_5
REMARK    3  A    between atoms: C_8  and  N_9
REMARK    4  A    between atoms: C_10  and  C_12
REMARK    5  A    between atoms: C_12  and  O_13
REMARK    6  A    between atoms: O_13  and  C_14
REMARK    7  A    between atoms: C_14  and  C_16
REMARK    8  A    between atoms: C_19  and  N_20
REMARK                            x       y       z     vdW  Elec       q    Type
REMARK                         _______ _______ _______ _____ _____    ______ ____
ROOT
ATOM      1  N   UNL     1       9.243   9.384  19.048  0.00  0.00    +0.000 N 
ATOM      2  C   UNL     1       8.268   8.737  18.299  0.00  0.00    +0.000 C 
ATOM      3  O   UNL     1       7.499   9.260  17.497  0.00  0.00    +0.000 OA
ATOM      4  H   UNL     1       9.758   8.834  19.725  0.00  0.00    +0.000 HD
ENDROOT
BRANCH   1   8
ATOM      5  C   UNL     1      10.177  13.529  18.866  0.00  0.00    +0.000 A 
ATOM      6  C   UNL     1       9.540  12.996  19.981  0.00  0.00    +0.000 A 
ATOM      7  C   UNL     1       9.223  11.635  20.050  0.00  0.00    +0.000 A 
ATOM      8  C   UNL     1       9.540  10.766  19.012  0.00  0.00    +0.000 A 
ATOM      9  C   UNL     1      10.175  11.297  17.881  0.00  0.00    +0.000 A 
ATOM     10  C   UNL     1      10.479  12.671  17.802  0.00  0.00    +0.000 A 
BRANCH   5  14
ATOM     11  C   UNL     1      10.350  17.236  18.179  0.00  0.00    +0.000 C 
ATOM     12  C   UNL     1       9.671  15.897  18.281  0.00  0.00    +0.000 C 
ATOM     13  O   UNL     1       8.495  15.778  17.954  0.00  0.00    +0.000 OA
ATOM     14  N   UNL     1      10.506  14.899  18.765  0.00  0.00    +0.000 N 
ATOM     15  H   UNL     1      11.397  15.185  19.149  0.00  0.00    +0.000 HD
ENDBRANCH   5  14
ENDBRANCH   1   8
BRANCH   2  16
ATOM     16  C   UNL     1       8.177   7.230  18.541  0.00  0.00    +0.000 C 
BRANCH  16  17
ATOM     17  O   UNL     1       7.224   6.628  17.664  0.00  0.00    +0.000 OA
BRANCH  17  18
ATOM     18  C   UNL     1       7.336   5.276  17.558  0.00  0.00    +0.000 C 
ATOM     19  O   UNL     1       7.720   4.547  18.465  0.00  0.00    +0.000 OA
BRANCH  18  20
ATOM     20  C   UNL     1       6.963   4.836  16.232  0.00  0.00    +0.000 A 
ATOM     21  C   UNL     1       5.954   3.977  15.817  0.00  0.00    +0.000 A 
ATOM     22  C   UNL     1       6.021   3.903  14.402  0.00  0.00    +0.000 A 
ATOM     23  C   UNL     1       7.063   4.726  14.044  0.00  0.00    +0.000 A 
ATOM     24  O   UNL     1       7.650   5.293  15.132  0.00  0.00    +0.000 OA
BRANCH  23  25
ATOM     25  N   UNL     1       7.613   5.065  12.769  0.00  0.00    +0.000 N 
ATOM     26  O   UNL     1       7.298   4.327  11.825  0.00  0.00    +0.000 OA
ATOM     27  O   UNL     1       8.356   6.053  12.702  0.00  0.00    +0.000 OA
ENDBRANCH  23  25
ENDBRANCH  18  20
ENDBRANCH  17  18
ENDBRANCH  16  17
ENDBRANCH   2  16
TORSDOF 7
ENDMDL
MODEL 8
REMARK VINA RESULT:      -7.6      2.270      3.359
REMARK  Name = 
REMARK  8 active torsions:
REMARK  status: ('A' for Active; 'I' for Inactive)
REMARK    1  A    between atoms: C_1  and  C_2
REMARK    2  A    between atoms: N_4  and  C_5
REMARK    3  A    between atoms: C_8  and  N_9
REMARK    4  A    between atoms: C_10  and  C_12
REMARK    5  A    between atoms: C_12  and  O_13
REMARK    6  A    between atoms: O_13  and  C_14
REMARK    7  A    between atoms: C_14  and  C_16
REMARK    8  A    between atoms: C_19  and  N_20
REMARK                            x       y       z     vdW  Elec       q    Type
REMARK                         _______ _______ _______ _____ _____    ______ ____
ROOT
ATOM      1  N   UNL     1       3.669   5.908  17.843  0.00  0.00    +0.000 N 
ATOM      2  C   UNL     1       4.826   5.301  18.317  0.00  0.00    +0.000 C 
ATOM      3  O   UNL     1       5.337   5.468  19.421  0.00  0.00    +0.000 OA
ATOM      4  H   UNL     1       3.403   5.729  16.883  0.00  0.00    +0.000 HD
ENDROOT
BRANCH   1   8
ATOM      5  C   UNL     1       1.242   8.713  19.926  0.00  0.00    +0.000 A 
ATOM      6  C   UNL     1       1.573   7.494  20.509  0.00  0.00    +0.000 A 
ATOM      7  C   UNL     1       2.366   6.562  19.831  0.00  0.00    +0.000 A 
ATOM      8  C   UNL     1       2.858   6.822  18.556  0.00  0.00    +0.000 A 
ATOM      9  C   UNL     1       2.522   8.044  17.960  0.00  0.00    +0.000 A 
ATOM     10  C   UNL     1       1.708   8.977  18.633  0.00  0.00    +0.000 A 
BRANCH   5  14
ATOM     11  C   UNL     1      -0.535  10.990  22.354  0.00  0.00    +0.000 C 
ATOM     12  C   UNL     1       0.542  10.034  21.918  0.00  0.00    +0.000 C 
ATOM     13  O   UNL     1       1.391   9.659  22.719  0.00  0.00    +0.000 OA
ATOM     14  N   UNL     1       0.440   9.672  20.582  0.00  0.00    +0.000 N 
ATOM     15  H   UNL     1      -0.212  10.193  20.008  0.00  0.00    +0.000 HD
ENDBRANCH   5  14
ENDBRANCH   1   8
BRANCH   2  16
ATOM     16  C   UNL     1       5.494   4.348  17.325  0.00  0.00    +0.000 C 
BRANCH  16  17
ATOM     17  O   UNL     1       5.405   4.853  15.993  0.00  0.00    +0.000 OA
BRANCH  17  18
ATOM     18  C   UNL     1       6.603   5.180  15.435  0.00  0.00    +0.000 C 
ATOM     19  O   UNL     1       7.476   5.817  16.012  0.00  0.00    +0.000 OA
BRANCH  18  20
ATOM     20  C   UNL     1       6.683   4.692  14.076  0.00  0.00    +0.000 A 
ATOM     21  C   UNL     1       7.610   4.955  13.077  0.00  0.00    +0.000 A 
ATOM     22  C   UNL     1       7.224   4.203  11.938  0.00  0.00    +0.000 A 
ATOM     23  C   UNL     1       6.089   3.526  12.318  0.00  0.00    +0.000 A 
ATOM     24  O   UNL     1       5.741   3.811  13.600  0.00  0.00    +0.000 OA
BRANCH  23  25
ATOM     25  N   UNL     1       5.246   2.612  11.612  0.00  0.00    +0.000 N 
ATOM     26  O   UNL     1       5.724   1.493  11.383  0.00  0.00    +0.000 OA
ATOM     27  O   UNL     1       4.118   3.001  11.282  0.00  0.00    +0.000 OA
ENDBRANCH  23  25
ENDBRANCH  18  20
ENDBRANCH  17  18
ENDBRANCH  16  17
ENDBRANCH   2  16
TORSDOF 7
ENDMDL
MODEL 9
REMARK VINA RESULT:      -7.5      1.800      2.192
REMARK  Name = 
REMARK  8 active torsions:
REMARK  status: ('A' for Active; 'I' for Inactive)
REMARK    1  A    between atoms: C_1  and  C_2
REMARK    2  A    between atoms: N_4  and  C_5
REMARK    3  A    between atoms: C_8  and  N_9
REMARK    4  A    between atoms: C_10  and  C_12
REMARK    5  A    between atoms: C_12  and  O_13
REMARK    6  A    between atoms: O_13  and  C_14
REMARK    7  A    between atoms: C_14  and  C_16
REMARK    8  A    between atoms: C_19  and  N_20
REMARK                            x       y       z     vdW  Elec       q    Type
REMARK                         _______ _______ _______ _____ _____    ______ ____
ROOT
ATOM      1  N   UNL     1       3.592   6.685  18.866  0.00  0.00    +0.000 N 
ATOM      2  C   UNL     1       3.409   5.315  18.720  0.00  0.00    +0.000 C 
ATOM      3  O   UNL     1       2.333   4.726  18.654  0.00  0.00    +0.000 OA
ATOM      4  H   UNL     1       4.540   7.023  18.978  0.00  0.00    +0.000 HD
ENDROOT
BRANCH   1   8
ATOM      5  C   UNL     1       0.495   9.582  19.190  0.00  0.00    +0.000 A 
ATOM      6  C   UNL     1       1.155   9.385  17.982  0.00  0.00    +0.000 A 
ATOM      7  C   UNL     1       2.179   8.438  17.865  0.00  0.00    +0.000 A 
ATOM      8  C   UNL     1       2.568   7.657  18.948  0.00  0.00    +0.000 A 
ATOM      9  C   UNL     1       1.913   7.856  20.170  0.00  0.00    +0.000 A 
ATOM     10  C   UNL     1       0.894   8.821  20.295  0.00  0.00    +0.000 A 
BRANCH   5  14
ATOM     11  C   UNL     1      -2.546  11.796  18.895  0.00  0.00    +0.000 C 
ATOM     12  C   UNL     1      -1.697  10.596  18.579  0.00  0.00    +0.000 C 
ATOM     13  O   UNL     1      -2.059   9.796  17.723  0.00  0.00    +0.000 OA
ATOM     14  N   UNL     1      -0.538  10.533  19.341  0.00  0.00    +0.000 N 
ATOM     15  H   UNL     1      -0.461  11.172  20.122  0.00  0.00    +0.000 HD
ENDBRANCH   5  14
ENDBRANCH   1   8
BRANCH   2  16
ATOM     16  C   UNL     1       4.704   4.505  18.652  0.00  0.00    +0.000 C 
BRANCH  16  17
ATOM     17  O   UNL     1       5.819   5.348  18.358  0.00  0.00    +0.000 OA
BRANCH  17  18
ATOM     18  C   UNL     1       6.838   4.723  17.707  0.00  0.00    +0.000 C 
ATOM     19  O   UNL     1       7.862   4.332  18.253  0.00  0.00    +0.000 OA
BRANCH  18  20
ATOM     20  C   UNL     1       6.548   4.611  16.294  0.00  0.00    +0.000 A 
ATOM     21  C   UNL     1       5.400   4.183  15.641  0.00  0.00    +0.000 A 
ATOM     22  C   UNL     1       5.647   4.287  14.248  0.00  0.00    +0.000 A 
ATOM     23  C   UNL     1       6.927   4.778  14.142  0.00  0.00    +0.000 A 
ATOM     24  O   UNL     1       7.492   4.974  15.363  0.00  0.00    +0.000 OA
BRANCH  23  25
ATOM     25  N   UNL     1       7.733   5.097  13.005  0.00  0.00    +0.000 N 
ATOM     26  O   UNL     1       7.443   4.515  11.950  0.00  0.00    +0.000 OA
ATOM     27  O   UNL     1       8.649   5.915  13.154  0.00  0.00    +0.000 OA
ENDBRANCH  23  25
ENDBRANCH  18  20
ENDBRANCH  17  18
ENDBRANCH  16  17
ENDBRANCH   2  16
TORSDOF 7
ENDMDL
