MODEL 1
REMARK VINA RESULT:      -6.9      0.000      0.000
REMARK  Name = 
REMARK  5 active torsions:
REMARK  status: ('A' for Active; 'I' for Inactive)
REMARK    1  A    between atoms: C_1  and  O_2
REMARK    2  A    between atoms: O_2  and  C_3
REMARK    3  A    between atoms: C_3  and  C_5
REMARK    4  A    between atoms: C_9  and  C_10
REMARK    5  A    between atoms: C_21  and  N_22
REMARK                            x       y       z     vdW  Elec       q    Type
REMARK                         _______ _______ _______ _____ _____    ______ ____
ROOT
ATOM      1  C   UNL     1      -0.493  11.748  18.494  0.00  0.00    +0.000 C 
ATOM      2  C   UNL     1      -0.345  13.288  18.661  0.00  0.00    +0.000 C 
ATOM      3  C   UNL     1      -0.911  13.906  19.952  0.00  0.00    +0.000 C 
ATOM      4  C   UNL     1      -2.392  13.684  20.251  0.00  0.00    +0.000 C 
ATOM      5  C   UNL     1      -2.875  12.234  20.212  0.00  0.00    +0.000 C 
ATOM      6  C   UNL     1      -3.040  11.748  18.800  0.00  0.00    +0.000 A 
ATOM      7  C   UNL     1      -1.927  11.491  18.003  0.00  0.00    +0.000 A 
ATOM      8  N   UNL     1      -2.051  11.126  16.707  0.00  0.00    +0.000 NA
ATOM      9  C   UNL     1      -3.287  10.971  16.227  0.00  0.00    +0.000 A 
ATOM     10  N   UNL     1      -3.424  10.689  14.881  0.00  0.00    +0.000 N 
ATOM     11  N   UNL     1      -4.407  11.149  16.925  0.00  0.00    +0.000 NA
ATOM     12  C   UNL     1      -4.295  11.545  18.206  0.00  0.00    +0.000 A 
ATOM     13  H   UNL     1      -2.638  11.067  14.375  0.00  0.00    +0.000 HD
ATOM     14  H   UNL     1      -4.344  10.990  14.581  0.00  0.00    +0.000 HD
ENDROOT
BRANCH  12  15
ATOM     15  N   UNL     1      -5.455  11.680  18.952  0.00  0.00    +0.000 N 
ATOM     16  C   UNL     1      -6.458  10.605  18.885  0.00  0.00    +0.000 C 
ATOM     17  C   UNL     1      -7.272  10.659  20.205  0.00  0.00    +0.000 C 
ATOM     18  N   UNL     1      -7.888  11.978  20.494  0.00  0.00    +0.000 NA
ATOM     19  C   UNL     1      -6.888  13.057  20.349  0.00  0.00    +0.000 C 
ATOM     20  C   UNL     1      -6.114  12.993  19.011  0.00  0.00    +0.000 C 
ATOM     21  H   UNL     1      -8.224  11.973  21.456  0.00  0.00    +0.000 HD
ENDBRANCH  12  15
BRANCH   1  26
ATOM     22  C   UNL     1       1.092   8.910  20.554  0.00  0.00    +0.000 A 
ATOM     23  C   UNL     1       1.279   9.578  21.748  0.00  0.00    +0.000 A 
ATOM     24  N   UNL     1       0.812  10.830  21.984  0.00  0.00    +0.000 NA
ATOM     25  C   UNL     1       0.194  11.476  20.959  0.00  0.00    +0.000 A 
ATOM     26  C   UNL     1       0.018  10.932  19.688  0.00  0.00    +0.000 A 
ATOM     27  C   UNL     1       0.392   9.581  19.545  0.00  0.00    +0.000 A 
BRANCH  22  28
ATOM     28  C   UNL     1       1.680   7.583  20.254  0.00  0.00    +0.000 C 
ATOM     29  O   UNL     1       1.463   6.590  20.938  0.00  0.00    +0.000 OA
BRANCH  28  31
ATOM     30  C   UNL     1       2.936   6.335  18.722  0.00  0.00    +0.000 C 
ATOM     31  O   UNL     1       2.392   7.606  19.101  0.00  0.00    +0.000 OA
ENDBRANCH  28  31
ENDBRANCH  22  28
ENDBRANCH   1  26
TORSDOF 4
ENDMDL
MODEL 2
REMARK VINA RESULT:      -6.9      4.233      7.555
REMARK  Name = 
REMARK  5 active torsions:
REMARK  status: ('A' for Active; 'I' for Inactive)
REMARK    1  A    between atoms: C_1  and  O_2
REMARK    2  A    between atoms: O_2  and  C_3
REMARK    3  A    between atoms: C_3  and  C_5
REMARK    4  A    between atoms: C_9  and  C_10
REMARK    5  A    between atoms: C_21  and  N_22
REMARK                            x       y       z     vdW  Elec       q    Type
REMARK                         _______ _______ _______ _____ _____    ______ ____
ROOT
ATOM      1  C   UNL     1      -3.630  12.849  23.667  0.00  0.00    +0.000 C 
ATOM      2  C   UNL     1      -3.218  13.973  24.660  0.00  0.00    +0.000 C 
ATOM      3  C   UNL     1      -2.935  15.363  24.062  0.00  0.00    +0.000 C 
ATOM      4  C   UNL     1      -1.855  15.463  22.988  0.00  0.00    +0.000 C 
ATOM      5  C   UNL     1      -1.988  14.498  21.809  0.00  0.00    +0.000 C 
ATOM      6  C   UNL     1      -1.552  13.109  22.184  0.00  0.00    +0.000 A 
ATOM      7  C   UNL     1      -2.333  12.324  23.029  0.00  0.00    +0.000 A 
ATOM      8  N   UNL     1      -1.925  11.103  23.440  0.00  0.00    +0.000 NA
ATOM      9  C   UNL     1      -0.762  10.650  22.966  0.00  0.00    +0.000 A 
ATOM     10  N   UNL     1      -0.293   9.445  23.452  0.00  0.00    +0.000 N 
ATOM     11  N   UNL     1       0.028  11.309  22.120  0.00  0.00    +0.000 NA
ATOM     12  C   UNL     1      -0.353  12.539  21.731  0.00  0.00    +0.000 A 
ATOM     13  H   UNL     1      -0.648   9.296  24.384  0.00  0.00    +0.000 HD
ATOM     14  H   UNL     1       0.714   9.421  23.340  0.00  0.00    +0.000 HD
ENDROOT
BRANCH  12  15
ATOM     15  N   UNL     1       0.438  13.207  20.810  0.00  0.00    +0.000 N 
ATOM     16  C   UNL     1       0.921  12.465  19.635  0.00  0.00    +0.000 C 
ATOM     17  C   UNL     1       1.186  13.506  18.515  0.00  0.00    +0.000 C 
ATOM     18  N   UNL     1       2.111  14.601  18.900  0.00  0.00    +0.000 NA
ATOM     19  C   UNL     1       1.705  15.187  20.196  0.00  0.00    +0.000 C 
ATOM     20  C   UNL     1       1.478  14.126  21.298  0.00  0.00    +0.000 C 
ATOM     21  H   UNL     1       2.066  15.328  18.186  0.00  0.00    +0.000 HD
ENDBRANCH  12  15
BRANCH   1  26
ATOM     22  C   UNL     1      -6.155  12.729  20.765  0.00  0.00    +0.000 A 
ATOM     23  C   UNL     1      -7.081  13.637  21.238  0.00  0.00    +0.000 A 
ATOM     24  N   UNL     1      -6.892  14.385  22.353  0.00  0.00    +0.000 NA
ATOM     25  C   UNL     1      -5.758  14.167  23.073  0.00  0.00    +0.000 A 
ATOM     26  C   UNL     1      -4.791  13.223  22.736  0.00  0.00    +0.000 A 
ATOM     27  C   UNL     1      -4.970  12.580  21.495  0.00  0.00    +0.000 A 
BRANCH  22  28
ATOM     28  C   UNL     1      -6.394  11.839  19.604  0.00  0.00    +0.000 C 
ATOM     29  O   UNL     1      -5.673  11.832  18.613  0.00  0.00    +0.000 OA
BRANCH  28  31
ATOM     30  C   UNL     1      -7.083   9.610  19.794  0.00  0.00    +0.000 C 
ATOM     31  O   UNL     1      -7.433  10.999  19.830  0.00  0.00    +0.000 OA
ENDBRANCH  28  31
ENDBRANCH  22  28
ENDBRANCH   1  26
TORSDOF 4
ENDMDL
MODEL 3
REMARK VINA RESULT:      -6.8      3.660      5.628
REMARK  Name = 
REMARK  5 active torsions:
REMARK  status: ('A' for Active; 'I' for Inactive)
REMARK    1  A    between atoms: C_1  and  O_2
REMARK    2  A    between atoms: O_2  and  C_3
REMARK    3  A    between atoms: C_3  and  C_5
REMARK    4  A    between atoms: C_9  and  C_10
REMARK    5  A    between atoms: C_21  and  N_22
REMARK                            x       y       z     vdW  Elec       q    Type
REMARK                         _______ _______ _______ _____ _____    ______ ____
ROOT
ATOM      1  C   UNL     1      -0.420  11.872  20.661  0.00  0.00    +0.000 C 
ATOM      2  C   UNL     1      -0.378  10.414  20.120  0.00  0.00    +0.000 C 
ATOM      3  C   UNL     1      -0.791  10.203  18.652  0.00  0.00    +0.000 C 
ATOM      4  C   UNL     1      -2.187  10.665  18.239  0.00  0.00    +0.000 C 
ATOM      5  C   UNL     1      -2.548  12.108  18.592  0.00  0.00    +0.000 C 
ATOM      6  C   UNL     1      -2.883  12.250  20.050  0.00  0.00    +0.000 A 
ATOM      7  C   UNL     1      -1.885  12.169  21.019  0.00  0.00    +0.000 A 
ATOM      8  N   UNL     1      -2.172  12.218  22.339  0.00  0.00    +0.000 NA
ATOM      9  C   UNL     1      -3.449  12.396  22.685  0.00  0.00    +0.000 A 
ATOM     10  N   UNL     1      -3.765  12.353  24.030  0.00  0.00    +0.000 N 
ATOM     11  N   UNL     1      -4.463  12.528  21.830  0.00  0.00    +0.000 NA
ATOM     12  C   UNL     1      -4.192  12.448  20.515  0.00  0.00    +0.000 A 
ATOM     13  H   UNL     1      -3.097  11.772  24.514  0.00  0.00    +0.000 HD
ATOM     14  H   UNL     1      -4.741  12.099  24.124  0.00  0.00    +0.000 HD
ENDROOT
BRANCH  12  15
ATOM     15  N   UNL     1      -5.233  12.639  19.621  0.00  0.00    +0.000 N 
ATOM     16  C   UNL     1      -6.021  13.878  19.721  0.00  0.00    +0.000 C 
ATOM     17  C   UNL     1      -6.627  14.147  18.318  0.00  0.00    +0.000 C 
ATOM     18  N   UNL     1      -7.424  13.022  17.766  0.00  0.00    +0.000 NA
ATOM     19  C   UNL     1      -6.670  11.755  17.873  0.00  0.00    +0.000 C 
ATOM     20  C   UNL     1      -6.105  11.502  19.291  0.00  0.00    +0.000 C 
ATOM     21  H   UNL     1      -7.607  13.209  16.781  0.00  0.00    +0.000 HD
ENDBRANCH  12  15
BRANCH   1  26
ATOM     22  C   UNL     1       0.656  15.203  19.061  0.00  0.00    +0.000 A 
ATOM     23  C   UNL     1       1.872  14.815  18.535  0.00  0.00    +0.000 A 
ATOM     24  N   UNL     1       2.313  13.532  18.538  0.00  0.00    +0.000 NA
ATOM     25  C   UNL     1       1.539  12.602  19.160  0.00  0.00    +0.000 A 
ATOM     26  C   UNL     1       0.331  12.890  19.792  0.00  0.00    +0.000 A 
ATOM     27  C   UNL     1      -0.144  14.207  19.632  0.00  0.00    +0.000 A 
BRANCH  22  28
ATOM     28  C   UNL     1       0.210  16.614  19.148  0.00  0.00    +0.000 C 
ATOM     29  O   UNL     1       0.765  17.442  19.859  0.00  0.00    +0.000 OA
BRANCH  28  31
ATOM     30  C   UNL     1      -0.609  18.032  17.475  0.00  0.00    +0.000 C 
ATOM     31  O   UNL     1      -0.805  16.867  18.287  0.00  0.00    +0.000 OA
ENDBRANCH  28  31
ENDBRANCH  22  28
ENDBRANCH   1  26
TORSDOF 4
ENDMDL
MODEL 4
REMARK VINA RESULT:      -6.8      3.693      7.238
REMARK  Name = 
REMARK  5 active torsions:
REMARK  status: ('A' for Active; 'I' for Inactive)
REMARK    1  A    between atoms: C_1  and  O_2
REMARK    2  A    between atoms: O_2  and  C_3
REMARK    3  A    between atoms: C_3  and  C_5
REMARK    4  A    between atoms: C_9  and  C_10
REMARK    5  A    between atoms: C_21  and  N_22
REMARK                            x       y       z     vdW  Elec       q    Type
REMARK                         _______ _______ _______ _____ _____    ______ ____
ROOT
ATOM      1  C   UNL     1      -3.373  12.920  22.981  0.00  0.00    +0.000 C 
ATOM      2  C   UNL     1      -3.012  14.140  23.875  0.00  0.00    +0.000 C 
ATOM      3  C   UNL     1      -2.606  15.438  23.153  0.00  0.00    +0.000 C 
ATOM      4  C   UNL     1      -1.419  15.371  22.195  0.00  0.00    +0.000 C 
ATOM      5  C   UNL     1      -1.477  14.277  21.129  0.00  0.00    +0.000 C 
ATOM      6  C   UNL     1      -1.146  12.929  21.706  0.00  0.00    +0.000 A 
ATOM      7  C   UNL     1      -2.044  12.278  22.550  0.00  0.00    +0.000 A 
ATOM      8  N   UNL     1      -1.736  11.102  23.141  0.00  0.00    +0.000 NA
ATOM      9  C   UNL     1      -0.554  10.556  22.848  0.00  0.00    +0.000 A 
ATOM     10  N   UNL     1      -0.193   9.403  23.518  0.00  0.00    +0.000 N 
ATOM     11  N   UNL     1       0.348  11.082  22.020  0.00  0.00    +0.000 NA
ATOM     12  C   UNL     1       0.065  12.268  21.453  0.00  0.00    +0.000 A 
ATOM     13  H   UNL     1      -0.647   9.380  24.419  0.00  0.00    +0.000 HD
ATOM     14  H   UNL     1       0.818   9.332  23.517  0.00  0.00    +0.000 HD
ENDROOT
BRANCH  12  15
ATOM     15  N   UNL     1       0.975  12.793  20.549  0.00  0.00    +0.000 N 
ATOM     16  C   UNL     1       1.405  11.951  19.421  0.00  0.00    +0.000 C 
ATOM     17  C   UNL     1       1.852  12.907  18.283  0.00  0.00    +0.000 C 
ATOM     18  N   UNL     1       2.896  13.886  18.677  0.00  0.00    +0.000 NA
ATOM     19  C   UNL     1       2.517  14.567  19.934  0.00  0.00    +0.000 C 
ATOM     20  C   UNL     1       2.106  13.585  21.056  0.00  0.00    +0.000 C 
ATOM     21  H   UNL     1       2.977  14.585  17.940  0.00  0.00    +0.000 HD
ENDBRANCH  12  15
BRANCH   1  26
ATOM     22  C   UNL     1      -5.405  12.687  19.721  0.00  0.00    +0.000 A 
ATOM     23  C   UNL     1      -6.486  13.468  20.076  0.00  0.00    +0.000 A 
ATOM     24  N   UNL     1      -6.550  14.174  21.233  0.00  0.00    +0.000 NA
ATOM     25  C   UNL     1      -5.521  14.038  22.112  0.00  0.00    +0.000 A 
ATOM     26  C   UNL     1      -4.415  13.218  21.896  0.00  0.00    +0.000 A 
ATOM     27  C   UNL     1      -4.334  12.625  20.620  0.00  0.00    +0.000 A 
BRANCH  22  28
ATOM     28  C   UNL     1      -5.367  11.838  18.507  0.00  0.00    +0.000 C 
ATOM     29  O   UNL     1      -6.379  11.413  17.962  0.00  0.00    +0.000 OA
BRANCH  28  31
ATOM     30  C   UNL     1      -3.798  10.358  17.596  0.00  0.00    +0.000 C 
ATOM     31  O   UNL     1      -4.101  11.684  18.049  0.00  0.00    +0.000 OA
ENDBRANCH  28  31
ENDBRANCH  22  28
ENDBRANCH   1  26
TORSDOF 4
ENDMDL
MODEL 5
REMARK VINA RESULT:      -6.8      1.756      2.587
REMARK  Name = 
REMARK  5 active torsions:
REMARK  status: ('A' for Active; 'I' for Inactive)
REMARK    1  A    between atoms: C_1  and  O_2
REMARK    2  A    between atoms: O_2  and  C_3
REMARK    3  A    between atoms: C_3  and  C_5
REMARK    4  A    between atoms: C_9  and  C_10
REMARK    5  A    between atoms: C_21  and  N_22
REMARK                            x       y       z     vdW  Elec       q    Type
REMARK                         _______ _______ _______ _____ _____    ______ ____
ROOT
ATOM      1  C   UNL     1      -0.551  11.659  18.065  0.00  0.00    +0.000 C 
ATOM      2  C   UNL     1      -0.403  13.194  18.269  0.00  0.00    +0.000 C 
ATOM      3  C   UNL     1      -0.869  13.765  19.621  0.00  0.00    +0.000 C 
ATOM      4  C   UNL     1      -2.320  13.519  20.028  0.00  0.00    +0.000 C 
ATOM      5  C   UNL     1      -2.793  12.066  19.981  0.00  0.00    +0.000 C 
ATOM      6  C   UNL     1      -3.066  11.622  18.571  0.00  0.00    +0.000 A 
ATOM      7  C   UNL     1      -2.017  11.403  17.681  0.00  0.00    +0.000 A 
ATOM      8  N   UNL     1      -2.241  11.077  16.388  0.00  0.00    +0.000 NA
ATOM      9  C   UNL     1      -3.509  10.925  16.002  0.00  0.00    +0.000 A 
ATOM     10  N   UNL     1      -3.751  10.684  14.663  0.00  0.00    +0.000 N 
ATOM     11  N   UNL     1      -4.572  11.069  16.792  0.00  0.00    +0.000 NA
ATOM     12  C   UNL     1      -4.362  11.425  18.072  0.00  0.00    +0.000 A 
ATOM     13  H   UNL     1      -3.010  11.086  14.109  0.00  0.00    +0.000 HD
ATOM     14  H   UNL     1      -4.694  10.985  14.446  0.00  0.00    +0.000 HD
ENDROOT
BRANCH  12  15
ATOM     15  N   UNL     1      -5.460  11.524  18.911  0.00  0.00    +0.000 N 
ATOM     16  C   UNL     1      -6.488  10.473  18.844  0.00  0.00    +0.000 C 
ATOM     17  C   UNL     1      -7.201  10.445  20.223  0.00  0.00    +0.000 C 
ATOM     18  N   UNL     1      -7.765  11.749  20.650  0.00  0.00    +0.000 NA
ATOM     19  C   UNL     1      -6.756  12.821  20.506  0.00  0.00    +0.000 C 
ATOM     20  C   UNL     1      -6.086  12.840  19.112  0.00  0.00    +0.000 C 
ATOM     21  H   UNL     1      -8.029  11.681  21.632  0.00  0.00    +0.000 HD
ENDBRANCH  12  15
BRANCH   1  26
ATOM     22  C   UNL     1       0.161  10.213  21.559  0.00  0.00    +0.000 A 
ATOM     23  C   UNL     1       0.851   9.075  21.194  0.00  0.00    +0.000 A 
ATOM     24  N   UNL     1       1.223   8.804  19.917  0.00  0.00    +0.000 NA
ATOM     25  C   UNL     1       0.825   9.672  18.948  0.00  0.00    +0.000 A 
ATOM     26  C   UNL     1       0.060  10.811  19.188  0.00  0.00    +0.000 A 
ATOM     27  C   UNL     1      -0.172  11.116  20.544  0.00  0.00    +0.000 A 
BRANCH  22  28
ATOM     28  C   UNL     1      -0.333  10.469  22.934  0.00  0.00    +0.000 C 
ATOM     29  O   UNL     1      -0.176   9.676  23.854  0.00  0.00    +0.000 OA
BRANCH  28  31
ATOM     30  C   UNL     1      -2.261  11.702  23.423  0.00  0.00    +0.000 C 
ATOM     31  O   UNL     1      -0.880  11.704  23.041  0.00  0.00    +0.000 OA
ENDBRANCH  28  31
ENDBRANCH  22  28
ENDBRANCH   1  26
TORSDOF 4
ENDMDL
MODEL 6
REMARK VINA RESULT:      -6.7      3.492      5.902
REMARK  Name = 
REMARK  5 active torsions:
REMARK  status: ('A' for Active; 'I' for Inactive)
REMARK    1  A    between atoms: C_1  and  O_2
REMARK    2  A    between atoms: O_2  and  C_3
REMARK    3  A    between atoms: C_3  and  C_5
REMARK    4  A    between atoms: C_9  and  C_10
REMARK    5  A    between atoms: C_21  and  N_22
REMARK                            x       y       z     vdW  Elec       q    Type
REMARK                         _______ _______ _______ _____ _____    ______ ____
ROOT
ATOM      1  C   UNL     1       0.082  13.102  22.041  0.00  0.00    +0.000 C 
ATOM      2  C   UNL     1       0.902  14.122  21.201  0.00  0.00    +0.000 C 
ATOM      3  C   UNL     1       0.108  15.064  20.278  0.00  0.00    +0.000 C 
ATOM      4  C   UNL     1      -0.796  14.425  19.227  0.00  0.00    +0.000 C 
ATOM      5  C   UNL     1      -1.786  13.377  19.738  0.00  0.00    +0.000 C 
ATOM      6  C   UNL     1      -1.103  12.066  20.015  0.00  0.00    +0.000 A 
ATOM      7  C   UNL     1      -0.252  11.926  21.109  0.00  0.00    +0.000 A 
ATOM      8  N   UNL     1       0.430  10.781  21.334  0.00  0.00    +0.000 NA
ATOM      9  C   UNL     1       0.223   9.765  20.493  0.00  0.00    +0.000 A 
ATOM     10  N   UNL     1       0.984   8.624  20.660  0.00  0.00    +0.000 N 
ATOM     11  N   UNL     1      -0.605   9.792  19.449  0.00  0.00    +0.000 NA
ATOM     12  C   UNL     1      -1.264  10.937  19.198  0.00  0.00    +0.000 A 
ATOM     13  H   UNL     1       1.866   8.867  21.086  0.00  0.00    +0.000 HD
ATOM     14  H   UNL     1       1.028   8.132  19.775  0.00  0.00    +0.000 HD
ENDROOT
BRANCH  12  15
ATOM     15  N   UNL     1      -2.166  10.954  18.146  0.00  0.00    +0.000 N 
ATOM     16  C   UNL     1      -3.602  11.015  18.459  0.00  0.00    +0.000 C 
ATOM     17  C   UNL     1      -4.309  11.654  17.233  0.00  0.00    +0.000 C 
ATOM     18  N   UNL     1      -4.048  10.965  15.945  0.00  0.00    +0.000 NA
ATOM     19  C   UNL     1      -2.597  10.739  15.765  0.00  0.00    +0.000 C 
ATOM     20  C   UNL     1      -1.929  10.074  16.992  0.00  0.00    +0.000 C 
ATOM     21  H   UNL     1      -4.381  11.560  15.187  0.00  0.00    +0.000 HD
ENDBRANCH  12  15
BRANCH   1  26
ATOM     22  C   UNL     1      -3.236  13.496  23.952  0.00  0.00    +0.000 A 
ATOM     23  C   UNL     1      -2.975  14.681  24.610  0.00  0.00    +0.000 A 
ATOM     24  N   UNL     1      -1.869  15.434  24.383  0.00  0.00    +0.000 NA
ATOM     25  C   UNL     1      -0.943  14.946  23.514  0.00  0.00    +0.000 A 
ATOM     26  C   UNL     1      -1.061  13.726  22.852  0.00  0.00    +0.000 A 
ATOM     27  C   UNL     1      -2.292  13.060  23.015  0.00  0.00    +0.000 A 
BRANCH  22  28
ATOM     28  C   UNL     1      -4.391  12.621  24.262  0.00  0.00    +0.000 C 
ATOM     29  O   UNL     1      -4.613  12.188  25.386  0.00  0.00    +0.000 OA
BRANCH  28  31
ATOM     30  C   UNL     1      -6.149  13.500  22.990  0.00  0.00    +0.000 C 
ATOM     31  O   UNL     1      -5.189  12.452  23.181  0.00  0.00    +0.000 OA
ENDBRANCH  28  31
ENDBRANCH  22  28
ENDBRANCH   1  26
TORSDOF 4
ENDMDL
MODEL 7
REMARK VINA RESULT:      -6.7      4.794      6.369
REMARK  Name = 
REMARK  5 active torsions:
REMARK  status: ('A' for Active; 'I' for Inactive)
REMARK    1  A    between atoms: C_1  and  O_2
REMARK    2  A    between atoms: O_2  and  C_3
REMARK    3  A    between atoms: C_3  and  C_5
REMARK    4  A    between atoms: C_9  and  C_10
REMARK    5  A    between atoms: C_21  and  N_22
REMARK                            x       y       z     vdW  Elec       q    Type
REMARK                         _______ _______ _______ _____ _____    ______ ____
ROOT
ATOM      1  C   UNL     1       1.254  12.187  20.076  0.00  0.00    +0.000 C 
ATOM      2  C   UNL     1       0.326  12.155  18.828  0.00  0.00    +0.000 C 
ATOM      3  C   UNL     1      -0.490  13.427  18.533  0.00  0.00    +0.000 C 
ATOM      4  C   UNL     1      -1.429  13.932  19.626  0.00  0.00    +0.000 C 
ATOM      5  C   UNL     1      -0.807  14.122  21.010  0.00  0.00    +0.000 C 
ATOM      6  C   UNL     1      -0.621  12.807  21.714  0.00  0.00    +0.000 A 
ATOM      7  C   UNL     1       0.362  11.913  21.298  0.00  0.00    +0.000 A 
ATOM      8  N   UNL     1       0.499  10.694  21.866  0.00  0.00    +0.000 NA
ATOM      9  C   UNL     1      -0.315  10.393  22.881  0.00  0.00    +0.000 A 
ATOM     10  N   UNL     1      -0.246   9.117  23.406  0.00  0.00    +0.000 N 
ATOM     11  N   UNL     1      -1.252  11.200  23.375  0.00  0.00    +0.000 NA
ATOM     12  C   UNL     1      -1.418  12.402  22.795  0.00  0.00    +0.000 A 
ATOM     13  H   UNL     1       0.072   8.476  22.695  0.00  0.00    +0.000 HD
ATOM     14  H   UNL     1      -1.132   8.901  23.848  0.00  0.00    +0.000 HD
ENDROOT
BRANCH  12  15
ATOM     15  N   UNL     1      -2.354  13.267  23.340  0.00  0.00    +0.000 N 
ATOM     16  C   UNL     1      -1.883  14.324  24.249  0.00  0.00    +0.000 C 
ATOM     17  C   UNL     1      -2.925  15.473  24.191  0.00  0.00    +0.000 C 
ATOM     18  N   UNL     1      -4.317  15.056  24.495  0.00  0.00    +0.000 NA
ATOM     19  C   UNL     1      -4.681  13.860  23.705  0.00  0.00    +0.000 C 
ATOM     20  C   UNL     1      -3.638  12.723  23.808  0.00  0.00    +0.000 C 
ATOM     21  H   UNL     1      -4.944  15.818  24.240  0.00  0.00    +0.000 HD
ENDBRANCH  12  15
BRANCH   1  26
ATOM     22  C   UNL     1       3.119  15.399  19.068  0.00  0.00    +0.000 A 
ATOM     23  C   UNL     1       3.601  15.775  20.305  0.00  0.00    +0.000 A 
ATOM     24  N   UNL     1       3.488  15.005  21.417  0.00  0.00    +0.000 NA
ATOM     25  C   UNL     1       2.796  13.839  21.307  0.00  0.00    +0.000 A 
ATOM     26  C   UNL     1       2.199  13.395  20.129  0.00  0.00    +0.000 A 
ATOM     27  C   UNL     1       2.472  14.161  18.978  0.00  0.00    +0.000 A 
BRANCH  22  28
ATOM     28  C   UNL     1       3.153  16.274  17.872  0.00  0.00    +0.000 C 
ATOM     29  O   UNL     1       3.501  15.876  16.767  0.00  0.00    +0.000 OA
BRANCH  28  31
ATOM     30  C   UNL     1       1.399  17.791  17.547  0.00  0.00    +0.000 C 
ATOM     31  O   UNL     1       2.670  17.510  18.148  0.00  0.00    +0.000 OA
ENDBRANCH  28  31
ENDBRANCH  22  28
ENDBRANCH   1  26
TORSDOF 4
ENDMDL
MODEL 8
REMARK VINA RESULT:      -6.7      3.167      5.126
REMARK  Name = 
REMARK  5 active torsions:
REMARK  status: ('A' for Active; 'I' for Inactive)
REMARK    1  A    between atoms: C_1  and  O_2
REMARK    2  A    between atoms: O_2  and  C_3
REMARK    3  A    between atoms: C_3  and  C_5
REMARK    4  A    between atoms: C_9  and  C_10
REMARK    5  A    between atoms: C_21  and  N_22
REMARK                            x       y       z     vdW  Elec       q    Type
REMARK                         _______ _______ _______ _____ _____    ______ ____
ROOT
ATOM      1  C   UNL     1      -0.697  12.515  21.977  0.00  0.00    +0.000 C 
ATOM      2  C   UNL     1      -0.414  11.080  21.445  0.00  0.00    +0.000 C 
ATOM      3  C   UNL     1      -0.640  10.838  19.942  0.00  0.00    +0.000 C 
ATOM      4  C   UNL     1      -2.030  11.127  19.381  0.00  0.00    +0.000 C 
ATOM      5  C   UNL     1      -2.606  12.508  19.692  0.00  0.00    +0.000 C 
ATOM      6  C   UNL     1      -3.110  12.588  21.106  0.00  0.00    +0.000 A 
ATOM      7  C   UNL     1      -2.218  12.621  22.176  0.00  0.00    +0.000 A 
ATOM      8  N   UNL     1      -2.648  12.616  23.457  0.00  0.00    +0.000 NA
ATOM      9  C   UNL     1      -3.967  12.628  23.665  0.00  0.00    +0.000 A 
ATOM     10  N   UNL     1      -4.415  12.529  24.968  0.00  0.00    +0.000 N 
ATOM     11  N   UNL     1      -4.892  12.643  22.706  0.00  0.00    +0.000 NA
ATOM     12  C   UNL     1      -4.475  12.615  21.428  0.00  0.00    +0.000 A 
ATOM     13  H   UNL     1      -3.735  12.031  25.522  0.00  0.00    +0.000 HD
ATOM     14  H   UNL     1      -5.357  12.154  24.957  0.00  0.00    +0.000 HD
ENDROOT
BRANCH  12  15
ATOM     15  N   UNL     1      -5.430  12.685  20.427  0.00  0.00    +0.000 N 
ATOM     16  C   UNL     1      -6.021  13.997  20.115  0.00  0.00    +0.000 C 
ATOM     17  C   UNL     1      -6.511  13.937  18.644  0.00  0.00    +0.000 C 
ATOM     18  N   UNL     1      -7.446  12.822  18.351  0.00  0.00    +0.000 NA
ATOM     19  C   UNL     1      -6.904  11.546  18.867  0.00  0.00    +0.000 C 
ATOM     20  C   UNL     1      -6.452  11.631  20.344  0.00  0.00    +0.000 C 
ATOM     21  H   UNL     1      -7.551  12.746  17.340  0.00  0.00    +0.000 HD
ENDBRANCH  12  15
BRANCH   1  26
ATOM     22  C   UNL     1       1.579  14.305  19.443  0.00  0.00    +0.000 A 
ATOM     23  C   UNL     1       1.033  15.571  19.509  0.00  0.00    +0.000 A 
ATOM     24  N   UNL     1       0.077  15.928  20.403  0.00  0.00    +0.000 NA
ATOM     25  C   UNL     1      -0.411  14.958  21.222  0.00  0.00    +0.000 A 
ATOM     26  C   UNL     1       0.008  13.629  21.193  0.00  0.00    +0.000 A 
ATOM     27  C   UNL     1       1.100  13.351  20.348  0.00  0.00    +0.000 A 
BRANCH  22  28
ATOM     28  C   UNL     1       2.553  13.882  18.408  0.00  0.00    +0.000 C 
ATOM     29  O   UNL     1       2.757  12.707  18.130  0.00  0.00    +0.000 OA
BRANCH  28  31
ATOM     30  C   UNL     1       4.519  15.049  17.905  0.00  0.00    +0.000 C 
ATOM     31  O   UNL     1       3.095  14.949  17.773  0.00  0.00    +0.000 OA
ENDBRANCH  28  31
ENDBRANCH  22  28
ENDBRANCH   1  26
TORSDOF 4
ENDMDL
MODEL 9
REMARK VINA RESULT:      -6.7      4.360      5.953
REMARK  Name = 
REMARK  5 active torsions:
REMARK  status: ('A' for Active; 'I' for Inactive)
REMARK    1  A    between atoms: C_1  and  O_2
REMARK    2  A    between atoms: O_2  and  C_3
REMARK    3  A    between atoms: C_3  and  C_5
REMARK    4  A    between atoms: C_9  and  C_10
REMARK    5  A    between atoms: C_21  and  N_22
REMARK                            x       y       z     vdW  Elec       q    Type
REMARK                         _______ _______ _______ _____ _____    ______ ____
ROOT
ATOM      1  C   UNL     1       0.944  11.596  19.866  0.00  0.00    +0.000 C 
ATOM      2  C   UNL     1      -0.090  11.351  18.730  0.00  0.00    +0.000 C 
ATOM      3  C   UNL     1      -0.978  12.542  18.327  0.00  0.00    +0.000 C 
ATOM      4  C   UNL     1      -1.834  13.184  19.416  0.00  0.00    +0.000 C 
ATOM      5  C   UNL     1      -1.100  13.599  20.691  0.00  0.00    +0.000 C 
ATOM      6  C   UNL     1      -0.800  12.412  21.563  0.00  0.00    +0.000 A 
ATOM      7  C   UNL     1       0.177  11.489  21.194  0.00  0.00    +0.000 A 
ATOM      8  N   UNL     1       0.411  10.375  21.923  0.00  0.00    +0.000 NA
ATOM      9  C   UNL     1      -0.297  10.212  23.043  0.00  0.00    +0.000 A 
ATOM     10  N   UNL     1      -0.131   9.033  23.745  0.00  0.00    +0.000 N 
ATOM     11  N   UNL     1      -1.217  11.062  23.498  0.00  0.00    +0.000 NA
ATOM     12  C   UNL     1      -1.481  12.157  22.763  0.00  0.00    +0.000 A 
ATOM     13  H   UNL     1       0.147   8.300  23.111  0.00  0.00    +0.000 HD
ATOM     14  H   UNL     1      -0.965   8.865  24.296  0.00  0.00    +0.000 HD
ENDROOT
BRANCH  12  15
ATOM     15  N   UNL     1      -2.397  13.071  23.257  0.00  0.00    +0.000 N 
ATOM     16  C   UNL     1      -1.892  14.229  24.012  0.00  0.00    +0.000 C 
ATOM     17  C   UNL     1      -2.952  15.355  23.883  0.00  0.00    +0.000 C 
ATOM     18  N   UNL     1      -4.318  14.965  24.311  0.00  0.00    +0.000 NA
ATOM     19  C   UNL     1      -4.709  13.683  23.685  0.00  0.00    +0.000 C 
ATOM     20  C   UNL     1      -3.645  12.574  23.857  0.00  0.00    +0.000 C 
ATOM     21  H   UNL     1      -4.970  15.687  24.007  0.00  0.00    +0.000 HD
ENDBRANCH  12  15
BRANCH   1  26
ATOM     22  C   UNL     1       3.349  14.518  20.565  0.00  0.00    +0.000 A 
ATOM     23  C   UNL     1       3.748  14.793  19.272  0.00  0.00    +0.000 A 
ATOM     24  N   UNL     1       3.202  14.201  18.180  0.00  0.00    +0.000 NA
ATOM     25  C   UNL     1       2.266  13.236  18.389  0.00  0.00    +0.000 A 
ATOM     26  C   UNL     1       1.842  12.821  19.649  0.00  0.00    +0.000 A 
ATOM     27  C   UNL     1       2.335  13.569  20.737  0.00  0.00    +0.000 A 
BRANCH  22  28
ATOM     28  C   UNL     1       4.005  15.088  21.766  0.00  0.00    +0.000 C 
ATOM     29  O   UNL     1       4.329  16.266  21.850  0.00  0.00    +0.000 OA
BRANCH  28  31
ATOM     30  C   UNL     1       5.442  13.720  23.008  0.00  0.00    +0.000 C 
ATOM     31  O   UNL     1       4.105  14.170  22.758  0.00  0.00    +0.000 OA
ENDBRANCH  28  31
ENDBRANCH  22  28
ENDBRANCH   1  26
TORSDOF 4
ENDMDL
