MODEL 1
REMARK VINA RESULT:      -8.2      0.000      0.000
REMARK  Name = 
REMARK  4 active torsions:
REMARK  status: ('A' for Active; 'I' for Inactive)
REMARK    1  A    between atoms: C_1  and  C_2
REMARK    2  A    between atoms: C_2  and  N_3
REMARK    3  A    between atoms: C_10  and  C_12
REMARK    4  A    between atoms: C_14  and  C_15
REMARK                            x       y       z     vdW  Elec       q    Type
REMARK                         _______ _______ _______ _____ _____    ______ ____
ROOT
ATOM      1  N   UNL     1       2.204   3.538  18.224  0.00  0.00    +0.000 NA
ATOM      2  C   UNL     1       2.438   2.098  18.543  0.00  0.00    +0.000 C 
ATOM      3  C   UNL     1       3.799   2.239  17.855  0.00  0.00    +0.000 C 
ATOM      4  C   UNL     1       3.689   3.746  18.273  0.00  0.00    +0.000 C 
ATOM      5  C   UNL     1       4.359   4.118  19.597  0.00  0.00    +0.000 C 
ATOM      6  C   UNL     1       5.660   4.790  19.170  0.00  0.00    +0.000 C 
ATOM      7  N   UNL     1       5.664   4.758  17.725  0.00  0.00    +0.000 N 
ATOM      8  C   UNL     1       6.872   4.629  17.032  0.00  0.00    +0.000 C 
ATOM      9  O   UNL     1       7.938   4.489  17.639  0.00  0.00    +0.000 OA
ATOM     10  C   UNL     1       4.310   4.635  17.190  0.00  0.00    +0.000 C 
ENDROOT
BRANCH   8  11
ATOM     11  C   UNL     1       6.859   4.618  15.569  0.00  0.00    +0.000 A 
ATOM     12  C   UNL     1       6.209   3.663  14.738  0.00  0.00    +0.000 A 
ATOM     13  C   UNL     1       6.495   4.063  13.456  0.00  0.00    +0.000 A 
ATOM     14  C   UNL     1       6.149   3.566  12.115  0.00  0.00    +0.000 C 
ATOM     15  O   UNL     1       7.287   5.163  13.503  0.00  0.00    +0.000 OA
ATOM     16  N   UNL     1       7.534   5.504  14.815  0.00  0.00    +0.000 NA
ENDBRANCH   8  11
BRANCH   1  18
ATOM     17  C   UNL     1       0.905   3.082  20.293  0.00  0.00    +0.000 C 
ATOM     18  C   UNL     1       1.395   4.121  19.296  0.00  0.00    +0.000 C 
ENDBRANCH   1  18
TORSDOF 2
ENDMDL
MODEL 2
REMARK VINA RESULT:      -7.9      1.553      1.932
REMARK  Name = 
REMARK  4 active torsions:
REMARK  status: ('A' for Active; 'I' for Inactive)
REMARK    1  A    between atoms: C_1  and  C_2
REMARK    2  A    between atoms: C_2  and  N_3
REMARK    3  A    between atoms: C_10  and  C_12
REMARK    4  A    between atoms: C_14  and  C_15
REMARK                            x       y       z     vdW  Elec       q    Type
REMARK                         _______ _______ _______ _____ _____    ______ ____
ROOT
ATOM      1  N   UNL     1       2.565   5.996  18.127  0.00  0.00    +0.000 NA
ATOM      2  C   UNL     1       2.133   4.628  18.544  0.00  0.00    +0.000 C 
ATOM      3  C   UNL     1       3.369   4.091  17.815  0.00  0.00    +0.000 C 
ATOM      4  C   UNL     1       3.981   5.501  18.125  0.00  0.00    +0.000 C 
ATOM      5  C   UNL     1       4.818   5.595  19.403  0.00  0.00    +0.000 C 
ATOM      6  C   UNL     1       6.257   5.571  18.896  0.00  0.00    +0.000 C 
ATOM      7  N   UNL     1       6.167   5.463  17.458  0.00  0.00    +0.000 N 
ATOM      8  C   UNL     1       7.143   4.757  16.748  0.00  0.00    +0.000 C 
ATOM      9  O   UNL     1       8.059   4.176  17.338  0.00  0.00    +0.000 OA
ATOM     10  C   UNL     1       4.879   5.946  16.966  0.00  0.00    +0.000 C 
ENDROOT
BRANCH   8  11
ATOM     11  C   UNL     1       7.047   4.674  15.290  0.00  0.00    +0.000 A 
ATOM     12  C   UNL     1       6.295   3.722  14.547  0.00  0.00    +0.000 A 
ATOM     13  C   UNL     1       6.532   4.039  13.232  0.00  0.00    +0.000 A 
ATOM     14  C   UNL     1       6.081   3.499  11.940  0.00  0.00    +0.000 C 
ATOM     15  O   UNL     1       7.389   5.088  13.178  0.00  0.00    +0.000 OA
ATOM     16  N   UNL     1       7.730   5.478  14.456  0.00  0.00    +0.000 NA
ENDBRANCH   8  11
BRANCH   1  18
ATOM     17  C   UNL     1       2.033   8.365  18.656  0.00  0.00    +0.000 C 
ATOM     18  C   UNL     1       2.171   6.941  19.172  0.00  0.00    +0.000 C 
ENDBRANCH   1  18
TORSDOF 2
ENDMDL
MODEL 3
REMARK VINA RESULT:      -7.3      1.599      1.772
REMARK  Name = 
REMARK  4 active torsions:
REMARK  status: ('A' for Active; 'I' for Inactive)
REMARK    1  A    between atoms: C_1  and  C_2
REMARK    2  A    between atoms: C_2  and  N_3
REMARK    3  A    between atoms: C_10  and  C_12
REMARK    4  A    between atoms: C_14  and  C_15
REMARK                            x       y       z     vdW  Elec       q    Type
REMARK                         _______ _______ _______ _____ _____    ______ ____
ROOT
ATOM      1  N   UNL     1       2.726   2.738  19.159  0.00  0.00    +0.000 NA
ATOM      2  C   UNL     1       3.672   2.552  20.300  0.00  0.00    +0.000 C 
ATOM      3  C   UNL     1       4.690   3.368  19.498  0.00  0.00    +0.000 C 
ATOM      4  C   UNL     1       3.427   4.027  18.844  0.00  0.00    +0.000 C 
ATOM      5  C   UNL     1       2.946   5.327  19.492  0.00  0.00    +0.000 C 
ATOM      6  C   UNL     1       3.453   6.412  18.546  0.00  0.00    +0.000 C 
ATOM      7  N   UNL     1       4.155   5.718  17.490  0.00  0.00    +0.000 N 
ATOM      8  C   UNL     1       5.266   6.311  16.883  0.00  0.00    +0.000 C 
ATOM      9  O   UNL     1       5.693   7.402  17.271  0.00  0.00    +0.000 OA
ATOM     10  C   UNL     1       3.703   4.334  17.369  0.00  0.00    +0.000 C 
ENDROOT
BRANCH   8  11
ATOM     11  C   UNL     1       5.953   5.603  15.802  0.00  0.00    +0.000 A 
ATOM     12  C   UNL     1       5.337   4.908  14.723  0.00  0.00    +0.000 A 
ATOM     13  C   UNL     1       6.383   4.404  13.991  0.00  0.00    +0.000 A 
ATOM     14  C   UNL     1       6.494   3.608  12.758  0.00  0.00    +0.000 C 
ATOM     15  O   UNL     1       7.549   4.741  14.594  0.00  0.00    +0.000 OA
ATOM     16  N   UNL     1       7.290   5.472  15.734  0.00  0.00    +0.000 NA
ENDBRANCH   8  11
BRANCH   1  18
ATOM     17  C   UNL     1       1.329   2.730  21.213  0.00  0.00    +0.000 C 
ATOM     18  C   UNL     1       1.367   2.809  19.695  0.00  0.00    +0.000 C 
ENDBRANCH   1  18
TORSDOF 2
ENDMDL
MODEL 4
REMARK VINA RESULT:      -7.1      2.498      3.943
REMARK  Name = 
REMARK  4 active torsions:
REMARK  status: ('A' for Active; 'I' for Inactive)
REMARK    1  A    between atoms: C_1  and  C_2
REMARK    2  A    between atoms: C_2  and  N_3
REMARK    3  A    between atoms: C_10  and  C_12
REMARK    4  A    between atoms: C_14  and  C_15
REMARK                            x       y       z     vdW  Elec       q    Type
REMARK                         _______ _______ _______ _____ _____    ______ ____
ROOT
ATOM      1  N   UNL     1       3.029   4.261  20.020  0.00  0.00    +0.000 NA
ATOM      2  C   UNL     1       1.915   5.104  19.492  0.00  0.00    +0.000 C 
ATOM      3  C   UNL     1       2.969   5.872  18.688  0.00  0.00    +0.000 C 
ATOM      4  C   UNL     1       3.778   4.530  18.747  0.00  0.00    +0.000 C 
ATOM      5  C   UNL     1       3.598   3.593  17.551  0.00  0.00    +0.000 C 
ATOM      6  C   UNL     1       4.866   3.806  16.730  0.00  0.00    +0.000 C 
ATOM      7  N   UNL     1       5.641   4.791  17.449  0.00  0.00    +0.000 N 
ATOM      8  C   UNL     1       6.439   5.701  16.748  0.00  0.00    +0.000 C 
ATOM      9  O   UNL     1       6.452   5.710  15.514  0.00  0.00    +0.000 OA
ATOM     10  C   UNL     1       5.276   4.828  18.863  0.00  0.00    +0.000 C 
ENDROOT
BRANCH   8  11
ATOM     11  C   UNL     1       7.232   6.679  17.493  0.00  0.00    +0.000 A 
ATOM     12  C   UNL     1       7.372   8.061  17.187  0.00  0.00    +0.000 A 
ATOM     13  C   UNL     1       8.216   8.549  18.153  0.00  0.00    +0.000 A 
ATOM     14  C   UNL     1       8.780   9.873  18.462  0.00  0.00    +0.000 C 
ATOM     15  O   UNL     1       8.587   7.533  18.970  0.00  0.00    +0.000 OA
ATOM     16  N   UNL     1       7.993   6.360  18.555  0.00  0.00    +0.000 NA
ENDBRANCH   8  11
BRANCH   1  18
ATOM     17  C   UNL     1       1.332   2.877  21.193  0.00  0.00    +0.000 C 
ATOM     18  C   UNL     1       2.517   2.909  20.241  0.00  0.00    +0.000 C 
ENDBRANCH   1  18
TORSDOF 2
ENDMDL
MODEL 5
REMARK VINA RESULT:      -7.0      2.081      3.368
REMARK  Name = 
REMARK  4 active torsions:
REMARK  status: ('A' for Active; 'I' for Inactive)
REMARK    1  A    between atoms: C_1  and  C_2
REMARK    2  A    between atoms: C_2  and  N_3
REMARK    3  A    between atoms: C_10  and  C_12
REMARK    4  A    between atoms: C_14  and  C_15
REMARK                            x       y       z     vdW  Elec       q    Type
REMARK                         _______ _______ _______ _____ _____    ______ ____
ROOT
ATOM      1  N   UNL     1       3.104   4.017  20.636  0.00  0.00    +0.000 NA
ATOM      2  C   UNL     1       1.868   4.797  20.328  0.00  0.00    +0.000 C 
ATOM      3  C   UNL     1       2.605   5.350  19.105  0.00  0.00    +0.000 C 
ATOM      4  C   UNL     1       3.412   4.007  19.167  0.00  0.00    +0.000 C 
ATOM      5  C   UNL     1       2.879   2.872  18.290  0.00  0.00    +0.000 C 
ATOM      6  C   UNL     1       3.822   2.868  17.091  0.00  0.00    +0.000 C 
ATOM      7  N   UNL     1       4.769   3.933  17.329  0.00  0.00    +0.000 N 
ATOM      8  C   UNL     1       5.292   4.657  16.254  0.00  0.00    +0.000 C 
ATOM      9  O   UNL     1       4.918   4.434  15.099  0.00  0.00    +0.000 OA
ATOM     10  C   UNL     1       4.866   4.252  18.752  0.00  0.00    +0.000 C 
ENDROOT
BRANCH   8  11
ATOM     11  C   UNL     1       6.265   5.720  16.512  0.00  0.00    +0.000 A 
ATOM     12  C   UNL     1       6.076   6.848  17.358  0.00  0.00    +0.000 A 
ATOM     13  C   UNL     1       7.249   7.555  17.263  0.00  0.00    +0.000 A 
ATOM     14  C   UNL     1       7.760   8.797  17.864  0.00  0.00    +0.000 C 
ATOM     15  O   UNL     1       8.080   6.920  16.400  0.00  0.00    +0.000 OA
ATOM     16  N   UNL     1       7.467   5.785  15.913  0.00  0.00    +0.000 NA
ENDBRANCH   8  11
BRANCH   1  18
ATOM     17  C   UNL     1       1.256   2.753  21.712  0.00  0.00    +0.000 C 
ATOM     18  C   UNL     1       2.708   2.756  21.262  0.00  0.00    +0.000 C 
ENDBRANCH   1  18
TORSDOF 2
ENDMDL
MODEL 6
REMARK VINA RESULT:      -6.8      2.552      3.729
REMARK  Name = 
REMARK  4 active torsions:
REMARK  status: ('A' for Active; 'I' for Inactive)
REMARK    1  A    between atoms: C_1  and  C_2
REMARK    2  A    between atoms: C_2  and  N_3
REMARK    3  A    between atoms: C_10  and  C_12
REMARK    4  A    between atoms: C_14  and  C_15
REMARK                            x       y       z     vdW  Elec       q    Type
REMARK                         _______ _______ _______ _____ _____    ______ ____
ROOT
ATOM      1  N   UNL     1       2.487   5.201  19.716  0.00  0.00    +0.000 NA
ATOM      2  C   UNL     1       1.753   5.012  18.429  0.00  0.00    +0.000 C 
ATOM      3  C   UNL     1       3.062   5.357  17.712  0.00  0.00    +0.000 C 
ATOM      4  C   UNL     1       3.746   4.798  19.008  0.00  0.00    +0.000 C 
ATOM      5  C   UNL     1       4.150   3.323  18.961  0.00  0.00    +0.000 C 
ATOM      6  C   UNL     1       5.655   3.366  18.718  0.00  0.00    +0.000 C 
ATOM      7  N   UNL     1       6.002   4.766  18.636  0.00  0.00    +0.000 N 
ATOM      8  C   UNL     1       7.036   5.182  17.792  0.00  0.00    +0.000 C 
ATOM      9  O   UNL     1       7.629   4.374  17.072  0.00  0.00    +0.000 OA
ATOM     10  C   UNL     1       5.014   5.601  19.316  0.00  0.00    +0.000 C 
ENDROOT
BRANCH   8  11
ATOM     11  C   UNL     1       7.386   6.602  17.736  0.00  0.00    +0.000 A 
ATOM     12  C   UNL     1       8.249   7.295  18.631  0.00  0.00    +0.000 A 
ATOM     13  C   UNL     1       8.250   8.592  18.181  0.00  0.00    +0.000 A 
ATOM     14  C   UNL     1       8.916   9.833  18.604  0.00  0.00    +0.000 C 
ATOM     15  O   UNL     1       7.425   8.689  17.109  0.00  0.00    +0.000 OA
ATOM     16  N   UNL     1       6.868   7.457  16.836  0.00  0.00    +0.000 NA
ENDBRANCH   8  11
BRANCH   1  18
ATOM     17  C   UNL     1       0.690   3.553  20.198  0.00  0.00    +0.000 C 
ATOM     18  C   UNL     1       1.929   4.277  20.703  0.00  0.00    +0.000 C 
ENDBRANCH   1  18
TORSDOF 2
ENDMDL
MODEL 7
REMARK VINA RESULT:      -6.7      1.009      1.065
REMARK  Name = 
REMARK  4 active torsions:
REMARK  status: ('A' for Active; 'I' for Inactive)
REMARK    1  A    between atoms: C_1  and  C_2
REMARK    2  A    between atoms: C_2  and  N_3
REMARK    3  A    between atoms: C_10  and  C_12
REMARK    4  A    between atoms: C_14  and  C_15
REMARK                            x       y       z     vdW  Elec       q    Type
REMARK                         _______ _______ _______ _____ _____    ______ ____
ROOT
ATOM      1  N   UNL     1       2.033   3.295  18.399  0.00  0.00    +0.000 NA
ATOM      2  C   UNL     1       2.313   1.888  18.813  0.00  0.00    +0.000 C 
ATOM      3  C   UNL     1       3.685   2.038  18.150  0.00  0.00    +0.000 C 
ATOM      4  C   UNL     1       3.508   3.563  18.469  0.00  0.00    +0.000 C 
ATOM      5  C   UNL     1       4.128   4.043  19.782  0.00  0.00    +0.000 C 
ATOM      6  C   UNL     1       5.414   4.738  19.343  0.00  0.00    +0.000 C 
ATOM      7  N   UNL     1       5.456   4.616  17.904  0.00  0.00    +0.000 N 
ATOM      8  C   UNL     1       6.686   4.491  17.249  0.00  0.00    +0.000 C 
ATOM      9  O   UNL     1       7.740   4.431  17.889  0.00  0.00    +0.000 OA
ATOM     10  C   UNL     1       4.122   4.406  17.347  0.00  0.00    +0.000 C 
ENDROOT
BRANCH   8  11
ATOM     11  C   UNL     1       6.711   4.388  15.790  0.00  0.00    +0.000 A 
ATOM     12  C   UNL     1       7.440   5.224  14.898  0.00  0.00    +0.000 A 
ATOM     13  C   UNL     1       7.135   4.748  13.647  0.00  0.00    +0.000 A 
ATOM     14  C   UNL     1       7.530   5.111  12.276  0.00  0.00    +0.000 C 
ATOM     15  O   UNL     1       6.261   3.717  13.766  0.00  0.00    +0.000 OA
ATOM     16  N   UNL     1       5.978   3.499  15.097  0.00  0.00    +0.000 NA
ENDBRANCH   8  11
BRANCH   1  18
ATOM     17  C   UNL     1       1.010   3.043  20.649  0.00  0.00    +0.000 C 
ATOM     18  C   UNL     1       1.175   3.911  19.412  0.00  0.00    +0.000 C 
ENDBRANCH   1  18
TORSDOF 2
ENDMDL
MODEL 8
REMARK VINA RESULT:      -6.4      2.001      3.279
REMARK  Name = 
REMARK  4 active torsions:
REMARK  status: ('A' for Active; 'I' for Inactive)
REMARK    1  A    between atoms: C_1  and  C_2
REMARK    2  A    between atoms: C_2  and  N_3
REMARK    3  A    between atoms: C_10  and  C_12
REMARK    4  A    between atoms: C_14  and  C_15
REMARK                            x       y       z     vdW  Elec       q    Type
REMARK                         _______ _______ _______ _____ _____    ______ ____
ROOT
ATOM      1  N   UNL     1       2.130   3.712  19.699  0.00  0.00    +0.000 NA
ATOM      2  C   UNL     1       1.007   4.003  18.758  0.00  0.00    +0.000 C 
ATOM      3  C   UNL     1       2.057   4.547  17.784  0.00  0.00    +0.000 C 
ATOM      4  C   UNL     1       3.030   3.554  18.509  0.00  0.00    +0.000 C 
ATOM      5  C   UNL     1       3.185   2.180  17.854  0.00  0.00    +0.000 C 
ATOM      6  C   UNL     1       4.526   2.272  17.133  0.00  0.00    +0.000 C 
ATOM      7  N   UNL     1       5.023   3.604  17.391  0.00  0.00    +0.000 N 
ATOM      8  C   UNL     1       5.785   4.266  16.424  0.00  0.00    +0.000 C 
ATOM      9  O   UNL     1       5.999   3.748  15.323  0.00  0.00    +0.000 OA
ATOM     10  C   UNL     1       4.430   4.169  18.601  0.00  0.00    +0.000 C 
ENDROOT
BRANCH   8  11
ATOM     11  C   UNL     1       6.296   5.607  16.710  0.00  0.00    +0.000 A 
ATOM     12  C   UNL     1       7.341   5.936  17.618  0.00  0.00    +0.000 A 
ATOM     13  C   UNL     1       7.445   7.303  17.550  0.00  0.00    +0.000 A 
ATOM     14  C   UNL     1       8.305   8.309  18.194  0.00  0.00    +0.000 C 
ATOM     15  O   UNL     1       6.512   7.775  16.687  0.00  0.00    +0.000 OA
ATOM     16  N   UNL     1       5.779   6.727  16.173  0.00  0.00    +0.000 NA
ENDBRANCH   8  11
BRANCH   1  18
ATOM     17  C   UNL     1       1.790   2.753  21.966  0.00  0.00    +0.000 C 
ATOM     18  C   UNL     1       1.789   2.512  20.464  0.00  0.00    +0.000 C 
ENDBRANCH   1  18
TORSDOF 2
ENDMDL
MODEL 9
REMARK VINA RESULT:      -6.4      2.998      4.254
REMARK  Name = 
REMARK  4 active torsions:
REMARK  status: ('A' for Active; 'I' for Inactive)
REMARK    1  A    between atoms: C_1  and  C_2
REMARK    2  A    between atoms: C_2  and  N_3
REMARK    3  A    between atoms: C_10  and  C_12
REMARK    4  A    between atoms: C_14  and  C_15
REMARK                            x       y       z     vdW  Elec       q    Type
REMARK                         _______ _______ _______ _____ _____    ______ ____
ROOT
ATOM      1  N   UNL     1       3.134   5.149  19.648  0.00  0.00    +0.000 NA
ATOM      2  C   UNL     1       2.138   5.507  18.594  0.00  0.00    +0.000 C 
ATOM      3  C   UNL     1       3.284   6.188  17.841  0.00  0.00    +0.000 C 
ATOM      4  C   UNL     1       4.194   5.152  18.586  0.00  0.00    +0.000 C 
ATOM      5  C   UNL     1       4.501   3.864  17.818  0.00  0.00    +0.000 C 
ATOM      6  C   UNL     1       5.922   4.077  17.307  0.00  0.00    +0.000 C 
ATOM      7  N   UNL     1       6.317   5.387  17.771  0.00  0.00    +0.000 N 
ATOM      8  C   UNL     1       7.172   6.176  16.995  0.00  0.00    +0.000 C 
ATOM      9  O   UNL     1       7.558   5.790  15.887  0.00  0.00    +0.000 OA
ATOM     10  C   UNL     1       5.539   5.796  18.938  0.00  0.00    +0.000 C 
ENDROOT
BRANCH   8  11
ATOM     11  C   UNL     1       7.577   7.492  17.489  0.00  0.00    +0.000 A 
ATOM     12  C   UNL     1       8.527   7.752  18.517  0.00  0.00    +0.000 A 
ATOM     13  C   UNL     1       8.551   9.120  18.630  0.00  0.00    +0.000 A 
ATOM     14  C   UNL     1       9.297  10.076  19.465  0.00  0.00    +0.000 C 
ATOM     15  O   UNL     1       7.661   9.653  17.758  0.00  0.00    +0.000 OA
ATOM     16  N   UNL     1       7.035   8.644  17.056  0.00  0.00    +0.000 NA
ENDBRANCH   8  11
BRANCH   1  18
ATOM     17  C   UNL     1       1.295   3.831  20.676  0.00  0.00    +0.000 C 
ATOM     18  C   UNL     1       2.748   3.862  20.227  0.00  0.00    +0.000 C 
ENDBRANCH   1  18
TORSDOF 2
ENDMDL
