MODEL 1
REMARK VINA RESULT:      -7.1      0.000      0.000
REMARK  Name = 
REMARK  6 active torsions:
REMARK  status: ('A' for Active; 'I' for Inactive)
REMARK    1  A    between atoms: C_1  and  C_2
REMARK    2  A    between atoms: C_2  and  N_3
REMARK    3  A    between atoms: C_6  and  O_7
REMARK    4  A    between atoms: O_7  and  C_8
REMARK    5  A    between atoms: N_11  and  S_12
REMARK    6  A    between atoms: S_12  and  C_15
REMARK                            x       y       z     vdW  Elec       q    Type
REMARK                         _______ _______ _______ _____ _____    ______ ____
ROOT
ATOM      1  N   UNL     1       5.566   4.361  14.181  0.00  0.00    +0.000 NA
ATOM      2  C   UNL     1       5.661   5.783  14.538  0.00  0.00    +0.000 C 
ATOM      3  C   UNL     1       5.697   5.836  16.066  0.00  0.00    +0.000 C 
ATOM      4  C   UNL     1       7.138   5.756  16.613  0.00  0.00    +0.000 C 
ATOM      5  C   UNL     1       7.252   5.179  18.029  0.00  0.00    +0.000 C 
ATOM      6  C   UNL     1       6.320   4.002  18.303  0.00  0.00    +0.000 C 
ATOM      7  N   UNL     1       4.942   4.278  17.841  0.00  0.00    +0.000 NA
ATOM      8  C   UNL     1       4.856   4.620  16.402  0.00  0.00    +0.000 C 
ATOM      9  C   UNL     1       5.342   3.569  15.404  0.00  0.00    +0.000 C 
ENDROOT
BRANCH   7  10
ATOM     10  S   UNL     1       4.000   5.336  18.822  0.00  0.00    +0.000 S 
ATOM     11  O   UNL     1       4.855   5.894  19.845  0.00  0.00    +0.000 OA
ATOM     12  O   UNL     1       3.215   6.210  17.972  0.00  0.00    +0.000 OA
BRANCH  10  13
ATOM     13  C   UNL     1       2.859   4.264  19.621  0.00  0.00    +0.000 A 
ATOM     14  C   UNL     1       2.895   4.115  21.012  0.00  0.00    +0.000 A 
ATOM     15  C   UNL     1       1.882   3.396  21.640  0.00  0.00    +0.000 A 
ATOM     16  C   UNL     1       0.851   2.830  20.886  0.00  0.00    +0.000 A 
ATOM     17  C   UNL     1       0.836   2.975  19.497  0.00  0.00    +0.000 A 
ATOM     18  C   UNL     1       1.846   3.696  18.868  0.00  0.00    +0.000 A 
ATOM     19  F   UNL     1       1.798   3.840  17.535  0.00  0.00    +0.000 F 
ENDBRANCH  10  13
ENDBRANCH   7  10
BRANCH   1  21
ATOM     20  C   UNL     1       6.190   3.115  12.043  0.00  0.00    +0.000 C 
ATOM     21  C   UNL     1       6.607   3.871  13.298  0.00  0.00    +0.000 C 
ENDBRANCH   1  21
BRANCH   4  22
ATOM     22  O   UNL     1       7.674   7.088  16.541  0.00  0.00    +0.000 OA
ATOM     23  C   UNL     1       7.581   7.830  17.749  0.00  0.00    +0.000 C 
ENDBRANCH   4  22
TORSDOF 4
ENDMDL
MODEL 2
REMARK VINA RESULT:      -7.0      1.063      1.358
REMARK  Name = 
REMARK  6 active torsions:
REMARK  status: ('A' for Active; 'I' for Inactive)
REMARK    1  A    between atoms: C_1  and  C_2
REMARK    2  A    between atoms: C_2  and  N_3
REMARK    3  A    between atoms: C_6  and  O_7
REMARK    4  A    between atoms: O_7  and  C_8
REMARK    5  A    between atoms: N_11  and  S_12
REMARK    6  A    between atoms: S_12  and  C_15
REMARK                            x       y       z     vdW  Elec       q    Type
REMARK                         _______ _______ _______ _____ _____    ______ ____
ROOT
ATOM      1  N   UNL     1       5.772   4.641  14.309  0.00  0.00    +0.000 NA
ATOM      2  C   UNL     1       5.611   6.056  14.673  0.00  0.00    +0.000 C 
ATOM      3  C   UNL     1       5.584   6.100  16.201  0.00  0.00    +0.000 C 
ATOM      4  C   UNL     1       6.997   6.262  16.799  0.00  0.00    +0.000 C 
ATOM      5  C   UNL     1       7.159   5.701  18.217  0.00  0.00    +0.000 C 
ATOM      6  C   UNL     1       6.433   4.380  18.454  0.00  0.00    +0.000 C 
ATOM      7  N   UNL     1       5.044   4.421  17.943  0.00  0.00    +0.000 NA
ATOM      8  C   UNL     1       4.951   4.756  16.504  0.00  0.00    +0.000 C 
ATOM      9  C   UNL     1       5.644   3.813  15.520  0.00  0.00    +0.000 C 
ENDROOT
BRANCH   7  10
ATOM     10  S   UNL     1       3.903   5.294  18.893  0.00  0.00    +0.000 S 
ATOM     11  O   UNL     1       4.453   5.478  20.217  0.00  0.00    +0.000 OA
ATOM     12  O   UNL     1       3.421   6.434  18.140  0.00  0.00    +0.000 OA
BRANCH  10  13
ATOM     13  C   UNL     1       2.545   4.187  19.041  0.00  0.00    +0.000 A 
ATOM     14  C   UNL     1       2.528   2.997  18.305  0.00  0.00    +0.000 A 
ATOM     15  C   UNL     1       1.531   2.060  18.560  0.00  0.00    +0.000 A 
ATOM     16  C   UNL     1       0.562   2.312  19.534  0.00  0.00    +0.000 A 
ATOM     17  C   UNL     1       0.584   3.510  20.253  0.00  0.00    +0.000 A 
ATOM     18  C   UNL     1       1.581   4.447  20.000  0.00  0.00    +0.000 A 
ATOM     19  F   UNL     1       1.593   5.581  20.718  0.00  0.00    +0.000 F 
ENDBRANCH  10  13
ENDBRANCH   7  10
BRANCH   1  21
ATOM     20  C   UNL     1       6.664   3.601  12.155  0.00  0.00    +0.000 C 
ATOM     21  C   UNL     1       6.911   4.345  13.462  0.00  0.00    +0.000 C 
ENDBRANCH   1  21
BRANCH   4  22
ATOM     22  O   UNL     1       7.300   7.667  16.751  0.00  0.00    +0.000 OA
ATOM     23  C   UNL     1       7.991   8.164  17.888  0.00  0.00    +0.000 C 
ENDBRANCH   4  22
TORSDOF 4
ENDMDL
MODEL 3
REMARK VINA RESULT:      -6.7      2.024      3.782
REMARK  Name = 
REMARK  6 active torsions:
REMARK  status: ('A' for Active; 'I' for Inactive)
REMARK    1  A    between atoms: C_1  and  C_2
REMARK    2  A    between atoms: C_2  and  N_3
REMARK    3  A    between atoms: C_6  and  O_7
REMARK    4  A    between atoms: O_7  and  C_8
REMARK    5  A    between atoms: N_11  and  S_12
REMARK    6  A    between atoms: S_12  and  C_15
REMARK                            x       y       z     vdW  Elec       q    Type
REMARK                         _______ _______ _______ _____ _____    ______ ____
ROOT
ATOM      1  N   UNL     1       7.549   6.026  18.921  0.00  0.00    +0.000 NA
ATOM      2  C   UNL     1       7.789   4.863  18.056  0.00  0.00    +0.000 C 
ATOM      3  C   UNL     1       6.473   4.598  17.325  0.00  0.00    +0.000 C 
ATOM      4  C   UNL     1       6.382   5.378  15.996  0.00  0.00    +0.000 C 
ATOM      5  C   UNL     1       4.954   5.688  15.534  0.00  0.00    +0.000 C 
ATOM      6  C   UNL     1       4.004   6.087  16.659  0.00  0.00    +0.000 C 
ATOM      7  N   UNL     1       4.110   5.167  17.814  0.00  0.00    +0.000 NA
ATOM      8  C   UNL     1       5.480   5.068  18.369  0.00  0.00    +0.000 C 
ATOM      9  C   UNL     1       6.113   6.354  18.902  0.00  0.00    +0.000 C 
ENDROOT
BRANCH   7  10
ATOM     10  S   UNL     1       3.362   3.626  17.640  0.00  0.00    +0.000 S 
ATOM     11  O   UNL     1       2.295   3.740  16.671  0.00  0.00    +0.000 OA
ATOM     12  O   UNL     1       4.383   2.609  17.482  0.00  0.00    +0.000 OA
BRANCH  10  13
ATOM     13  C   UNL     1       2.615   3.341  19.206  0.00  0.00    +0.000 A 
ATOM     14  C   UNL     1       1.238   3.528  19.369  0.00  0.00    +0.000 A 
ATOM     15  C   UNL     1       0.642   3.138  20.566  0.00  0.00    +0.000 A 
ATOM     16  C   UNL     1       1.413   2.575  21.585  0.00  0.00    +0.000 A 
ATOM     17  C   UNL     1       2.790   2.407  21.413  0.00  0.00    +0.000 A 
ATOM     18  C   UNL     1       3.387   2.794  20.217  0.00  0.00    +0.000 A 
ATOM     19  F   UNL     1       4.707   2.602  20.067  0.00  0.00    +0.000 F 
ENDBRANCH  10  13
ENDBRANCH   7  10
BRANCH   1  21
ATOM     20  C   UNL     1       7.998   8.282  17.814  0.00  0.00    +0.000 C 
ATOM     21  C   UNL     1       8.450   7.144  18.721  0.00  0.00    +0.000 C 
ENDBRANCH   1  21
BRANCH   4  22
ATOM     22  O   UNL     1       7.096   4.601  15.020  0.00  0.00    +0.000 OA
ATOM     23  C   UNL     1       6.270   3.860  14.134  0.00  0.00    +0.000 C 
ENDBRANCH   4  22
TORSDOF 4
ENDMDL
MODEL 4
REMARK VINA RESULT:      -6.7      2.810      5.900
REMARK  Name = 
REMARK  6 active torsions:
REMARK  status: ('A' for Active; 'I' for Inactive)
REMARK    1  A    between atoms: C_1  and  C_2
REMARK    2  A    between atoms: C_2  and  N_3
REMARK    3  A    between atoms: C_6  and  O_7
REMARK    4  A    between atoms: O_7  and  C_8
REMARK    5  A    between atoms: N_11  and  S_12
REMARK    6  A    between atoms: S_12  and  C_15
REMARK                            x       y       z     vdW  Elec       q    Type
REMARK                         _______ _______ _______ _____ _____    ______ ____
ROOT
ATOM      1  N   UNL     1       1.621   2.771  17.803  0.00  0.00    +0.000 NA
ATOM      2  C   UNL     1       2.880   2.036  17.990  0.00  0.00    +0.000 C 
ATOM      3  C   UNL     1       3.993   3.084  17.955  0.00  0.00    +0.000 C 
ATOM      4  C   UNL     1       4.292   3.655  19.358  0.00  0.00    +0.000 C 
ATOM      5  C   UNL     1       4.878   5.072  19.358  0.00  0.00    +0.000 C 
ATOM      6  C   UNL     1       4.255   6.008  18.328  0.00  0.00    +0.000 C 
ATOM      7  N   UNL     1       4.153   5.365  16.998  0.00  0.00    +0.000 NA
ATOM      8  C   UNL     1       3.384   4.099  17.008  0.00  0.00    +0.000 C 
ATOM      9  C   UNL     1       1.926   4.172  17.461  0.00  0.00    +0.000 C 
ENDROOT
BRANCH   7  10
ATOM     10  S   UNL     1       5.614   5.236  16.094  0.00  0.00    +0.000 S 
ATOM     11  O   UNL     1       6.059   3.862  16.136  0.00  0.00    +0.000 OA
ATOM     12  O   UNL     1       5.453   5.911  14.821  0.00  0.00    +0.000 OA
BRANCH  10  13
ATOM     13  C   UNL     1       6.767   6.188  17.018  0.00  0.00    +0.000 A 
ATOM     14  C   UNL     1       6.791   7.581  16.884  0.00  0.00    +0.000 A 
ATOM     15  C   UNL     1       7.593   8.327  17.744  0.00  0.00    +0.000 A 
ATOM     16  C   UNL     1       8.362   7.688  18.720  0.00  0.00    +0.000 A 
ATOM     17  C   UNL     1       8.337   6.295  18.833  0.00  0.00    +0.000 A 
ATOM     18  C   UNL     1       7.535   5.549  17.976  0.00  0.00    +0.000 A 
ATOM     19  F   UNL     1       7.511   4.214  18.118  0.00  0.00    +0.000 F 
ENDBRANCH  10  13
ENDBRANCH   7  10
BRANCH   1  21
ATOM     20  C   UNL     1       0.949   3.096  20.244  0.00  0.00    +0.000 C 
ATOM     21  C   UNL     1       0.631   2.581  18.845  0.00  0.00    +0.000 C 
ENDBRANCH   1  21
BRANCH   4  22
ATOM     22  O   UNL     1       5.176   2.718  19.996  0.00  0.00    +0.000 OA
ATOM     23  C   UNL     1       4.527   1.745  20.802  0.00  0.00    +0.000 C 
ENDBRANCH   4  22
TORSDOF 4
ENDMDL
MODEL 5
REMARK VINA RESULT:      -6.6      1.925      3.610
REMARK  Name = 
REMARK  6 active torsions:
REMARK  status: ('A' for Active; 'I' for Inactive)
REMARK    1  A    between atoms: C_1  and  C_2
REMARK    2  A    between atoms: C_2  and  N_3
REMARK    3  A    between atoms: C_6  and  O_7
REMARK    4  A    between atoms: O_7  and  C_8
REMARK    5  A    between atoms: N_11  and  S_12
REMARK    6  A    between atoms: S_12  and  C_15
REMARK                            x       y       z     vdW  Elec       q    Type
REMARK                         _______ _______ _______ _____ _____    ______ ____
ROOT
ATOM      1  N   UNL     1       7.553   5.973  19.011  0.00  0.00    +0.000 NA
ATOM      2  C   UNL     1       7.889   4.812  18.176  0.00  0.00    +0.000 C 
ATOM      3  C   UNL     1       6.617   4.462  17.404  0.00  0.00    +0.000 C 
ATOM      4  C   UNL     1       6.532   5.215  16.059  0.00  0.00    +0.000 C 
ATOM      5  C   UNL     1       5.106   5.437  15.541  0.00  0.00    +0.000 C 
ATOM      6  C   UNL     1       4.095   5.799  16.624  0.00  0.00    +0.000 C 
ATOM      7  N   UNL     1       4.210   4.906  17.798  0.00  0.00    +0.000 NA
ATOM      8  C   UNL     1       5.562   4.892  18.404  0.00  0.00    +0.000 C 
ATOM      9  C   UNL     1       6.102   6.220  18.936  0.00  0.00    +0.000 C 
ENDROOT
BRANCH   7  10
ATOM     10  S   UNL     1       3.555   3.322  17.625  0.00  0.00    +0.000 S 
ATOM     11  O   UNL     1       2.552   3.351  16.584  0.00  0.00    +0.000 OA
ATOM     12  O   UNL     1       4.636   2.357  17.568  0.00  0.00    +0.000 OA
BRANCH  10  13
ATOM     13  C   UNL     1       2.720   3.043  19.147  0.00  0.00    +0.000 A 
ATOM     14  C   UNL     1       3.408   2.486  20.231  0.00  0.00    +0.000 A 
ATOM     15  C   UNL     1       2.778   2.428  21.471  0.00  0.00    +0.000 A 
ATOM     16  C   UNL     1       1.478   2.915  21.623  0.00  0.00    +0.000 A 
ATOM     17  C   UNL     1       0.799   3.456  20.528  0.00  0.00    +0.000 A 
ATOM     18  C   UNL     1       1.427   3.517  19.288  0.00  0.00    +0.000 A 
ATOM     19  F   UNL     1       0.762   4.060  18.257  0.00  0.00    +0.000 F 
ENDBRANCH  10  13
ENDBRANCH   7  10
BRANCH   1  21
ATOM     20  C   UNL     1       7.959   8.191  17.816  0.00  0.00    +0.000 C 
ATOM     21  C   UNL     1       8.397   7.137  18.824  0.00  0.00    +0.000 C 
ENDBRANCH   1  21
BRANCH   4  22
ATOM     22  O   UNL     1       7.323   4.464  15.123  0.00  0.00    +0.000 OA
ATOM     23  C   UNL     1       7.044   4.738  13.757  0.00  0.00    +0.000 C 
ENDBRANCH   4  22
TORSDOF 4
ENDMDL
MODEL 6
REMARK VINA RESULT:      -6.6      1.230      1.483
REMARK  Name = 
REMARK  6 active torsions:
REMARK  status: ('A' for Active; 'I' for Inactive)
REMARK    1  A    between atoms: C_1  and  C_2
REMARK    2  A    between atoms: C_2  and  N_3
REMARK    3  A    between atoms: C_6  and  O_7
REMARK    4  A    between atoms: O_7  and  C_8
REMARK    5  A    between atoms: N_11  and  S_12
REMARK    6  A    between atoms: S_12  and  C_15
REMARK                            x       y       z     vdW  Elec       q    Type
REMARK                         _______ _______ _______ _____ _____    ______ ____
ROOT
ATOM      1  N   UNL     1       5.849   4.510  14.353  0.00  0.00    +0.000 NA
ATOM      2  C   UNL     1       5.606   5.918  14.696  0.00  0.00    +0.000 C 
ATOM      3  C   UNL     1       5.648   5.996  16.223  0.00  0.00    +0.000 C 
ATOM      4  C   UNL     1       7.074   6.270  16.747  0.00  0.00    +0.000 C 
ATOM      5  C   UNL     1       7.342   5.754  18.166  0.00  0.00    +0.000 C 
ATOM      6  C   UNL     1       6.723   4.392  18.465  0.00  0.00    +0.000 C 
ATOM      7  N   UNL     1       5.312   4.325  18.022  0.00  0.00    +0.000 NA
ATOM      8  C   UNL     1       5.127   4.619  16.583  0.00  0.00    +0.000 C 
ATOM      9  C   UNL     1       5.838   3.703  15.585  0.00  0.00    +0.000 C 
ENDROOT
BRANCH   7  10
ATOM     10  S   UNL     1       4.158   5.138  19.010  0.00  0.00    +0.000 S 
ATOM     11  O   UNL     1       4.692   5.241  20.349  0.00  0.00    +0.000 OA
ATOM     12  O   UNL     1       3.686   6.323  18.321  0.00  0.00    +0.000 OA
BRANCH  10  13
ATOM     13  C   UNL     1       2.799   4.025  19.073  0.00  0.00    +0.000 A 
ATOM     14  C   UNL     1       1.604   4.342  18.418  0.00  0.00    +0.000 A 
ATOM     15  C   UNL     1       0.602   3.378  18.339  0.00  0.00    +0.000 A 
ATOM     16  C   UNL     1       0.792   2.119  18.911  0.00  0.00    +0.000 A 
ATOM     17  C   UNL     1       1.986   1.821  19.573  0.00  0.00    +0.000 A 
ATOM     18  C   UNL     1       2.989   2.781  19.651  0.00  0.00    +0.000 A 
ATOM     19  F   UNL     1       4.135   2.465  20.273  0.00  0.00    +0.000 F 
ENDBRANCH  10  13
ENDBRANCH   7  10
BRANCH   1  21
ATOM     20  C   UNL     1       6.690   3.569  12.135  0.00  0.00    +0.000 C 
ATOM     21  C   UNL     1       6.965   4.273  13.458  0.00  0.00    +0.000 C 
ENDBRANCH   1  21
BRANCH   4  22
ATOM     22  O   UNL     1       7.274   7.690  16.656  0.00  0.00    +0.000 OA
ATOM     23  C   UNL     1       7.914   8.272  17.783  0.00  0.00    +0.000 C 
ENDBRANCH   4  22
TORSDOF 4
ENDMDL
MODEL 7
REMARK VINA RESULT:      -6.6      3.301      4.563
REMARK  Name = 
REMARK  6 active torsions:
REMARK  status: ('A' for Active; 'I' for Inactive)
REMARK    1  A    between atoms: C_1  and  C_2
REMARK    2  A    between atoms: C_2  and  N_3
REMARK    3  A    between atoms: C_6  and  O_7
REMARK    4  A    between atoms: O_7  and  C_8
REMARK    5  A    between atoms: N_11  and  S_12
REMARK    6  A    between atoms: S_12  and  C_15
REMARK                            x       y       z     vdW  Elec       q    Type
REMARK                         _______ _______ _______ _____ _____    ______ ____
ROOT
ATOM      1  N   UNL     1       6.155   4.910  16.503  0.00  0.00    +0.000 NA
ATOM      2  C   UNL     1       6.360   4.409  17.870  0.00  0.00    +0.000 C 
ATOM      3  C   UNL     1       4.968   4.295  18.493  0.00  0.00    +0.000 C 
ATOM      4  C   UNL     1       4.335   2.909  18.240  0.00  0.00    +0.000 C 
ATOM      5  C   UNL     1       2.802   2.899  18.244  0.00  0.00    +0.000 C 
ATOM      6  C   UNL     1       2.166   4.106  17.562  0.00  0.00    +0.000 C 
ATOM      7  N   UNL     1       2.791   5.374  18.003  0.00  0.00    +0.000 NA
ATOM      8  C   UNL     1       4.254   5.424  17.777  0.00  0.00    +0.000 C 
ATOM      9  C   UNL     1       4.742   5.290  16.334  0.00  0.00    +0.000 C 
ENDROOT
BRANCH   7  10
ATOM     10  S   UNL     1       2.351   5.943  19.568  0.00  0.00    +0.000 S 
ATOM     11  O   UNL     1       1.120   5.296  19.963  0.00  0.00    +0.000 OA
ATOM     12  O   UNL     1       3.509   5.899  20.440  0.00  0.00    +0.000 OA
BRANCH  10  13
ATOM     13  C   UNL     1       1.988   7.643  19.311  0.00  0.00    +0.000 A 
ATOM     14  C   UNL     1       2.135   8.206  18.038  0.00  0.00    +0.000 A 
ATOM     15  C   UNL     1       1.685   9.505  17.818  0.00  0.00    +0.000 A 
ATOM     16  C   UNL     1       1.102  10.232  18.859  0.00  0.00    +0.000 A 
ATOM     17  C   UNL     1       0.974   9.662  20.128  0.00  0.00    +0.000 A 
ATOM     18  C   UNL     1       1.421   8.363  20.348  0.00  0.00    +0.000 A 
ATOM     19  F   UNL     1       1.268   7.830  21.570  0.00  0.00    +0.000 F 
ENDBRANCH  10  13
ENDBRANCH   7  10
BRANCH   1  21
ATOM     20  C   UNL     1       6.060   4.131  14.074  0.00  0.00    +0.000 C 
ATOM     21  C   UNL     1       6.713   4.084  15.450  0.00  0.00    +0.000 C 
ENDBRANCH   1  21
BRANCH   4  22
ATOM     22  O   UNL     1       4.871   2.030  19.243  0.00  0.00    +0.000 OA
ATOM     23  C   UNL     1       4.313   2.199  20.539  0.00  0.00    +0.000 C 
ENDBRANCH   4  22
TORSDOF 4
ENDMDL
MODEL 8
REMARK VINA RESULT:      -6.4      2.612      6.319
REMARK  Name = 
REMARK  6 active torsions:
REMARK  status: ('A' for Active; 'I' for Inactive)
REMARK    1  A    between atoms: C_1  and  C_2
REMARK    2  A    between atoms: C_2  and  N_3
REMARK    3  A    between atoms: C_6  and  O_7
REMARK    4  A    between atoms: O_7  and  C_8
REMARK    5  A    between atoms: N_11  and  S_12
REMARK    6  A    between atoms: S_12  and  C_15
REMARK                            x       y       z     vdW  Elec       q    Type
REMARK                         _______ _______ _______ _____ _____    ______ ____
ROOT
ATOM      1  N   UNL     1       3.363   2.892  18.350  0.00  0.00    +0.000 NA
ATOM      2  C   UNL     1       4.678   2.954  19.004  0.00  0.00    +0.000 C 
ATOM      3  C   UNL     1       5.457   4.056  18.285  0.00  0.00    +0.000 C 
ATOM      4  C   UNL     1       5.234   5.439  18.935  0.00  0.00    +0.000 C 
ATOM      5  C   UNL     1       5.419   6.628  17.985  0.00  0.00    +0.000 C 
ATOM      6  C   UNL     1       4.859   6.403  16.584  0.00  0.00    +0.000 C 
ATOM      7  N   UNL     1       5.266   5.088  16.039  0.00  0.00    +0.000 NA
ATOM      8  C   UNL     1       4.870   3.944  16.892  0.00  0.00    +0.000 C 
ATOM      9  C   UNL     1       3.376   3.753  17.154  0.00  0.00    +0.000 C 
ENDROOT
BRANCH   7  10
ATOM     10  S   UNL     1       6.891   4.957  15.482  0.00  0.00    +0.000 S 
ATOM     11  O   UNL     1       7.456   6.285  15.398  0.00  0.00    +0.000 OA
ATOM     12  O   UNL     1       7.575   3.921  16.231  0.00  0.00    +0.000 OA
BRANCH  10  13
ATOM     13  C   UNL     1       6.726   4.355  13.839  0.00  0.00    +0.000 A 
ATOM     14  C   UNL     1       5.645   3.534  13.500  0.00  0.00    +0.000 A 
ATOM     15  C   UNL     1       5.441   3.206  12.162  0.00  0.00    +0.000 A 
ATOM     16  C   UNL     1       6.309   3.687  11.180  0.00  0.00    +0.000 A 
ATOM     17  C   UNL     1       7.392   4.496  11.535  0.00  0.00    +0.000 A 
ATOM     18  C   UNL     1       7.596   4.826  12.871  0.00  0.00    +0.000 A 
ATOM     19  F   UNL     1       8.631   5.621  13.185  0.00  0.00    +0.000 F 
ENDBRANCH  10  13
ENDBRANCH   7  10
BRANCH   1  21
ATOM     20  C   UNL     1       1.720   4.471  19.499  0.00  0.00    +0.000 C 
ATOM     21  C   UNL     1       2.224   3.058  19.231  0.00  0.00    +0.000 C 
ENDBRANCH   1  21
BRANCH   4  22
ATOM     22  O   UNL     1       6.136   5.511  20.052  0.00  0.00    +0.000 OA
ATOM     23  C   UNL     1       7.507   5.625  19.700  0.00  0.00    +0.000 C 
ENDBRANCH   4  22
TORSDOF 4
ENDMDL
MODEL 9
REMARK VINA RESULT:      -6.4      1.249      1.533
REMARK  Name = 
REMARK  6 active torsions:
REMARK  status: ('A' for Active; 'I' for Inactive)
REMARK    1  A    between atoms: C_1  and  C_2
REMARK    2  A    between atoms: C_2  and  N_3
REMARK    3  A    between atoms: C_6  and  O_7
REMARK    4  A    between atoms: O_7  and  C_8
REMARK    5  A    between atoms: N_11  and  S_12
REMARK    6  A    between atoms: S_12  and  C_15
REMARK                            x       y       z     vdW  Elec       q    Type
REMARK                         _______ _______ _______ _____ _____    ______ ____
ROOT
ATOM      1  N   UNL     1       6.473   5.690  14.688  0.00  0.00    +0.000 NA
ATOM      2  C   UNL     1       7.039   6.225  15.935  0.00  0.00    +0.000 C 
ATOM      3  C   UNL     1       6.168   5.678  17.066  0.00  0.00    +0.000 C 
ATOM      4  C   UNL     1       6.686   4.321  17.589  0.00  0.00    +0.000 C 
ATOM      5  C   UNL     1       5.611   3.426  18.217  0.00  0.00    +0.000 C 
ATOM      6  C   UNL     1       4.275   3.442  17.480  0.00  0.00    +0.000 C 
ATOM      7  N   UNL     1       3.843   4.821  17.161  0.00  0.00    +0.000 NA
ATOM      8  C   UNL     1       4.830   5.581  16.359  0.00  0.00    +0.000 C 
ATOM      9  C   UNL     1       5.198   5.016  14.987  0.00  0.00    +0.000 C 
ENDROOT
BRANCH   7  10
ATOM     10  S   UNL     1       3.209   5.749  18.466  0.00  0.00    +0.000 S 
ATOM     11  O   UNL     1       4.313   6.334  19.193  0.00  0.00    +0.000 OA
ATOM     12  O   UNL     1       2.130   6.587  17.982  0.00  0.00    +0.000 OA
BRANCH  10  13
ATOM     13  C   UNL     1       2.471   4.547  19.516  0.00  0.00    +0.000 A 
ATOM     14  C   UNL     1       2.891   4.426  20.845  0.00  0.00    +0.000 A 
ATOM     15  C   UNL     1       2.184   3.589  21.703  0.00  0.00    +0.000 A 
ATOM     16  C   UNL     1       1.075   2.879  21.237  0.00  0.00    +0.000 A 
ATOM     17  C   UNL     1       0.674   3.000  19.903  0.00  0.00    +0.000 A 
ATOM     18  C   UNL     1       1.379   3.838  19.045  0.00  0.00    +0.000 A 
ATOM     19  F   UNL     1       0.962   3.954  17.775  0.00  0.00    +0.000 F 
ENDBRANCH  10  13
ENDBRANCH   7  10
BRANCH   1  21
ATOM     20  C   UNL     1       6.825   3.984  12.823  0.00  0.00    +0.000 C 
ATOM     21  C   UNL     1       7.398   4.945  13.857  0.00  0.00    +0.000 C 
ENDBRANCH   1  21
BRANCH   4  22
ATOM     22  O   UNL     1       7.735   4.621  18.524  0.00  0.00    +0.000 OA
ATOM     23  C   UNL     1       7.431   5.662  19.441  0.00  0.00    +0.000 C 
ENDBRANCH   4  22
TORSDOF 4
ENDMDL
