MODEL 1
REMARK VINA RESULT:      -9.3      0.000      0.000
REMARK  Name = 
REMARK  7 active torsions:
REMARK  status: ('A' for Active; 'I' for Inactive)
REMARK    1  A    between atoms: C_1  and  C_2
REMARK    2  A    between atoms: C_5  and  N_6
REMARK    3  A    between atoms: N_14  and  C_15
REMARK    4  A    between atoms: C_15  and  C_16
REMARK    5  A    between atoms: C_19  and  C_20
REMARK    6  A    between atoms: C_21  and  N_22
REMARK    7  A    between atoms: C_31  and  C_32
REMARK                            x       y       z     vdW  Elec       q    Type
REMARK                         _______ _______ _______ _____ _____    ______ ____
ROOT
ATOM      1  N   UNL     1       4.521   3.616  17.485  0.00  0.00    +0.000 N 
ATOM      2  C   UNL     1       3.753   2.377  17.350  0.00  0.00    +0.000 C 
ATOM      3  C   UNL     1       3.650   1.777  18.760  0.00  0.00    +0.000 C 
ATOM      4  C   UNL     1       3.142   2.795  19.759  0.00  0.00    +0.000 A 
ATOM      5  N   UNL     1       2.638   2.320  20.915  0.00  0.00    +0.000 NA
ATOM      6  C   UNL     1       2.135   3.239  21.754  0.00  0.00    +0.000 A 
ATOM      7  N   UNL     1       2.053   4.563  21.538  0.00  0.00    +0.000 NA
ATOM      8  C   UNL     1       2.568   5.011  20.384  0.00  0.00    +0.000 A 
ATOM      9  N   UNL     1       2.494   6.379  20.073  0.00  0.00    +0.000 N 
ATOM     10  C   UNL     1       3.193   4.156  19.480  0.00  0.00    +0.000 A 
ATOM     11  C   UNL     1       3.798   4.676  18.209  0.00  0.00    +0.000 C 
ATOM     12  H   UNL     1       3.408   6.792  20.249  0.00  0.00    +0.000 HD
ENDROOT
BRANCH   1  17
ATOM     13  C   UNL     1       7.736   5.269  13.050  0.00  0.00    +0.000 C 
ATOM     14  C   UNL     1       6.930   4.856  14.242  0.00  0.00    +0.000 A 
ATOM     15  C   UNL     1       5.634   4.377  14.072  0.00  0.00    +0.000 A 
ATOM     16  C   UNL     1       4.876   4.023  15.183  0.00  0.00    +0.000 A 
ATOM     17  C   UNL     1       5.366   4.121  16.499  0.00  0.00    +0.000 A 
ATOM     18  C   UNL     1       6.670   4.633  16.674  0.00  0.00    +0.000 A 
ATOM     19  C   UNL     1       7.440   4.969  15.540  0.00  0.00    +0.000 A 
BRANCH  18  20
ATOM     20  C   UNL     1       7.275   4.804  17.966  0.00  0.00    +0.000 C 
ATOM     21  N   UNL     1       7.768   4.978  18.999  0.00  0.00    +0.000 NA
ENDBRANCH  18  20
ENDBRANCH   1  17
BRANCH   9  22
ATOM     22  C   UNL     1       1.442   7.161  20.728  0.00  0.00    +0.000 C 
BRANCH  22  23
ATOM     23  C   UNL     1       1.413   8.598  20.214  0.00  0.00    +0.000 A 
ATOM     24  C   UNL     1       1.691   8.874  18.877  0.00  0.00    +0.000 A 
ATOM     25  C   UNL     1       1.480  10.159  18.369  0.00  0.00    +0.000 A 
ATOM     26  C   UNL     1       0.962  11.203  19.173  0.00  0.00    +0.000 A 
ATOM     27  C   UNL     1       0.771  12.538  18.497  0.00  0.00    +0.000 C 
ATOM     28  C   UNL     1       0.677  10.966  20.536  0.00  0.00    +0.000 A 
ATOM     29  C   UNL     1       0.977   9.668  21.018  0.00  0.00    +0.000 A 
BRANCH  28  30
ATOM     30  N   UNL     1       0.091  11.873  21.404  0.00  0.00    +0.000 N 
ATOM     31  C   UNL     1      -0.923  11.470  22.399  0.00  0.00    +0.000 C 
ATOM     32  C   UNL     1      -2.164  12.366  22.269  0.00  0.00    +0.000 C 
ATOM     33  O   UNL     1      -1.820  13.749  22.452  0.00  0.00    +0.000 OA
ATOM     34  C   UNL     1      -0.888  14.151  21.438  0.00  0.00    +0.000 C 
ATOM     35  C   UNL     1       0.402  13.310  21.456  0.00  0.00    +0.000 C 
ENDBRANCH  28  30
ENDBRANCH  22  23
ENDBRANCH   9  22
TORSDOF 5
ENDMDL
MODEL 2
REMARK VINA RESULT:      -9.1      3.855      9.724
REMARK  Name = 
REMARK  7 active torsions:
REMARK  status: ('A' for Active; 'I' for Inactive)
REMARK    1  A    between atoms: C_1  and  C_2
REMARK    2  A    between atoms: C_5  and  N_6
REMARK    3  A    between atoms: N_14  and  C_15
REMARK    4  A    between atoms: C_15  and  C_16
REMARK    5  A    between atoms: C_19  and  C_20
REMARK    6  A    between atoms: C_21  and  N_22
REMARK    7  A    between atoms: C_31  and  C_32
REMARK                            x       y       z     vdW  Elec       q    Type
REMARK                         _______ _______ _______ _____ _____    ______ ____
ROOT
ATOM      1  N   UNL     1      -1.902  10.882  19.166  0.00  0.00    +0.000 N 
ATOM      2  C   UNL     1      -1.614  12.191  19.758  0.00  0.00    +0.000 C 
ATOM      3  C   UNL     1      -1.667  11.997  21.281  0.00  0.00    +0.000 C 
ATOM      4  C   UNL     1      -0.800  10.837  21.722  0.00  0.00    +0.000 A 
ATOM      5  N   UNL     1      -0.444  10.797  23.021  0.00  0.00    +0.000 NA
ATOM      6  C   UNL     1       0.378   9.796  23.371  0.00  0.00    +0.000 A 
ATOM      7  N   UNL     1       0.902   8.866  22.555  0.00  0.00    +0.000 NA
ATOM      8  C   UNL     1       0.527   8.922  21.269  0.00  0.00    +0.000 A 
ATOM      9  N   UNL     1       1.055   8.001  20.349  0.00  0.00    +0.000 N 
ATOM     10  C   UNL     1      -0.391   9.865  20.814  0.00  0.00    +0.000 A 
ATOM     11  C   UNL     1      -0.830   9.895  19.380  0.00  0.00    +0.000 C 
ATOM     12  H   UNL     1       0.347   7.291  20.172  0.00  0.00    +0.000 HD
ENDROOT
BRANCH   1  17
ATOM     13  C   UNL     1      -4.043  10.129  13.914  0.00  0.00    +0.000 C 
ATOM     14  C   UNL     1      -3.527  10.346  15.303  0.00  0.00    +0.000 A 
ATOM     15  C   UNL     1      -2.309   9.793  15.686  0.00  0.00    +0.000 A 
ATOM     16  C   UNL     1      -1.847   9.970  16.985  0.00  0.00    +0.000 A 
ATOM     17  C   UNL     1      -2.561  10.704  17.952  0.00  0.00    +0.000 A 
ATOM     18  C   UNL     1      -3.809  11.242  17.571  0.00  0.00    +0.000 A 
ATOM     19  C   UNL     1      -4.261  11.075  16.244  0.00  0.00    +0.000 A 
BRANCH  18  20
ATOM     20  C   UNL     1      -4.644  11.989  18.472  0.00  0.00    +0.000 C 
ATOM     21  N   UNL     1      -5.346  12.568  19.187  0.00  0.00    +0.000 NA
ENDBRANCH  18  20
ENDBRANCH   1  17
BRANCH   9  22
ATOM     22  C   UNL     1       2.337   7.376  20.684  0.00  0.00    +0.000 C 
BRANCH  22  23
ATOM     23  C   UNL     1       2.520   6.051  19.949  0.00  0.00    +0.000 A 
ATOM     24  C   UNL     1       1.478   5.129  19.885  0.00  0.00    +0.000 A 
ATOM     25  C   UNL     1       1.583   4.008  19.057  0.00  0.00    +0.000 A 
ATOM     26  C   UNL     1       2.723   3.784  18.247  0.00  0.00    +0.000 A 
ATOM     27  C   UNL     1       2.702   2.541  17.391  0.00  0.00    +0.000 C 
ATOM     28  C   UNL     1       3.805   4.690  18.291  0.00  0.00    +0.000 A 
ATOM     29  C   UNL     1       3.678   5.769  19.199  0.00  0.00    +0.000 A 
BRANCH  28  30
ATOM     30  N   UNL     1       4.934   4.631  17.491  0.00  0.00    +0.000 N 
ATOM     31  C   UNL     1       6.300   4.654  18.051  0.00  0.00    +0.000 C 
ATOM     32  C   UNL     1       7.129   5.744  17.356  0.00  0.00    +0.000 C 
ATOM     33  O   UNL     1       7.185   5.521  15.938  0.00  0.00    +0.000 OA
ATOM     34  C   UNL     1       5.860   5.570  15.390  0.00  0.00    +0.000 C 
ATOM     35  C   UNL     1       4.922   4.525  16.023  0.00  0.00    +0.000 C 
ENDBRANCH  28  30
ENDBRANCH  22  23
ENDBRANCH   9  22
TORSDOF 5
ENDMDL
MODEL 3
REMARK VINA RESULT:      -8.6      5.623      9.825
REMARK  Name = 
REMARK  7 active torsions:
REMARK  status: ('A' for Active; 'I' for Inactive)
REMARK    1  A    between atoms: C_1  and  C_2
REMARK    2  A    between atoms: C_5  and  N_6
REMARK    3  A    between atoms: N_14  and  C_15
REMARK    4  A    between atoms: C_15  and  C_16
REMARK    5  A    between atoms: C_19  and  C_20
REMARK    6  A    between atoms: C_21  and  N_22
REMARK    7  A    between atoms: C_31  and  C_32
REMARK                            x       y       z     vdW  Elec       q    Type
REMARK                         _______ _______ _______ _____ _____    ______ ____
ROOT
ATOM      1  N   UNL     1       0.746  11.009  19.155  0.00  0.00    +0.000 N 
ATOM      2  C   UNL     1      -0.485  11.267  18.405  0.00  0.00    +0.000 C 
ATOM      3  C   UNL     1      -1.015  12.621  18.899  0.00  0.00    +0.000 C 
ATOM      4  C   UNL     1       0.057  13.688  18.848  0.00  0.00    +0.000 A 
ATOM      5  N   UNL     1      -0.353  14.972  18.871  0.00  0.00    +0.000 NA
ATOM      6  C   UNL     1       0.613  15.896  18.759  0.00  0.00    +0.000 A 
ATOM      7  N   UNL     1       1.926  15.667  18.589  0.00  0.00    +0.000 NA
ATOM      8  C   UNL     1       2.310  14.383  18.577  0.00  0.00    +0.000 A 
ATOM      9  N   UNL     1       3.663  14.063  18.375  0.00  0.00    +0.000 N 
ATOM     10  C   UNL     1       1.403  13.345  18.774  0.00  0.00    +0.000 A 
ATOM     11  C   UNL     1       1.851  11.913  18.795  0.00  0.00    +0.000 C 
ATOM     12  H   UNL     1       4.068  13.823  19.278  0.00  0.00    +0.000 HD
ENDROOT
BRANCH   1  17
ATOM     13  C   UNL     1       2.437   5.615  20.037  0.00  0.00    +0.000 C 
ATOM     14  C   UNL     1       1.988   7.031  19.856  0.00  0.00    +0.000 A 
ATOM     15  C   UNL     1       2.138   7.656  18.622  0.00  0.00    +0.000 A 
ATOM     16  C   UNL     1       1.748   8.981  18.465  0.00  0.00    +0.000 A 
ATOM     17  C   UNL     1       1.189   9.737  19.513  0.00  0.00    +0.000 A 
ATOM     18  C   UNL     1       1.061   9.112  20.772  0.00  0.00    +0.000 A 
ATOM     19  C   UNL     1       1.440   7.761  20.917  0.00  0.00    +0.000 A 
BRANCH  18  20
ATOM     20  C   UNL     1       0.529   9.784  21.926  0.00  0.00    +0.000 C 
ATOM     21  N   UNL     1       0.082  10.348  22.833  0.00  0.00    +0.000 NA
ENDBRANCH  18  20
ENDBRANCH   1  17
BRANCH   9  22
ATOM     22  C   UNL     1       4.493  15.055  17.688  0.00  0.00    +0.000 C 
BRANCH  22  23
ATOM     23  C   UNL     1       5.877  15.161  18.324  0.00  0.00    +0.000 A 
ATOM     24  C   UNL     1       6.052  15.857  19.518  0.00  0.00    +0.000 A 
ATOM     25  C   UNL     1       7.275  15.794  20.193  0.00  0.00    +0.000 A 
ATOM     26  C   UNL     1       8.354  15.014  19.710  0.00  0.00    +0.000 A 
ATOM     27  C   UNL     1       9.613  15.023  20.541  0.00  0.00    +0.000 C 
ATOM     28  C   UNL     1       8.218  14.302  18.497  0.00  0.00    +0.000 A 
ATOM     29  C   UNL     1       6.986  14.458  17.818  0.00  0.00    +0.000 A 
BRANCH  28  30
ATOM     30  N   UNL     1       9.162  13.440  17.963  0.00  0.00    +0.000 N 
ATOM     31  C   UNL     1       8.966  11.977  17.933  0.00  0.00    +0.000 C 
ATOM     32  C   UNL     1      10.187  11.276  18.547  0.00  0.00    +0.000 C 
ATOM     33  O   UNL     1      11.389  11.624  17.841  0.00  0.00    +0.000 OA
ATOM     34  C   UNL     1      11.610  13.039  17.936  0.00  0.00    +0.000 C 
ATOM     35  C   UNL     1      10.439  13.857  17.360  0.00  0.00    +0.000 C 
ENDBRANCH  28  30
ENDBRANCH  22  23
ENDBRANCH   9  22
TORSDOF 5
ENDMDL
MODEL 4
REMARK VINA RESULT:      -8.6      3.466     10.967
REMARK  Name = 
REMARK  7 active torsions:
REMARK  status: ('A' for Active; 'I' for Inactive)
REMARK    1  A    between atoms: C_1  and  C_2
REMARK    2  A    between atoms: C_5  and  N_6
REMARK    3  A    between atoms: N_14  and  C_15
REMARK    4  A    between atoms: C_15  and  C_16
REMARK    5  A    between atoms: C_19  and  C_20
REMARK    6  A    between atoms: C_21  and  N_22
REMARK    7  A    between atoms: C_31  and  C_32
REMARK                            x       y       z     vdW  Elec       q    Type
REMARK                         _______ _______ _______ _____ _____    ______ ____
ROOT
ATOM      1  N   UNL     1      -1.129  13.274  20.774  0.00  0.00    +0.000 N 
ATOM      2  C   UNL     1      -1.158  14.484  19.950  0.00  0.00    +0.000 C 
ATOM      3  C   UNL     1       0.307  14.883  19.718  0.00  0.00    +0.000 C 
ATOM      4  C   UNL     1       1.123  13.719  19.200  0.00  0.00    +0.000 A 
ATOM      5  N   UNL     1       2.290  14.010  18.592  0.00  0.00    +0.000 NA
ATOM      6  C   UNL     1       2.961  12.965  18.085  0.00  0.00    +0.000 A 
ATOM      7  N   UNL     1       2.568  11.679  18.090  0.00  0.00    +0.000 NA
ATOM      8  C   UNL     1       1.408  11.415  18.707  0.00  0.00    +0.000 A 
ATOM      9  N   UNL     1       0.916  10.099  18.730  0.00  0.00    +0.000 N 
ATOM     10  C   UNL     1       0.673  12.411  19.345  0.00  0.00    +0.000 A 
ATOM     11  C   UNL     1      -0.606  12.095  20.063  0.00  0.00    +0.000 C 
ATOM     12  H   UNL     1       1.105   9.708  19.651  0.00  0.00    +0.000 HD
ENDROOT
BRANCH   1  17
ATOM     13  C   UNL     1      -5.323  12.522  24.592  0.00  0.00    +0.000 C 
ATOM     14  C   UNL     1      -4.203  12.678  23.612  0.00  0.00    +0.000 A 
ATOM     15  C   UNL     1      -4.314  13.591  22.567  0.00  0.00    +0.000 A 
ATOM     16  C   UNL     1      -3.285  13.712  21.641  0.00  0.00    +0.000 A 
ATOM     17  C   UNL     1      -2.105  12.946  21.712  0.00  0.00    +0.000 A 
ATOM     18  C   UNL     1      -2.003  12.000  22.755  0.00  0.00    +0.000 A 
ATOM     19  C   UNL     1      -3.044  11.899  23.704  0.00  0.00    +0.000 A 
BRANCH  18  20
ATOM     20  C   UNL     1      -0.863  11.142  22.922  0.00  0.00    +0.000 C 
ATOM     21  N   UNL     1       0.076  10.475  23.036  0.00  0.00    +0.000 NA
ENDBRANCH  18  20
ENDBRANCH   1  17
BRANCH   9  22
ATOM     22  C   UNL     1       1.383   9.189  17.681  0.00  0.00    +0.000 C 
BRANCH  22  23
ATOM     23  C   UNL     1       2.269   8.086  18.253  0.00  0.00    +0.000 A 
ATOM     24  C   UNL     1       1.821   7.298  19.311  0.00  0.00    +0.000 A 
ATOM     25  C   UNL     1       2.551   6.173  19.706  0.00  0.00    +0.000 A 
ATOM     26  C   UNL     1       3.740   5.785  19.041  0.00  0.00    +0.000 A 
ATOM     27  C   UNL     1       4.424   4.544  19.560  0.00  0.00    +0.000 C 
ATOM     28  C   UNL     1       4.233   6.564  17.971  0.00  0.00    +0.000 A 
ATOM     29  C   UNL     1       3.495   7.731  17.659  0.00  0.00    +0.000 A 
BRANCH  28  30
ATOM     30  N   UNL     1       5.331   6.248  17.188  0.00  0.00    +0.000 N 
ATOM     31  C   UNL     1       5.201   5.839  15.775  0.00  0.00    +0.000 C 
ATOM     32  C   UNL     1       5.958   4.522  15.543  0.00  0.00    +0.000 C 
ATOM     33  O   UNL     1       7.345   4.660  15.888  0.00  0.00    +0.000 OA
ATOM     34  C   UNL     1       7.466   4.988  17.279  0.00  0.00    +0.000 C 
ATOM     35  C   UNL     1       6.731   6.292  17.642  0.00  0.00    +0.000 C 
ENDBRANCH  28  30
ENDBRANCH  22  23
ENDBRANCH   9  22
TORSDOF 5
ENDMDL
MODEL 5
REMARK VINA RESULT:      -8.4      5.600      9.710
REMARK  Name = 
REMARK  7 active torsions:
REMARK  status: ('A' for Active; 'I' for Inactive)
REMARK    1  A    between atoms: C_1  and  C_2
REMARK    2  A    between atoms: C_5  and  N_6
REMARK    3  A    between atoms: N_14  and  C_15
REMARK    4  A    between atoms: C_15  and  C_16
REMARK    5  A    between atoms: C_19  and  C_20
REMARK    6  A    between atoms: C_21  and  N_22
REMARK    7  A    between atoms: C_31  and  C_32
REMARK                            x       y       z     vdW  Elec       q    Type
REMARK                         _______ _______ _______ _____ _____    ______ ____
ROOT
ATOM      1  N   UNL     1       0.779  10.909  19.167  0.00  0.00    +0.000 N 
ATOM      2  C   UNL     1      -0.487  11.165  18.477  0.00  0.00    +0.000 C 
ATOM      3  C   UNL     1      -0.999  12.515  19.002  0.00  0.00    +0.000 C 
ATOM      4  C   UNL     1       0.066  13.586  18.906  0.00  0.00    +0.000 A 
ATOM      5  N   UNL     1      -0.348  14.869  18.955  0.00  0.00    +0.000 NA
ATOM      6  C   UNL     1       0.608  15.797  18.802  0.00  0.00    +0.000 A 
ATOM      7  N   UNL     1       1.913  15.575  18.570  0.00  0.00    +0.000 NA
ATOM      8  C   UNL     1       2.301  14.292  18.533  0.00  0.00    +0.000 A 
ATOM      9  N   UNL     1       3.643  13.979  18.266  0.00  0.00    +0.000 N 
ATOM     10  C   UNL     1       1.408  13.249  18.767  0.00  0.00    +0.000 A 
ATOM     11  C   UNL     1       1.862  11.820  18.759  0.00  0.00    +0.000 C 
ATOM     12  H   UNL     1       4.092  13.736  19.147  0.00  0.00    +0.000 HD
ENDROOT
BRANCH   1  17
ATOM     13  C   UNL     1       2.551   5.523  19.935  0.00  0.00    +0.000 C 
ATOM     14  C   UNL     1       2.080   6.936  19.784  0.00  0.00    +0.000 A 
ATOM     15  C   UNL     1       2.203   7.583  18.557  0.00  0.00    +0.000 A 
ATOM     16  C   UNL     1       1.794   8.905  18.428  0.00  0.00    +0.000 A 
ATOM     17  C   UNL     1       1.243   9.637  19.497  0.00  0.00    +0.000 A 
ATOM     18  C   UNL     1       1.143   8.991  20.748  0.00  0.00    +0.000 A 
ATOM     19  C   UNL     1       1.541   7.642  20.865  0.00  0.00    +0.000 A 
BRANCH  18  20
ATOM     20  C   UNL     1       0.622   9.637  21.921  0.00  0.00    +0.000 C 
ATOM     21  N   UNL     1       0.237  10.160  22.880  0.00  0.00    +0.000 NA
ENDBRANCH  18  20
ENDBRANCH   1  17
BRANCH   9  22
ATOM     22  C   UNL     1       4.436  14.977  17.545  0.00  0.00    +0.000 C 
BRANCH  22  23
ATOM     23  C   UNL     1       5.684  15.373  18.332  0.00  0.00    +0.000 A 
ATOM     24  C   UNL     1       5.610  16.337  19.334  0.00  0.00    +0.000 A 
ATOM     25  C   UNL     1       6.704  16.559  20.176  0.00  0.00    +0.000 A 
ATOM     26  C   UNL     1       7.899  15.808  20.058  0.00  0.00    +0.000 A 
ATOM     27  C   UNL     1       8.998  16.141  21.036  0.00  0.00    +0.000 C 
ATOM     28  C   UNL     1       8.017  14.829  19.047  0.00  0.00    +0.000 A 
ATOM     29  C   UNL     1       6.908  14.694  18.177  0.00  0.00    +0.000 A 
BRANCH  28  30
ATOM     30  N   UNL     1       9.094  13.973  18.880  0.00  0.00    +0.000 N 
ATOM     31  C   UNL     1      10.328  14.386  18.181  0.00  0.00    +0.000 C 
ATOM     32  C   UNL     1      10.672  13.363  17.088  0.00  0.00    +0.000 C 
ATOM     33  O   UNL     1      10.841  12.051  17.647  0.00  0.00    +0.000 OA
ATOM     34  C   UNL     1       9.616  11.629  18.263  0.00  0.00    +0.000 C 
ATOM     35  C   UNL     1       9.155  12.589  19.376  0.00  0.00    +0.000 C 
ENDBRANCH  28  30
ENDBRANCH  22  23
ENDBRANCH   9  22
TORSDOF 5
ENDMDL
MODEL 6
REMARK VINA RESULT:      -8.3      3.346     11.413
REMARK  Name = 
REMARK  7 active torsions:
REMARK  status: ('A' for Active; 'I' for Inactive)
REMARK    1  A    between atoms: C_1  and  C_2
REMARK    2  A    between atoms: C_5  and  N_6
REMARK    3  A    between atoms: N_14  and  C_15
REMARK    4  A    between atoms: C_15  and  C_16
REMARK    5  A    between atoms: C_19  and  C_20
REMARK    6  A    between atoms: C_21  and  N_22
REMARK    7  A    between atoms: C_31  and  C_32
REMARK                            x       y       z     vdW  Elec       q    Type
REMARK                         _______ _______ _______ _____ _____    ______ ____
ROOT
ATOM      1  N   UNL     1      -1.643  14.064  20.904  0.00  0.00    +0.000 N 
ATOM      2  C   UNL     1      -1.686  15.215  19.999  0.00  0.00    +0.000 C 
ATOM      3  C   UNL     1      -0.235  15.696  19.845  0.00  0.00    +0.000 C 
ATOM      4  C   UNL     1       0.689  14.559  19.468  0.00  0.00    +0.000 A 
ATOM      5  N   UNL     1       1.879  14.889  18.926  0.00  0.00    +0.000 NA
ATOM      6  C   UNL     1       2.650  13.861  18.542  0.00  0.00    +0.000 A 
ATOM      7  N   UNL     1       2.339  12.555  18.607  0.00  0.00    +0.000 NA
ATOM      8  C   UNL     1       1.155  12.253  19.156  0.00  0.00    +0.000 A 
ATOM      9  N   UNL     1       0.746  10.911  19.233  0.00  0.00    +0.000 N 
ATOM     10  C   UNL     1       0.312  13.235  19.670  0.00  0.00    +0.000 A 
ATOM     11  C   UNL     1      -0.995  12.880  20.314  0.00  0.00    +0.000 C 
ATOM     12  H   UNL     1       0.888  10.592  20.190  0.00  0.00    +0.000 HD
ENDROOT
BRANCH   1  17
ATOM     13  C   UNL     1      -6.238  12.785  24.064  0.00  0.00    +0.000 C 
ATOM     14  C   UNL     1      -5.011  13.130  23.280  0.00  0.00    +0.000 A 
ATOM     15  C   UNL     1      -4.952  12.845  21.919  0.00  0.00    +0.000 A 
ATOM     16  C   UNL     1      -3.799  13.139  21.199  0.00  0.00    +0.000 A 
ATOM     17  C   UNL     1      -2.666  13.731  21.789  0.00  0.00    +0.000 A 
ATOM     18  C   UNL     1      -2.715  13.995  23.175  0.00  0.00    +0.000 A 
ATOM     19  C   UNL     1      -3.897  13.713  23.893  0.00  0.00    +0.000 A 
BRANCH  18  20
ATOM     20  C   UNL     1      -1.616  14.574  23.898  0.00  0.00    +0.000 C 
ATOM     21  N   UNL     1      -0.711  15.042  24.448  0.00  0.00    +0.000 NA
ENDBRANCH  18  20
ENDBRANCH   1  17
BRANCH   9  22
ATOM     22  C   UNL     1       1.346   9.970  18.285  0.00  0.00    +0.000 C 
BRANCH  22  23
ATOM     23  C   UNL     1       1.751   8.667  18.972  0.00  0.00    +0.000 A 
ATOM     24  C   UNL     1       1.401   8.432  20.299  0.00  0.00    +0.000 A 
ATOM     25  C   UNL     1       1.606   7.170  20.865  0.00  0.00    +0.000 A 
ATOM     26  C   UNL     1       2.145   6.096  20.115  0.00  0.00    +0.000 A 
ATOM     27  C   UNL     1       2.303   4.784  20.843  0.00  0.00    +0.000 C 
ATOM     28  C   UNL     1       2.522   6.298  18.769  0.00  0.00    +0.000 A 
ATOM     29  C   UNL     1       2.361   7.612  18.268  0.00  0.00    +0.000 A 
BRANCH  28  30
ATOM     30  N   UNL     1       2.980   5.314  17.908  0.00  0.00    +0.000 N 
ATOM     31  C   UNL     1       2.146   4.162  17.513  0.00  0.00    +0.000 C 
ATOM     32  C   UNL     1       2.916   2.855  17.757  0.00  0.00    +0.000 C 
ATOM     33  O   UNL     1       4.150   2.841  17.021  0.00  0.00    +0.000 OA
ATOM     34  C   UNL     1       4.984   3.923  17.461  0.00  0.00    +0.000 C 
ATOM     35  C   UNL     1       4.311   5.296  17.280  0.00  0.00    +0.000 C 
ENDBRANCH  28  30
ENDBRANCH  22  23
ENDBRANCH   9  22
TORSDOF 5
ENDMDL
MODEL 7
REMARK VINA RESULT:      -8.2      5.420      8.149
REMARK  Name = 
REMARK  7 active torsions:
REMARK  status: ('A' for Active; 'I' for Inactive)
REMARK    1  A    between atoms: C_1  and  C_2
REMARK    2  A    between atoms: C_5  and  N_6
REMARK    3  A    between atoms: N_14  and  C_15
REMARK    4  A    between atoms: C_15  and  C_16
REMARK    5  A    between atoms: C_19  and  C_20
REMARK    6  A    between atoms: C_21  and  N_22
REMARK    7  A    between atoms: C_31  and  C_32
REMARK                            x       y       z     vdW  Elec       q    Type
REMARK                         _______ _______ _______ _____ _____    ______ ____
ROOT
ATOM      1  N   UNL     1       3.524   5.780  18.720  0.00  0.00    +0.000 N 
ATOM      2  C   UNL     1       3.831   4.357  18.880  0.00  0.00    +0.000 C 
ATOM      3  C   UNL     1       4.287   3.857  17.501  0.00  0.00    +0.000 C 
ATOM      4  C   UNL     1       5.377   4.735  16.925  0.00  0.00    +0.000 A 
ATOM      5  N   UNL     1       6.129   4.211  15.937  0.00  0.00    +0.000 NA
ATOM      6  C   UNL     1       7.129   4.985  15.490  0.00  0.00    +0.000 A 
ATOM      7  N   UNL     1       7.472   6.200  15.953  0.00  0.00    +0.000 NA
ATOM      8  C   UNL     1       6.704   6.702  16.930  0.00  0.00    +0.000 A 
ATOM      9  N   UNL     1       7.016   7.954  17.486  0.00  0.00    +0.000 N 
ATOM     10  C   UNL     1       5.587   6.022  17.409  0.00  0.00    +0.000 A 
ATOM     11  C   UNL     1       4.715   6.612  18.477  0.00  0.00    +0.000 C 
ATOM     12  H   UNL     1       6.376   8.642  17.093  0.00  0.00    +0.000 HD
ENDROOT
BRANCH   1  17
ATOM     13  C   UNL     1      -0.222   9.063  21.536  0.00  0.00    +0.000 C 
ATOM     14  C   UNL     1       0.744   8.164  20.828  0.00  0.00    +0.000 A 
ATOM     15  C   UNL     1       1.393   8.609  19.680  0.00  0.00    +0.000 A 
ATOM     16  C   UNL     1       2.266   7.762  19.007  0.00  0.00    +0.000 A 
ATOM     17  C   UNL     1       2.539   6.451  19.442  0.00  0.00    +0.000 A 
ATOM     18  C   UNL     1       1.860   5.990  20.591  0.00  0.00    +0.000 A 
ATOM     19  C   UNL     1       0.992   6.864  21.280  0.00  0.00    +0.000 A 
BRANCH  18  20
ATOM     20  C   UNL     1       2.034   4.666  21.121  0.00  0.00    +0.000 C 
ATOM     21  N   UNL     1       2.171   3.585  21.513  0.00  0.00    +0.000 NA
ENDBRANCH  18  20
ENDBRANCH   1  17
BRANCH   9  22
ATOM     22  C   UNL     1       8.401   8.416  17.367  0.00  0.00    +0.000 C 
BRANCH  22  23
ATOM     23  C   UNL     1       8.668   9.617  18.272  0.00  0.00    +0.000 A 
ATOM     24  C   UNL     1       8.982   9.431  19.616  0.00  0.00    +0.000 A 
ATOM     25  C   UNL     1       9.410  10.513  20.392  0.00  0.00    +0.000 A 
ATOM     26  C   UNL     1       9.560  11.810  19.843  0.00  0.00    +0.000 A 
ATOM     27  C   UNL     1      10.040  12.885  20.787  0.00  0.00    +0.000 C 
ATOM     28  C   UNL     1       9.241  12.041  18.487  0.00  0.00    +0.000 A 
ATOM     29  C   UNL     1       8.745  10.928  17.766  0.00  0.00    +0.000 A 
BRANCH  28  30
ATOM     30  N   UNL     1       9.424  13.237  17.812  0.00  0.00    +0.000 N 
ATOM     31  C   UNL     1      10.627  13.509  17.001  0.00  0.00    +0.000 C 
ATOM     32  C   UNL     1      11.249  14.847  17.425  0.00  0.00    +0.000 C 
ATOM     33  O   UNL     1      10.307  15.921  17.278  0.00  0.00    +0.000 OA
ATOM     34  C   UNL     1       9.172  15.685  18.123  0.00  0.00    +0.000 C 
ATOM     35  C   UNL     1       8.466  14.354  17.802  0.00  0.00    +0.000 C 
ENDBRANCH  28  30
ENDBRANCH  22  23
ENDBRANCH   9  22
TORSDOF 5
ENDMDL
MODEL 8
REMARK VINA RESULT:      -8.2      2.590      4.241
REMARK  Name = 
REMARK  7 active torsions:
REMARK  status: ('A' for Active; 'I' for Inactive)
REMARK    1  A    between atoms: C_1  and  C_2
REMARK    2  A    between atoms: C_5  and  N_6
REMARK    3  A    between atoms: N_14  and  C_15
REMARK    4  A    between atoms: C_15  and  C_16
REMARK    5  A    between atoms: C_19  and  C_20
REMARK    6  A    between atoms: C_21  and  N_22
REMARK    7  A    between atoms: C_31  and  C_32
REMARK                            x       y       z     vdW  Elec       q    Type
REMARK                         _______ _______ _______ _____ _____    ______ ____
ROOT
ATOM      1  N   UNL     1       3.157   6.108  18.683  0.00  0.00    +0.000 N 
ATOM      2  C   UNL     1       2.164   5.185  19.237  0.00  0.00    +0.000 C 
ATOM      3  C   UNL     1       1.844   5.693  20.651  0.00  0.00    +0.000 C 
ATOM      4  C   UNL     1       1.487   7.163  20.644  0.00  0.00    +0.000 A 
ATOM      5  N   UNL     1       0.819   7.637  21.714  0.00  0.00    +0.000 NA
ATOM      6  C   UNL     1       0.458   8.928  21.653  0.00  0.00    +0.000 A 
ATOM      7  N   UNL     1       0.662   9.770  20.626  0.00  0.00    +0.000 NA
ATOM      8  C   UNL     1       1.335   9.278  19.577  0.00  0.00    +0.000 A 
ATOM      9  N   UNL     1       1.562  10.088  18.452  0.00  0.00    +0.000 N 
ATOM     10  C   UNL     1       1.834   7.978  19.571  0.00  0.00    +0.000 A 
ATOM     11  C   UNL     1       2.617   7.450  18.405  0.00  0.00    +0.000 C 
ATOM     12  H   UNL     1       2.527  10.413  18.487  0.00  0.00    +0.000 HD
ENDROOT
BRANCH   1  17
ATOM     13  C   UNL     1       6.917   4.869  14.552  0.00  0.00    +0.000 C 
ATOM     14  C   UNL     1       5.951   5.154  15.660  0.00  0.00    +0.000 A 
ATOM     15  C   UNL     1       5.215   6.336  15.654  0.00  0.00    +0.000 A 
ATOM     16  C   UNL     1       4.342   6.612  16.700  0.00  0.00    +0.000 A 
ATOM     17  C   UNL     1       4.153   5.733  17.784  0.00  0.00    +0.000 A 
ATOM     18  C   UNL     1       4.918   4.547  17.803  0.00  0.00    +0.000 A 
ATOM     19  C   UNL     1       5.787   4.265  16.728  0.00  0.00    +0.000 A 
BRANCH  18  20
ATOM     20  C   UNL     1       4.835   3.582  18.865  0.00  0.00    +0.000 C 
ATOM     21  N   UNL     1       4.750   2.831  19.742  0.00  0.00    +0.000 NA
ENDBRANCH  18  20
ENDBRANCH   1  17
BRANCH   9  22
ATOM     22  C   UNL     1       0.650  11.215  18.241  0.00  0.00    +0.000 C 
BRANCH  22  23
ATOM     23  C   UNL     1       1.329  12.548  18.545  0.00  0.00    +0.000 A 
ATOM     24  C   UNL     1       2.656  12.763  18.181  0.00  0.00    +0.000 A 
ATOM     25  C   UNL     1       3.214  14.040  18.289  0.00  0.00    +0.000 A 
ATOM     26  C   UNL     1       2.458  15.148  18.742  0.00  0.00    +0.000 A 
ATOM     27  C   UNL     1       3.178  16.473  18.799  0.00  0.00    +0.000 C 
ATOM     28  C   UNL     1       1.112  14.969  19.131  0.00  0.00    +0.000 A 
ATOM     29  C   UNL     1       0.618  13.643  19.070  0.00  0.00    +0.000 A 
BRANCH  28  30
ATOM     30  N   UNL     1       0.244  15.980  19.509  0.00  0.00    +0.000 N 
ATOM     31  C   UNL     1      -0.579  16.720  18.531  0.00  0.00    +0.000 C 
ATOM     32  C   UNL     1      -0.380  18.231  18.721  0.00  0.00    +0.000 C 
ATOM     33  O   UNL     1      -0.728  18.631  20.056  0.00  0.00    +0.000 OA
ATOM     34  C   UNL     1       0.124  17.961  20.997  0.00  0.00    +0.000 C 
ATOM     35  C   UNL     1       0.023  16.428  20.894  0.00  0.00    +0.000 C 
ENDBRANCH  28  30
ENDBRANCH  22  23
ENDBRANCH   9  22
TORSDOF 5
ENDMDL
MODEL 9
REMARK VINA RESULT:      -8.2      3.931      9.698
REMARK  Name = 
REMARK  7 active torsions:
REMARK  status: ('A' for Active; 'I' for Inactive)
REMARK    1  A    between atoms: C_1  and  C_2
REMARK    2  A    between atoms: C_5  and  N_6
REMARK    3  A    between atoms: N_14  and  C_15
REMARK    4  A    between atoms: C_15  and  C_16
REMARK    5  A    between atoms: C_19  and  C_20
REMARK    6  A    between atoms: C_21  and  N_22
REMARK    7  A    between atoms: C_31  and  C_32
REMARK                            x       y       z     vdW  Elec       q    Type
REMARK                         _______ _______ _______ _____ _____    ______ ____
ROOT
ATOM      1  N   UNL     1       2.176  14.159  19.084  0.00  0.00    +0.000 N 
ATOM      2  C   UNL     1       1.014  14.753  19.748  0.00  0.00    +0.000 C 
ATOM      3  C   UNL     1      -0.204  14.402  18.880  0.00  0.00    +0.000 C 
ATOM      4  C   UNL     1      -0.265  12.919  18.584  0.00  0.00    +0.000 A 
ATOM      5  N   UNL     1      -1.452  12.421  18.184  0.00  0.00    +0.000 NA
ATOM      6  C   UNL     1      -1.494  11.094  17.991  0.00  0.00    +0.000 A 
ATOM      7  N   UNL     1      -0.492  10.222  18.194  0.00  0.00    +0.000 NA
ATOM      8  C   UNL     1       0.680  10.742  18.584  0.00  0.00    +0.000 A 
ATOM      9  N   UNL     1       1.767   9.891  18.844  0.00  0.00    +0.000 N 
ATOM     10  C   UNL     1       0.861  12.115  18.729  0.00  0.00    +0.000 A 
ATOM     11  C   UNL     1       2.188  12.687  19.131  0.00  0.00    +0.000 C 
ATOM     12  H   UNL     1       2.399   9.935  18.047  0.00  0.00    +0.000 HD
ENDROOT
BRANCH   1  17
ATOM     13  C   UNL     1       7.551  16.083  18.699  0.00  0.00    +0.000 C 
ATOM     14  C   UNL     1       6.145  15.591  18.849  0.00  0.00    +0.000 A 
ATOM     15  C   UNL     1       5.392  15.283  17.720  0.00  0.00    +0.000 A 
ATOM     16  C   UNL     1       4.076  14.855  17.861  0.00  0.00    +0.000 A 
ATOM     17  C   UNL     1       3.456  14.707  19.117  0.00  0.00    +0.000 A 
ATOM     18  C   UNL     1       4.212  15.045  20.261  0.00  0.00    +0.000 A 
ATOM     19  C   UNL     1       5.553  15.458  20.110  0.00  0.00    +0.000 A 
BRANCH  18  20
ATOM     20  C   UNL     1       3.685  14.961  21.596  0.00  0.00    +0.000 C 
ATOM     21  N   UNL     1       3.273  14.857  22.672  0.00  0.00    +0.000 NA
ENDBRANCH  18  20
ENDBRANCH   1  17
BRANCH   9  22
ATOM     22  C   UNL     1       1.464   8.498  19.182  0.00  0.00    +0.000 C 
BRANCH  22  23
ATOM     23  C   UNL     1       2.351   7.529  18.403  0.00  0.00    +0.000 A 
ATOM     24  C   UNL     1       3.392   8.008  17.612  0.00  0.00    +0.000 A 
ATOM     25  C   UNL     1       4.315   7.117  17.054  0.00  0.00    +0.000 A 
ATOM     26  C   UNL     1       4.239   5.722  17.289  0.00  0.00    +0.000 A 
ATOM     27  C   UNL     1       5.304   4.875  16.637  0.00  0.00    +0.000 C 
ATOM     28  C   UNL     1       3.192   5.198  18.077  0.00  0.00    +0.000 A 
ATOM     29  C   UNL     1       2.244   6.134  18.557  0.00  0.00    +0.000 A 
BRANCH  28  30
ATOM     30  N   UNL     1       3.055   3.870  18.449  0.00  0.00    +0.000 N 
ATOM     31  C   UNL     1       2.192   2.929  17.708  0.00  0.00    +0.000 C 
ATOM     32  C   UNL     1       1.234   2.225  18.682  0.00  0.00    +0.000 C 
ATOM     33  O   UNL     1       1.963   1.523  19.701  0.00  0.00    +0.000 OA
ATOM     34  C   UNL     1       2.745   2.455  20.462  0.00  0.00    +0.000 C 
ATOM     35  C   UNL     1       3.741   3.240  19.588  0.00  0.00    +0.000 C 
ENDBRANCH  28  30
ENDBRANCH  22  23
ENDBRANCH   9  22
TORSDOF 5
ENDMDL
