MODEL 1
REMARK VINA RESULT:      -6.1      0.000      0.000
REMARK  Name = 
REMARK  11 active torsions:
REMARK  status: ('A' for Active; 'I' for Inactive)
REMARK    1  A    between atoms: C_1  and  C_2
REMARK    2  A    between atoms: C_2  and  N_3
REMARK    3  A    between atoms: N_3  and  C_4
REMARK    4  A    between atoms: N_3  and  C_6
REMARK    5  A    between atoms: C_4  and  C_5
REMARK    6  A    between atoms: C_6  and  C_7
REMARK    7  A    between atoms: C_7  and  N_8
REMARK    8  A    between atoms: C_9  and  C_11
REMARK    9  A    between atoms: C_12  and  C_13
REMARK   10  A    between atoms: C_15  and  C_16
REMARK   11  A    between atoms: C_17  and  C_18
REMARK                            x       y       z     vdW  Elec       q    Type
REMARK                         _______ _______ _______ _____ _____    ______ ____
ROOT
ATOM      1  N   UNL     1       4.077   5.994  18.604  0.00  0.00    +0.000 N 
ATOM      2  C   UNL     1       5.216   5.227  18.508  0.00  0.00    +0.000 C 
ATOM      3  O   UNL     1       5.512   4.392  19.363  0.00  0.00    +0.000 OA
ATOM      4  H   UNL     1       3.708   6.412  17.759  0.00  0.00    +0.000 HD
ENDROOT
BRANCH   2   5
ATOM      5  C   UNL     1       6.039   5.442  17.312  0.00  0.00    +0.000 A 
ATOM      6  C   UNL     1       7.155   6.266  17.173  0.00  0.00    +0.000 A 
ATOM      7  C   UNL     1       7.886   7.152  18.122  0.00  0.00    +0.000 C 
ATOM      8  N   UNL     1       7.635   6.109  15.894  0.00  0.00    +0.000 N 
ATOM      9  C   UNL     1       6.893   5.184  15.210  0.00  0.00    +0.000 A 
ATOM     10  C   UNL     1       7.229   4.788  13.817  0.00  0.00    +0.000 C 
ATOM     11  C   UNL     1       5.885   4.753  16.053  0.00  0.00    +0.000 A 
ATOM     12  C   UNL     1       4.830   3.746  15.732  0.00  0.00    +0.000 C 
ATOM     13  H   UNL     1       8.453   6.578  15.527  0.00  0.00    +0.000 HD
ENDBRANCH   2   5
BRANCH   1  14
ATOM     14  C   UNL     1       3.186   5.824  19.731  0.00  0.00    +0.000 C 
BRANCH  14  15
ATOM     15  C   UNL     1       1.978   4.917  19.428  0.00  0.00    +0.000 C 
BRANCH  15  16
ATOM     16  N   UNL     1       2.191   3.469  19.666  0.00  0.00    +0.000 NA
BRANCH  16  18
ATOM     17  C   UNL     1       1.621   2.498  21.930  0.00  0.00    +0.000 C 
ATOM     18  C   UNL     1       1.144   2.906  20.539  0.00  0.00    +0.000 C 
ENDBRANCH  16  18
BRANCH  16  19
ATOM     19  C   UNL     1       2.351   2.744  18.390  0.00  0.00    +0.000 C 
ATOM     20  C   UNL     1       3.371   1.607  18.370  0.00  0.00    +0.000 C 
ENDBRANCH  16  19
ENDBRANCH  15  16
ENDBRANCH  14  15
ENDBRANCH   1  14
TORSDOF 6
ENDMDL
MODEL 2
REMARK VINA RESULT:      -5.9      0.851      1.379
REMARK  Name = 
REMARK  11 active torsions:
REMARK  status: ('A' for Active; 'I' for Inactive)
REMARK    1  A    between atoms: C_1  and  C_2
REMARK    2  A    between atoms: C_2  and  N_3
REMARK    3  A    between atoms: N_3  and  C_4
REMARK    4  A    between atoms: N_3  and  C_6
REMARK    5  A    between atoms: C_4  and  C_5
REMARK    6  A    between atoms: C_6  and  C_7
REMARK    7  A    between atoms: C_7  and  N_8
REMARK    8  A    between atoms: C_9  and  C_11
REMARK    9  A    between atoms: C_12  and  C_13
REMARK   10  A    between atoms: C_15  and  C_16
REMARK   11  A    between atoms: C_17  and  C_18
REMARK                            x       y       z     vdW  Elec       q    Type
REMARK                         _______ _______ _______ _____ _____    ______ ____
ROOT
ATOM      1  N   UNL     1       4.128   5.677  18.954  0.00  0.00    +0.000 N 
ATOM      2  C   UNL     1       5.436   5.254  18.878  0.00  0.00    +0.000 C 
ATOM      3  O   UNL     1       5.996   4.700  19.824  0.00  0.00    +0.000 OA
ATOM      4  H   UNL     1       3.619   5.819  18.090  0.00  0.00    +0.000 HD
ENDROOT
BRANCH   2   5
ATOM      5  C   UNL     1       6.110   5.471  17.593  0.00  0.00    +0.000 A 
ATOM      6  C   UNL     1       7.152   6.354  17.308  0.00  0.00    +0.000 A 
ATOM      7  C   UNL     1       7.922   7.317  18.143  0.00  0.00    +0.000 C 
ATOM      8  N   UNL     1       7.501   6.177  15.989  0.00  0.00    +0.000 N 
ATOM      9  C   UNL     1       6.750   5.185  15.420  0.00  0.00    +0.000 A 
ATOM     10  C   UNL     1       6.959   4.757  14.011  0.00  0.00    +0.000 C 
ATOM     11  C   UNL     1       5.867   4.727  16.380  0.00  0.00    +0.000 A 
ATOM     12  C   UNL     1       4.848   3.648  16.208  0.00  0.00    +0.000 C 
ATOM     13  H   UNL     1       8.244   6.679  15.520  0.00  0.00    +0.000 HD
ENDBRANCH   2   5
BRANCH   1  14
ATOM     14  C   UNL     1       3.372   5.471  20.170  0.00  0.00    +0.000 C 
BRANCH  14  15
ATOM     15  C   UNL     1       1.941   4.958  19.923  0.00  0.00    +0.000 C 
BRANCH  15  16
ATOM     16  N   UNL     1       1.790   3.484  19.874  0.00  0.00    +0.000 NA
BRANCH  16  18
ATOM     17  C   UNL     1       1.345   4.097  17.462  0.00  0.00    +0.000 C 
ATOM     18  C   UNL     1       1.303   3.035  18.556  0.00  0.00    +0.000 C 
ENDBRANCH  16  18
BRANCH  16  19
ATOM     19  C   UNL     1       3.031   2.812  20.308  0.00  0.00    +0.000 C 
ATOM     20  C   UNL     1       3.713   1.904  19.287  0.00  0.00    +0.000 C 
ENDBRANCH  16  19
ENDBRANCH  15  16
ENDBRANCH  14  15
ENDBRANCH   1  14
TORSDOF 6
ENDMDL
MODEL 3
REMARK VINA RESULT:      -5.9      0.650      1.627
REMARK  Name = 
REMARK  11 active torsions:
REMARK  status: ('A' for Active; 'I' for Inactive)
REMARK    1  A    between atoms: C_1  and  C_2
REMARK    2  A    between atoms: C_2  and  N_3
REMARK    3  A    between atoms: N_3  and  C_4
REMARK    4  A    between atoms: N_3  and  C_6
REMARK    5  A    between atoms: C_4  and  C_5
REMARK    6  A    between atoms: C_6  and  C_7
REMARK    7  A    between atoms: C_7  and  N_8
REMARK    8  A    between atoms: C_9  and  C_11
REMARK    9  A    between atoms: C_12  and  C_13
REMARK   10  A    between atoms: C_15  and  C_16
REMARK   11  A    between atoms: C_17  and  C_18
REMARK                            x       y       z     vdW  Elec       q    Type
REMARK                         _______ _______ _______ _____ _____    ______ ____
ROOT
ATOM      1  N   UNL     1       4.093   5.460  18.907  0.00  0.00    +0.000 N 
ATOM      2  C   UNL     1       5.460   5.297  18.890  0.00  0.00    +0.000 C 
ATOM      3  O   UNL     1       6.090   4.991  19.903  0.00  0.00    +0.000 OA
ATOM      4  H   UNL     1       3.591   5.386  18.030  0.00  0.00    +0.000 HD
ENDROOT
BRANCH   2   5
ATOM      5  C   UNL     1       6.116   5.476  17.590  0.00  0.00    +0.000 A 
ATOM      6  C   UNL     1       7.148   6.354  17.262  0.00  0.00    +0.000 A 
ATOM      7  C   UNL     1       7.926   7.346  18.055  0.00  0.00    +0.000 C 
ATOM      8  N   UNL     1       7.481   6.137  15.945  0.00  0.00    +0.000 N 
ATOM      9  C   UNL     1       6.726   5.124  15.418  0.00  0.00    +0.000 A 
ATOM     10  C   UNL     1       6.918   4.652  14.021  0.00  0.00    +0.000 C 
ATOM     11  C   UNL     1       5.859   4.693  16.405  0.00  0.00    +0.000 A 
ATOM     12  C   UNL     1       4.843   3.605  16.281  0.00  0.00    +0.000 C 
ATOM     13  H   UNL     1       8.214   6.627  15.450  0.00  0.00    +0.000 HD
ENDBRANCH   2   5
BRANCH   1  14
ATOM     14  C   UNL     1       3.357   5.267  20.137  0.00  0.00    +0.000 C 
BRANCH  14  15
ATOM     15  C   UNL     1       1.841   5.091  19.925  0.00  0.00    +0.000 C 
BRANCH  15  16
ATOM     16  N   UNL     1       1.390   3.705  19.656  0.00  0.00    +0.000 NA
BRANCH  16  18
ATOM     17  C   UNL     1       2.173   2.116  17.851  0.00  0.00    +0.000 C 
ATOM     18  C   UNL     1       1.426   3.395  18.214  0.00  0.00    +0.000 C 
ENDBRANCH  16  18
BRANCH  16  19
ATOM     19  C   UNL     1       2.134   2.738  20.488  0.00  0.00    +0.000 C 
ATOM     20  C   UNL     1       1.633   2.532  21.916  0.00  0.00    +0.000 C 
ENDBRANCH  16  19
ENDBRANCH  15  16
ENDBRANCH  14  15
ENDBRANCH   1  14
TORSDOF 6
ENDMDL
MODEL 4
REMARK VINA RESULT:      -5.9      1.717      5.987
REMARK  Name = 
REMARK  11 active torsions:
REMARK  status: ('A' for Active; 'I' for Inactive)
REMARK    1  A    between atoms: C_1  and  C_2
REMARK    2  A    between atoms: C_2  and  N_3
REMARK    3  A    between atoms: N_3  and  C_4
REMARK    4  A    between atoms: N_3  and  C_6
REMARK    5  A    between atoms: C_4  and  C_5
REMARK    6  A    between atoms: C_6  and  C_7
REMARK    7  A    between atoms: C_7  and  N_8
REMARK    8  A    between atoms: C_9  and  C_11
REMARK    9  A    between atoms: C_12  and  C_13
REMARK   10  A    between atoms: C_15  and  C_16
REMARK   11  A    between atoms: C_17  and  C_18
REMARK                            x       y       z     vdW  Elec       q    Type
REMARK                         _______ _______ _______ _____ _____    ______ ____
ROOT
ATOM      1  N   UNL     1       6.213   3.906  18.163  0.00  0.00    +0.000 N 
ATOM      2  C   UNL     1       5.266   4.353  19.056  0.00  0.00    +0.000 C 
ATOM      3  O   UNL     1       5.399   5.413  19.669  0.00  0.00    +0.000 OA
ATOM      4  H   UNL     1       5.930   3.233  17.461  0.00  0.00    +0.000 HD
ENDROOT
BRANCH   2   5
ATOM      5  C   UNL     1       4.074   3.511  19.208  0.00  0.00    +0.000 A 
ATOM      6  C   UNL     1       3.945   2.328  19.936  0.00  0.00    +0.000 A 
ATOM      7  C   UNL     1       4.892   1.551  20.783  0.00  0.00    +0.000 C 
ATOM      8  N   UNL     1       2.637   1.916  19.838  0.00  0.00    +0.000 N 
ATOM      9  C   UNL     1       1.904   2.809  19.104  0.00  0.00    +0.000 A 
ATOM     10  C   UNL     1       0.444   2.628  18.886  0.00  0.00    +0.000 C 
ATOM     11  C   UNL     1       2.762   3.809  18.686  0.00  0.00    +0.000 A 
ATOM     12  C   UNL     1       2.403   4.996  17.854  0.00  0.00    +0.000 C 
ATOM     13  H   UNL     1       2.260   1.092  20.287  0.00  0.00    +0.000 HD
ENDBRANCH   2   5
BRANCH   1  14
ATOM     14  C   UNL     1       7.403   4.691  17.919  0.00  0.00    +0.000 C 
BRANCH  14  15
ATOM     15  C   UNL     1       7.518   5.200  16.470  0.00  0.00    +0.000 C 
BRANCH  15  16
ATOM     16  N   UNL     1       6.738   6.422  16.159  0.00  0.00    +0.000 NA
BRANCH  16  18
ATOM     17  C   UNL     1       5.377   4.780  14.800  0.00  0.00    +0.000 C 
ATOM     18  C   UNL     1       5.422   6.089  15.582  0.00  0.00    +0.000 C 
ENDBRANCH  16  18
BRANCH  16  19
ATOM     19  C   UNL     1       6.663   7.313  17.334  0.00  0.00    +0.000 C 
ATOM     20  C   UNL     1       7.855   8.237  17.572  0.00  0.00    +0.000 C 
ENDBRANCH  16  19
ENDBRANCH  15  16
ENDBRANCH  14  15
ENDBRANCH   1  14
TORSDOF 6
ENDMDL
MODEL 5
REMARK VINA RESULT:      -5.9      1.777      5.764
REMARK  Name = 
REMARK  11 active torsions:
REMARK  status: ('A' for Active; 'I' for Inactive)
REMARK    1  A    between atoms: C_1  and  C_2
REMARK    2  A    between atoms: C_2  and  N_3
REMARK    3  A    between atoms: N_3  and  C_4
REMARK    4  A    between atoms: N_3  and  C_6
REMARK    5  A    between atoms: C_4  and  C_5
REMARK    6  A    between atoms: C_6  and  C_7
REMARK    7  A    between atoms: C_7  and  N_8
REMARK    8  A    between atoms: C_9  and  C_11
REMARK    9  A    between atoms: C_12  and  C_13
REMARK   10  A    between atoms: C_15  and  C_16
REMARK   11  A    between atoms: C_17  and  C_18
REMARK                            x       y       z     vdW  Elec       q    Type
REMARK                         _______ _______ _______ _____ _____    ______ ____
ROOT
ATOM      1  N   UNL     1       6.206   3.966  18.135  0.00  0.00    +0.000 N 
ATOM      2  C   UNL     1       5.262   4.389  19.044  0.00  0.00    +0.000 C 
ATOM      3  O   UNL     1       5.386   5.445  19.665  0.00  0.00    +0.000 OA
ATOM      4  H   UNL     1       5.925   3.294  17.430  0.00  0.00    +0.000 HD
ENDROOT
BRANCH   2   5
ATOM      5  C   UNL     1       4.087   3.525  19.202  0.00  0.00    +0.000 A 
ATOM      6  C   UNL     1       3.985   2.336  19.924  0.00  0.00    +0.000 A 
ATOM      7  C   UNL     1       4.954   1.570  20.756  0.00  0.00    +0.000 C 
ATOM      8  N   UNL     1       2.683   1.903  19.837  0.00  0.00    +0.000 N 
ATOM      9  C   UNL     1       1.927   2.787  19.116  0.00  0.00    +0.000 A 
ATOM     10  C   UNL     1       0.469   2.584  18.911  0.00  0.00    +0.000 C 
ATOM     11  C   UNL     1       2.764   3.805  18.696  0.00  0.00    +0.000 A 
ATOM     12  C   UNL     1       2.377   4.991  17.875  0.00  0.00    +0.000 C 
ATOM     13  H   UNL     1       2.324   1.069  20.284  0.00  0.00    +0.000 HD
ENDBRANCH   2   5
BRANCH   1  14
ATOM     14  C   UNL     1       7.380   4.772  17.884  0.00  0.00    +0.000 C 
BRANCH  14  15
ATOM     15  C   UNL     1       7.261   5.658  16.630  0.00  0.00    +0.000 C 
BRANCH  15  16
ATOM     16  N   UNL     1       6.266   5.214  15.626  0.00  0.00    +0.000 NA
BRANCH  16  18
ATOM     17  C   UNL     1       4.925   7.112  16.623  0.00  0.00    +0.000 C 
ATOM     18  C   UNL     1       5.223   6.235  15.411  0.00  0.00    +0.000 C 
ENDBRANCH  16  18
BRANCH  16  19
ATOM     19  C   UNL     1       6.931   4.775  14.383  0.00  0.00    +0.000 C 
ATOM     20  C   UNL     1       6.148   3.818  13.486  0.00  0.00    +0.000 C 
ENDBRANCH  16  19
ENDBRANCH  15  16
ENDBRANCH  14  15
ENDBRANCH   1  14
TORSDOF 6
ENDMDL
MODEL 6
REMARK VINA RESULT:      -5.9      1.391      3.238
REMARK  Name = 
REMARK  11 active torsions:
REMARK  status: ('A' for Active; 'I' for Inactive)
REMARK    1  A    between atoms: C_1  and  C_2
REMARK    2  A    between atoms: C_2  and  N_3
REMARK    3  A    between atoms: N_3  and  C_4
REMARK    4  A    between atoms: N_3  and  C_6
REMARK    5  A    between atoms: C_4  and  C_5
REMARK    6  A    between atoms: C_6  and  C_7
REMARK    7  A    between atoms: C_7  and  N_8
REMARK    8  A    between atoms: C_9  and  C_11
REMARK    9  A    between atoms: C_12  and  C_13
REMARK   10  A    between atoms: C_15  and  C_16
REMARK   11  A    between atoms: C_17  and  C_18
REMARK                            x       y       z     vdW  Elec       q    Type
REMARK                         _______ _______ _______ _____ _____    ______ ____
ROOT
ATOM      1  N   UNL     1       4.579   2.648  18.020  0.00  0.00    +0.000 N 
ATOM      2  C   UNL     1       4.464   3.615  17.047  0.00  0.00    +0.000 C 
ATOM      3  O   UNL     1       3.459   3.711  16.343  0.00  0.00    +0.000 OA
ATOM      4  H   UNL     1       5.244   2.799  18.769  0.00  0.00    +0.000 HD
ENDROOT
BRANCH   2   5
ATOM      5  C   UNL     1       5.594   4.543  16.923  0.00  0.00    +0.000 A 
ATOM      6  C   UNL     1       6.350   4.829  15.786  0.00  0.00    +0.000 A 
ATOM      7  C   UNL     1       6.283   4.350  14.377  0.00  0.00    +0.000 C 
ATOM      8  N   UNL     1       7.266   5.797  16.125  0.00  0.00    +0.000 N 
ATOM      9  C   UNL     1       7.106   6.177  17.430  0.00  0.00    +0.000 A 
ATOM     10  C   UNL     1       7.939   7.247  18.039  0.00  0.00    +0.000 C 
ATOM     11  C   UNL     1       6.084   5.414  17.964  0.00  0.00    +0.000 A 
ATOM     12  C   UNL     1       5.564   5.481  19.363  0.00  0.00    +0.000 C 
ATOM     13  H   UNL     1       7.933   6.205  15.483  0.00  0.00    +0.000 HD
ENDBRANCH   2   5
BRANCH   1  14
ATOM     14  C   UNL     1       3.499   1.712  18.240  0.00  0.00    +0.000 C 
BRANCH  14  15
ATOM     15  C   UNL     1       2.285   2.333  18.959  0.00  0.00    +0.000 C 
BRANCH  15  16
ATOM     16  N   UNL     1       2.588   3.477  19.852  0.00  0.00    +0.000 NA
BRANCH  16  18
ATOM     17  C   UNL     1       2.200   5.776  18.874  0.00  0.00    +0.000 C 
ATOM     18  C   UNL     1       1.639   4.587  19.648  0.00  0.00    +0.000 C 
ENDBRANCH  16  18
BRANCH  16  19
ATOM     19  C   UNL     1       2.690   3.035  21.258  0.00  0.00    +0.000 C 
ATOM     20  C   UNL     1       1.418   2.483  21.898  0.00  0.00    +0.000 C 
ENDBRANCH  16  19
ENDBRANCH  15  16
ENDBRANCH  14  15
ENDBRANCH   1  14
TORSDOF 6
ENDMDL
MODEL 7
REMARK VINA RESULT:      -5.8      1.489      3.142
REMARK  Name = 
REMARK  11 active torsions:
REMARK  status: ('A' for Active; 'I' for Inactive)
REMARK    1  A    between atoms: C_1  and  C_2
REMARK    2  A    between atoms: C_2  and  N_3
REMARK    3  A    between atoms: N_3  and  C_4
REMARK    4  A    between atoms: N_3  and  C_6
REMARK    5  A    between atoms: C_4  and  C_5
REMARK    6  A    between atoms: C_6  and  C_7
REMARK    7  A    between atoms: C_7  and  N_8
REMARK    8  A    between atoms: C_9  and  C_11
REMARK    9  A    between atoms: C_12  and  C_13
REMARK   10  A    between atoms: C_15  and  C_16
REMARK   11  A    between atoms: C_17  and  C_18
REMARK                            x       y       z     vdW  Elec       q    Type
REMARK                         _______ _______ _______ _____ _____    ______ ____
ROOT
ATOM      1  N   UNL     1       2.867   4.358  17.651  0.00  0.00    +0.000 N 
ATOM      2  C   UNL     1       4.057   3.731  17.358  0.00  0.00    +0.000 C 
ATOM      3  O   UNL     1       4.170   2.506  17.388  0.00  0.00    +0.000 OA
ATOM      4  H   UNL     1       2.725   5.301  17.308  0.00  0.00    +0.000 HD
ENDROOT
BRANCH   2   5
ATOM      5  C   UNL     1       5.171   4.607  16.977  0.00  0.00    +0.000 A 
ATOM      6  C   UNL     1       5.695   4.825  15.703  0.00  0.00    +0.000 A 
ATOM      7  C   UNL     1       5.333   4.306  14.355  0.00  0.00    +0.000 C 
ATOM      8  N   UNL     1       6.694   5.764  15.816  0.00  0.00    +0.000 N 
ATOM      9  C   UNL     1       6.810   6.191  17.111  0.00  0.00    +0.000 A 
ATOM     10  C   UNL     1       7.784   7.244  17.502  0.00  0.00    +0.000 C 
ATOM     11  C   UNL     1       5.888   5.490  17.866  0.00  0.00    +0.000 A 
ATOM     12  C   UNL     1       5.659   5.622  19.336  0.00  0.00    +0.000 C 
ATOM     13  H   UNL     1       7.234   6.124  15.040  0.00  0.00    +0.000 HD
ENDBRANCH   2   5
BRANCH   1  14
ATOM     14  C   UNL     1       1.703   3.573  18.000  0.00  0.00    +0.000 C 
BRANCH  14  15
ATOM     15  C   UNL     1       1.139   3.899  19.396  0.00  0.00    +0.000 C 
BRANCH  15  16
ATOM     16  N   UNL     1       2.070   4.600  20.314  0.00  0.00    +0.000 NA
BRANCH  16  18
ATOM     17  C   UNL     1       2.250   7.059  19.755  0.00  0.00    +0.000 C 
ATOM     18  C   UNL     1       1.608   5.969  20.608  0.00  0.00    +0.000 C 
ENDBRANCH  16  18
BRANCH  16  19
ATOM     19  C   UNL     1       2.329   3.789  21.521  0.00  0.00    +0.000 C 
ATOM     20  C   UNL     1       1.533   2.494  21.662  0.00  0.00    +0.000 C 
ENDBRANCH  16  19
ENDBRANCH  15  16
ENDBRANCH  14  15
ENDBRANCH   1  14
TORSDOF 6
ENDMDL
MODEL 8
REMARK VINA RESULT:      -5.8      1.612      6.063
REMARK  Name = 
REMARK  11 active torsions:
REMARK  status: ('A' for Active; 'I' for Inactive)
REMARK    1  A    between atoms: C_1  and  C_2
REMARK    2  A    between atoms: C_2  and  N_3
REMARK    3  A    between atoms: N_3  and  C_4
REMARK    4  A    between atoms: N_3  and  C_6
REMARK    5  A    between atoms: C_4  and  C_5
REMARK    6  A    between atoms: C_6  and  C_7
REMARK    7  A    between atoms: C_7  and  N_8
REMARK    8  A    between atoms: C_9  and  C_11
REMARK    9  A    between atoms: C_12  and  C_13
REMARK   10  A    between atoms: C_15  and  C_16
REMARK   11  A    between atoms: C_17  and  C_18
REMARK                            x       y       z     vdW  Elec       q    Type
REMARK                         _______ _______ _______ _____ _____    ______ ____
ROOT
ATOM      1  N   UNL     1       6.184   3.978  17.936  0.00  0.00    +0.000 N 
ATOM      2  C   UNL     1       5.694   4.429  19.140  0.00  0.00    +0.000 C 
ATOM      3  O   UNL     1       6.297   5.262  19.817  0.00  0.00    +0.000 OA
ATOM      4  H   UNL     1       5.535   3.565  17.278  0.00  0.00    +0.000 HD
ENDROOT
BRANCH   2   5
ATOM      5  C   UNL     1       4.395   3.884  19.553  0.00  0.00    +0.000 A 
ATOM      6  C   UNL     1       4.110   2.597  20.011  0.00  0.00    +0.000 A 
ATOM      7  C   UNL     1       4.956   1.396  20.253  0.00  0.00    +0.000 C 
ATOM      8  N   UNL     1       2.773   2.554  20.331  0.00  0.00    +0.000 N 
ATOM      9  C   UNL     1       2.189   3.776  20.134  0.00  0.00    +0.000 A 
ATOM     10  C   UNL     1       0.758   4.019  20.451  0.00  0.00    +0.000 C 
ATOM     11  C   UNL     1       3.161   4.628  19.641  0.00  0.00    +0.000 A 
ATOM     12  C   UNL     1       2.980   6.064  19.275  0.00  0.00    +0.000 C 
ATOM     13  H   UNL     1       2.299   1.743  20.706  0.00  0.00    +0.000 HD
ENDBRANCH   2   5
BRANCH   1  14
ATOM     14  C   UNL     1       7.440   4.488  17.431  0.00  0.00    +0.000 C 
BRANCH  14  15
ATOM     15  C   UNL     1       7.312   5.858  16.737  0.00  0.00    +0.000 C 
BRANCH  15  16
ATOM     16  N   UNL     1       6.736   5.831  15.372  0.00  0.00    +0.000 NA
BRANCH  16  18
ATOM     17  C   UNL     1       6.045   3.945  13.835  0.00  0.00    +0.000 C 
ATOM     18  C   UNL     1       7.154   4.624  14.633  0.00  0.00    +0.000 C 
ENDBRANCH  16  18
BRANCH  16  19
ATOM     19  C   UNL     1       5.272   6.023  15.413  0.00  0.00    +0.000 C 
ATOM     20  C   UNL     1       4.737   6.998  16.461  0.00  0.00    +0.000 C 
ENDBRANCH  16  19
ENDBRANCH  15  16
ENDBRANCH  14  15
ENDBRANCH   1  14
TORSDOF 6
ENDMDL
MODEL 9
REMARK VINA RESULT:      -5.7      1.524      2.377
REMARK  Name = 
REMARK  11 active torsions:
REMARK  status: ('A' for Active; 'I' for Inactive)
REMARK    1  A    between atoms: C_1  and  C_2
REMARK    2  A    between atoms: C_2  and  N_3
REMARK    3  A    between atoms: N_3  and  C_4
REMARK    4  A    between atoms: N_3  and  C_6
REMARK    5  A    between atoms: C_4  and  C_5
REMARK    6  A    between atoms: C_6  and  C_7
REMARK    7  A    between atoms: C_7  and  N_8
REMARK    8  A    between atoms: C_9  and  C_11
REMARK    9  A    between atoms: C_12  and  C_13
REMARK   10  A    between atoms: C_15  and  C_16
REMARK   11  A    between atoms: C_17  and  C_18
REMARK                            x       y       z     vdW  Elec       q    Type
REMARK                         _______ _______ _______ _____ _____    ______ ____
ROOT
ATOM      1  N   UNL     1       4.776   2.935  17.612  0.00  0.00    +0.000 N 
ATOM      2  C   UNL     1       4.480   3.896  16.673  0.00  0.00    +0.000 C 
ATOM      3  O   UNL     1       3.321   4.231  16.428  0.00  0.00    +0.000 OA
ATOM      4  H   UNL     1       5.708   2.923  18.009  0.00  0.00    +0.000 HD
ENDROOT
BRANCH   2   5
ATOM      5  C   UNL     1       5.628   4.522  16.006  0.00  0.00    +0.000 A 
ATOM      6  C   UNL     1       6.662   5.257  16.585  0.00  0.00    +0.000 A 
ATOM      7  C   UNL     1       6.974   5.634  17.992  0.00  0.00    +0.000 C 
ATOM      8  N   UNL     1       7.543   5.600  15.586  0.00  0.00    +0.000 N 
ATOM      9  C   UNL     1       7.137   5.081  14.386  0.00  0.00    +0.000 A 
ATOM     10  C   UNL     1       7.938   5.261  13.146  0.00  0.00    +0.000 C 
ATOM     11  C   UNL     1       5.946   4.412  14.602  0.00  0.00    +0.000 A 
ATOM     12  C   UNL     1       5.133   3.693  13.576  0.00  0.00    +0.000 C 
ATOM     13  H   UNL     1       8.397   6.122  15.729  0.00  0.00    +0.000 HD
ENDBRANCH   2   5
BRANCH   1  14
ATOM     14  C   UNL     1       3.709   2.291  18.347  0.00  0.00    +0.000 C 
BRANCH  14  15
ATOM     15  C   UNL     1       3.404   2.961  19.700  0.00  0.00    +0.000 C 
BRANCH  15  16
ATOM     16  N   UNL     1       2.344   3.998  19.675  0.00  0.00    +0.000 NA
BRANCH  16  18
ATOM     17  C   UNL     1       1.451   2.671  21.634  0.00  0.00    +0.000 C 
ATOM     18  C   UNL     1       1.156   3.574  20.440  0.00  0.00    +0.000 C 
ENDBRANCH  16  18
BRANCH  16  19
ATOM     19  C   UNL     1       2.881   5.309  20.091  0.00  0.00    +0.000 C 
ATOM     20  C   UNL     1       2.892   6.412  19.034  0.00  0.00    +0.000 C 
ENDBRANCH  16  19
ENDBRANCH  15  16
ENDBRANCH  14  15
ENDBRANCH   1  14
TORSDOF 6
ENDMDL
