MODEL 1
REMARK VINA RESULT:      -7.2      0.000      0.000
REMARK  Name = 
REMARK  8 active torsions:
REMARK  status: ('A' for Active; 'I' for Inactive)
REMARK    1  A    between atoms: C_1  and  C_2
REMARK    2  A    between atoms: C_2  and  C_3
REMARK    3  A    between atoms: C_2  and  N_4
REMARK    4  A    between atoms: N_4  and  C_5
REMARK    5  A    between atoms: N_4  and  C_6
REMARK    6  A    between atoms: C_6  and  C_7
REMARK    7  A    between atoms: C_14  and  C_16
REMARK    8  A    between atoms: C_16  and  C_17
REMARK                            x       y       z     vdW  Elec       q    Type
REMARK                         _______ _______ _______ _____ _____    ______ ____
ROOT
ATOM      1  C   UNL     1       8.474   8.823  18.554  0.00  0.00    +0.000 A 
ATOM      2  C   UNL     1       7.552   8.924  17.525  0.00  0.00    +0.000 A 
ATOM      3  N   UNL     1       7.109   7.644  17.319  0.00  0.00    +0.000 N 
ATOM      4  C   UNL     1       7.764   6.815  18.187  0.00  0.00    +0.000 A 
ATOM      5  N   UNL     1       8.576   7.507  18.935  0.00  0.00    +0.000 NA
ATOM      6  C   UNL     1       7.535   5.349  18.281  0.00  0.00    +0.000 C 
ATOM      7  N   UNL     1       6.289   5.005  17.610  0.00  0.00    +0.000 N 
ATOM      8  C   UNL     1       5.404   4.187  18.290  0.00  0.00    +0.000 C 
ATOM      9  O   UNL     1       5.672   3.711  19.395  0.00  0.00    +0.000 OA
ATOM     10  C   UNL     1       6.084   5.657  16.307  0.00  0.00    +0.000 C 
ATOM     11  C   UNL     1       6.038   7.184  16.457  0.00  0.00    +0.000 C 
ENDROOT
BRANCH   1  12
ATOM     12  C   UNL     1       9.240   9.879  19.311  0.00  0.00    +0.000 C 
BRANCH  12  13
ATOM     13  N   UNL     1       9.243  11.238  18.685  0.00  0.00    +0.000 NA
ATOM     14  C   UNL     1      10.385  11.330  17.770  0.00  0.00    +0.000 C 
BRANCH  13  16
ATOM     15  C   UNL     1      10.385  12.400  20.633  0.00  0.00    +0.000 C 
ATOM     16  C   UNL     1       9.196  12.370  19.656  0.00  0.00    +0.000 C 
ATOM     17  C   UNL     1       9.139  13.754  18.976  0.00  0.00    +0.000 C 
ENDBRANCH  13  16
ENDBRANCH  12  13
ENDBRANCH   1  12
BRANCH   8  18
ATOM     18  C   UNL     1       4.060   3.883  17.659  0.00  0.00    +0.000 C 
BRANCH  18  19
ATOM     19  C   UNL     1       2.898   3.930  18.623  0.00  0.00    +0.000 A 
ATOM     20  C   UNL     1       2.090   2.794  18.780  0.00  0.00    +0.000 A 
ATOM     21  C   UNL     1       1.048   2.790  19.709  0.00  0.00    +0.000 A 
ATOM     22  C   UNL     1       0.803   3.914  20.494  0.00  0.00    +0.000 A 
ATOM     23  C   UNL     1       1.606   5.043  20.359  0.00  0.00    +0.000 A 
ATOM     24  C   UNL     1       2.654   5.049  19.435  0.00  0.00    +0.000 A 
ENDBRANCH  18  19
ENDBRANCH   8  18
TORSDOF 5
ENDMDL
MODEL 2
REMARK VINA RESULT:      -7.2      3.657      7.782
REMARK  Name = 
REMARK  8 active torsions:
REMARK  status: ('A' for Active; 'I' for Inactive)
REMARK    1  A    between atoms: C_1  and  C_2
REMARK    2  A    between atoms: C_2  and  C_3
REMARK    3  A    between atoms: C_2  and  N_4
REMARK    4  A    between atoms: N_4  and  C_5
REMARK    5  A    between atoms: N_4  and  C_6
REMARK    6  A    between atoms: C_6  and  C_7
REMARK    7  A    between atoms: C_14  and  C_16
REMARK    8  A    between atoms: C_16  and  C_17
REMARK                            x       y       z     vdW  Elec       q    Type
REMARK                         _______ _______ _______ _____ _____    ______ ____
ROOT
ATOM      1  C   UNL     1       3.024   5.268  19.982  0.00  0.00    +0.000 A 
ATOM      2  C   UNL     1       2.826   6.182  18.960  0.00  0.00    +0.000 A 
ATOM      3  N   UNL     1       4.057   6.339  18.381  0.00  0.00    +0.000 N 
ATOM      4  C   UNL     1       4.954   5.556  19.054  0.00  0.00    +0.000 A 
ATOM      5  N   UNL     1       4.348   4.905  20.007  0.00  0.00    +0.000 NA
ATOM      6  C   UNL     1       6.395   5.440  18.704  0.00  0.00    +0.000 C 
ATOM      7  N   UNL     1       6.615   5.963  17.362  0.00  0.00    +0.000 N 
ATOM      8  C   UNL     1       7.358   5.187  16.490  0.00  0.00    +0.000 C 
ATOM      9  O   UNL     1       7.872   4.121  16.840  0.00  0.00    +0.000 OA
ATOM     10  C   UNL     1       5.929   7.230  17.068  0.00  0.00    +0.000 C 
ATOM     11  C   UNL     1       4.406   7.072  17.180  0.00  0.00    +0.000 C 
ENDROOT
BRANCH   1  12
ATOM     12  C   UNL     1       2.051   4.602  20.924  0.00  0.00    +0.000 C 
BRANCH  12  13
ATOM     13  N   UNL     1       1.793   3.153  20.657  0.00  0.00    +0.000 NA
ATOM     14  C   UNL     1       2.676   2.355  21.512  0.00  0.00    +0.000 C 
BRANCH  13  16
ATOM     15  C   UNL     1       3.001   1.749  18.920  0.00  0.00    +0.000 C 
ATOM     16  C   UNL     1       1.881   2.760  19.220  0.00  0.00    +0.000 C 
ATOM     17  C   UNL     1       0.571   2.157  18.673  0.00  0.00    +0.000 C 
ENDBRANCH  13  16
ENDBRANCH  12  13
ENDBRANCH   1  12
BRANCH   8  18
ATOM     18  C   UNL     1       7.531   5.657  15.061  0.00  0.00    +0.000 C 
BRANCH  18  19
ATOM     19  C   UNL     1       6.884   4.761  14.031  0.00  0.00    +0.000 A 
ATOM     20  C   UNL     1       5.590   4.270  14.264  0.00  0.00    +0.000 A 
ATOM     21  C   UNL     1       4.946   3.491  13.302  0.00  0.00    +0.000 A 
ATOM     22  C   UNL     1       5.579   3.197  12.096  0.00  0.00    +0.000 A 
ATOM     23  C   UNL     1       6.857   3.690  11.847  0.00  0.00    +0.000 A 
ATOM     24  C   UNL     1       7.503   4.475  12.804  0.00  0.00    +0.000 A 
ENDBRANCH  18  19
ENDBRANCH   8  18
TORSDOF 5
ENDMDL
MODEL 3
REMARK VINA RESULT:      -7.2      0.669      1.258
REMARK  Name = 
REMARK  8 active torsions:
REMARK  status: ('A' for Active; 'I' for Inactive)
REMARK    1  A    between atoms: C_1  and  C_2
REMARK    2  A    between atoms: C_2  and  C_3
REMARK    3  A    between atoms: C_2  and  N_4
REMARK    4  A    between atoms: N_4  and  C_5
REMARK    5  A    between atoms: N_4  and  C_6
REMARK    6  A    between atoms: C_6  and  C_7
REMARK    7  A    between atoms: C_14  and  C_16
REMARK    8  A    between atoms: C_16  and  C_17
REMARK                            x       y       z     vdW  Elec       q    Type
REMARK                         _______ _______ _______ _____ _____    ______ ____
ROOT
ATOM      1  C   UNL     1       8.498   8.926  18.521  0.00  0.00    +0.000 A 
ATOM      2  C   UNL     1       7.601   8.969  17.466  0.00  0.00    +0.000 A 
ATOM      3  N   UNL     1       7.172   7.677  17.312  0.00  0.00    +0.000 N 
ATOM      4  C   UNL     1       7.811   6.897  18.236  0.00  0.00    +0.000 A 
ATOM      5  N   UNL     1       8.599   7.631  18.970  0.00  0.00    +0.000 NA
ATOM      6  C   UNL     1       7.589   5.435  18.397  0.00  0.00    +0.000 C 
ATOM      7  N   UNL     1       6.362   5.050  17.712  0.00  0.00    +0.000 N 
ATOM      8  C   UNL     1       5.465   4.259  18.410  0.00  0.00    +0.000 C 
ATOM      9  O   UNL     1       5.709   3.840  19.544  0.00  0.00    +0.000 OA
ATOM     10  C   UNL     1       6.186   5.635  16.375  0.00  0.00    +0.000 C 
ATOM     11  C   UNL     1       6.127   7.168  16.448  0.00  0.00    +0.000 C 
ENDROOT
BRANCH   1  12
ATOM     12  C   UNL     1       9.238  10.025  19.244  0.00  0.00    +0.000 C 
BRANCH  12  13
ATOM     13  N   UNL     1       9.748  11.130  18.375  0.00  0.00    +0.000 NA
ATOM     14  C   UNL     1      11.185  11.292  18.618  0.00  0.00    +0.000 C 
BRANCH  13  16
ATOM     15  C   UNL     1       9.905  13.650  18.642  0.00  0.00    +0.000 C 
ATOM     16  C   UNL     1       8.999  12.415  18.499  0.00  0.00    +0.000 C 
ATOM     17  C   UNL     1       8.053  12.686  17.311  0.00  0.00    +0.000 C 
ENDBRANCH  13  16
ENDBRANCH  12  13
ENDBRANCH   1  12
BRANCH   8  18
ATOM     18  C   UNL     1       4.141   3.915  17.762  0.00  0.00    +0.000 C 
BRANCH  18  19
ATOM     19  C   UNL     1       3.004   3.725  18.738  0.00  0.00    +0.000 A 
ATOM     20  C   UNL     1       2.505   4.835  19.437  0.00  0.00    +0.000 A 
ATOM     21  C   UNL     1       1.416   4.698  20.298  0.00  0.00    +0.000 A 
ATOM     22  C   UNL     1       0.807   3.457  20.469  0.00  0.00    +0.000 A 
ATOM     23  C   UNL     1       1.282   2.350  19.771  0.00  0.00    +0.000 A 
ATOM     24  C   UNL     1       2.369   2.483  18.904  0.00  0.00    +0.000 A 
ENDBRANCH  18  19
ENDBRANCH   8  18
TORSDOF 5
ENDMDL
MODEL 4
REMARK VINA RESULT:      -7.1      4.333      6.860
REMARK  Name = 
REMARK  8 active torsions:
REMARK  status: ('A' for Active; 'I' for Inactive)
REMARK    1  A    between atoms: C_1  and  C_2
REMARK    2  A    between atoms: C_2  and  C_3
REMARK    3  A    between atoms: C_2  and  N_4
REMARK    4  A    between atoms: N_4  and  C_5
REMARK    5  A    between atoms: N_4  and  C_6
REMARK    6  A    between atoms: C_6  and  C_7
REMARK    7  A    between atoms: C_14  and  C_16
REMARK    8  A    between atoms: C_16  and  C_17
REMARK                            x       y       z     vdW  Elec       q    Type
REMARK                         _______ _______ _______ _____ _____    ______ ____
ROOT
ATOM      1  C   UNL     1       5.979   4.840  14.550  0.00  0.00    +0.000 A 
ATOM      2  C   UNL     1       6.008   3.950  15.611  0.00  0.00    +0.000 A 
ATOM      3  N   UNL     1       5.543   4.663  16.685  0.00  0.00    +0.000 N 
ATOM      4  C   UNL     1       5.268   5.937  16.270  0.00  0.00    +0.000 A 
ATOM      5  N   UNL     1       5.516   6.054  14.996  0.00  0.00    +0.000 NA
ATOM      6  C   UNL     1       4.721   7.005  17.149  0.00  0.00    +0.000 C 
ATOM      7  N   UNL     1       4.184   6.409  18.365  0.00  0.00    +0.000 N 
ATOM      8  C   UNL     1       2.920   6.806  18.765  0.00  0.00    +0.000 C 
ATOM      9  O   UNL     1       2.286   7.674  18.159  0.00  0.00    +0.000 OA
ATOM     10  C   UNL     1       5.031   5.374  18.977  0.00  0.00    +0.000 C 
ATOM     11  C   UNL     1       5.233   4.191  18.019  0.00  0.00    +0.000 C 
ENDROOT
BRANCH   1  12
ATOM     12  C   UNL     1       6.267   4.648  13.081  0.00  0.00    +0.000 C 
BRANCH  12  13
ATOM     13  N   UNL     1       6.521   3.235  12.659  0.00  0.00    +0.000 NA
ATOM     14  C   UNL     1       7.639   3.223  11.711  0.00  0.00    +0.000 C 
BRANCH  13  16
ATOM     15  C   UNL     1       4.320   3.428  11.409  0.00  0.00    +0.000 C 
ATOM     16  C   UNL     1       5.322   2.516  12.139  0.00  0.00    +0.000 C 
ATOM     17  C   UNL     1       5.673   1.368  11.170  0.00  0.00    +0.000 C 
ENDBRANCH  13  16
ENDBRANCH  12  13
ENDBRANCH   1  12
BRANCH   8  18
ATOM     18  C   UNL     1       2.295   6.141  19.973  0.00  0.00    +0.000 C 
BRANCH  18  19
ATOM     19  C   UNL     1       1.923   4.693  19.761  0.00  0.00    +0.000 A 
ATOM     20  C   UNL     1       1.825   3.839  20.870  0.00  0.00    +0.000 A 
ATOM     21  C   UNL     1       1.423   2.512  20.708  0.00  0.00    +0.000 A 
ATOM     22  C   UNL     1       1.109   2.023  19.442  0.00  0.00    +0.000 A 
ATOM     23  C   UNL     1       1.188   2.863  18.335  0.00  0.00    +0.000 A 
ATOM     24  C   UNL     1       1.584   4.193  18.493  0.00  0.00    +0.000 A 
ENDBRANCH  18  19
ENDBRANCH   8  18
TORSDOF 5
ENDMDL
MODEL 5
REMARK VINA RESULT:      -7.0      3.617      7.750
REMARK  Name = 
REMARK  8 active torsions:
REMARK  status: ('A' for Active; 'I' for Inactive)
REMARK    1  A    between atoms: C_1  and  C_2
REMARK    2  A    between atoms: C_2  and  C_3
REMARK    3  A    between atoms: C_2  and  N_4
REMARK    4  A    between atoms: N_4  and  C_5
REMARK    5  A    between atoms: N_4  and  C_6
REMARK    6  A    between atoms: C_6  and  C_7
REMARK    7  A    between atoms: C_14  and  C_16
REMARK    8  A    between atoms: C_16  and  C_17
REMARK                            x       y       z     vdW  Elec       q    Type
REMARK                         _______ _______ _______ _____ _____    ______ ____
ROOT
ATOM      1  C   UNL     1       2.766   5.500  19.765  0.00  0.00    +0.000 A 
ATOM      2  C   UNL     1       2.683   6.381  18.700  0.00  0.00    +0.000 A 
ATOM      3  N   UNL     1       3.964   6.487  18.227  0.00  0.00    +0.000 N 
ATOM      4  C   UNL     1       4.776   5.707  19.002  0.00  0.00    +0.000 A 
ATOM      5  N   UNL     1       4.073   5.105  19.919  0.00  0.00    +0.000 NA
ATOM      6  C   UNL     1       6.239   5.543  18.785  0.00  0.00    +0.000 C 
ATOM      7  N   UNL     1       6.589   6.012  17.450  0.00  0.00    +0.000 N 
ATOM      8  C   UNL     1       7.384   5.187  16.674  0.00  0.00    +0.000 C 
ATOM      9  O   UNL     1       7.836   4.122  17.103  0.00  0.00    +0.000 OA
ATOM     10  C   UNL     1       5.967   7.284  17.055  0.00  0.00    +0.000 C 
ATOM     11  C   UNL     1       4.436   7.167  17.037  0.00  0.00    +0.000 C 
ENDROOT
BRANCH   1  12
ATOM     12  C   UNL     1       1.697   4.892  20.641  0.00  0.00    +0.000 C 
BRANCH  12  13
ATOM     13  N   UNL     1       1.543   3.409  20.524  0.00  0.00    +0.000 NA
ATOM     14  C   UNL     1       2.409   2.769  21.519  0.00  0.00    +0.000 C 
BRANCH  13  16
ATOM     15  C   UNL     1       2.926   1.875  19.047  0.00  0.00    +0.000 C 
ATOM     16  C   UNL     1       1.755   2.867  19.150  0.00  0.00    +0.000 C 
ATOM     17  C   UNL     1       0.511   2.156  18.578  0.00  0.00    +0.000 C 
ENDBRANCH  13  16
ENDBRANCH  12  13
ENDBRANCH   1  12
BRANCH   8  18
ATOM     18  C   UNL     1       7.694   5.601  15.251  0.00  0.00    +0.000 C 
BRANCH  18  19
ATOM     19  C   UNL     1       6.922   4.837  14.201  0.00  0.00    +0.000 A 
ATOM     20  C   UNL     1       7.525   4.574  12.961  0.00  0.00    +0.000 A 
ATOM     21  C   UNL     1       6.858   3.817  11.997  0.00  0.00    +0.000 A 
ATOM     22  C   UNL     1       5.588   3.308  12.258  0.00  0.00    +0.000 A 
ATOM     23  C   UNL     1       4.984   3.549  13.489  0.00  0.00    +0.000 A 
ATOM     24  C   UNL     1       5.650   4.301  14.459  0.00  0.00    +0.000 A 
ENDBRANCH  18  19
ENDBRANCH   8  18
TORSDOF 5
ENDMDL
MODEL 6
REMARK VINA RESULT:      -7.0      5.433      7.564
REMARK  Name = 
REMARK  8 active torsions:
REMARK  status: ('A' for Active; 'I' for Inactive)
REMARK    1  A    between atoms: C_1  and  C_2
REMARK    2  A    between atoms: C_2  and  C_3
REMARK    3  A    between atoms: C_2  and  N_4
REMARK    4  A    between atoms: N_4  and  C_5
REMARK    5  A    between atoms: N_4  and  C_6
REMARK    6  A    between atoms: C_6  and  C_7
REMARK    7  A    between atoms: C_14  and  C_16
REMARK    8  A    between atoms: C_16  and  C_17
REMARK                            x       y       z     vdW  Elec       q    Type
REMARK                         _______ _______ _______ _____ _____    ______ ____
ROOT
ATOM      1  C   UNL     1       3.907   6.309  18.445  0.00  0.00    +0.000 A 
ATOM      2  C   UNL     1       3.528   7.376  17.648  0.00  0.00    +0.000 A 
ATOM      3  N   UNL     1       2.554   8.023  18.362  0.00  0.00    +0.000 N 
ATOM      4  C   UNL     1       2.355   7.346  19.533  0.00  0.00    +0.000 A 
ATOM      5  N   UNL     1       3.162   6.325  19.599  0.00  0.00    +0.000 NA
ATOM      6  C   UNL     1       1.389   7.758  20.586  0.00  0.00    +0.000 C 
ATOM      7  N   UNL     1       0.984   9.140  20.364  0.00  0.00    +0.000 N 
ATOM      8  C   UNL     1       1.016   9.995  21.452  0.00  0.00    +0.000 C 
ATOM      9  O   UNL     1       1.315   9.603  22.583  0.00  0.00    +0.000 OA
ATOM     10  C   UNL     1       0.674   9.480  18.968  0.00  0.00    +0.000 C 
ATOM     11  C   UNL     1       1.902   9.284  18.067  0.00  0.00    +0.000 C 
ENDROOT
BRANCH   1  12
ATOM     12  C   UNL     1       4.998   5.279  18.278  0.00  0.00    +0.000 C 
BRANCH  12  13
ATOM     13  N   UNL     1       6.010   5.588  17.220  0.00  0.00    +0.000 NA
ATOM     14  C   UNL     1       6.125   4.428  16.330  0.00  0.00    +0.000 C 
BRANCH  13  16
ATOM     15  C   UNL     1       7.607   7.540  17.508  0.00  0.00    +0.000 C 
ATOM     16  C   UNL     1       7.333   6.044  17.739  0.00  0.00    +0.000 C 
ATOM     17  C   UNL     1       7.519   5.780  19.248  0.00  0.00    +0.000 C 
ENDBRANCH  13  16
ENDBRANCH  12  13
ENDBRANCH   1  12
BRANCH   8  18
ATOM     18  C   UNL     1       0.688  11.458  21.238  0.00  0.00    +0.000 C 
BRANCH  18  19
ATOM     19  C   UNL     1      -0.744  11.824  21.546  0.00  0.00    +0.000 A 
ATOM     20  C   UNL     1      -1.236  11.639  22.848  0.00  0.00    +0.000 A 
ATOM     21  C   UNL     1      -2.536  12.026  23.175  0.00  0.00    +0.000 A 
ATOM     22  C   UNL     1      -3.359  12.605  22.213  0.00  0.00    +0.000 A 
ATOM     23  C   UNL     1      -2.880  12.808  20.921  0.00  0.00    +0.000 A 
ATOM     24  C   UNL     1      -1.578  12.428  20.591  0.00  0.00    +0.000 A 
ENDBRANCH  18  19
ENDBRANCH   8  18
TORSDOF 5
ENDMDL
MODEL 7
REMARK VINA RESULT:      -6.9      1.921      8.891
REMARK  Name = 
REMARK  8 active torsions:
REMARK  status: ('A' for Active; 'I' for Inactive)
REMARK    1  A    between atoms: C_1  and  C_2
REMARK    2  A    between atoms: C_2  and  C_3
REMARK    3  A    between atoms: C_2  and  N_4
REMARK    4  A    between atoms: N_4  and  C_5
REMARK    5  A    between atoms: N_4  and  C_6
REMARK    6  A    between atoms: C_6  and  C_7
REMARK    7  A    between atoms: C_14  and  C_16
REMARK    8  A    between atoms: C_16  and  C_17
REMARK                            x       y       z     vdW  Elec       q    Type
REMARK                         _______ _______ _______ _____ _____    ______ ____
ROOT
ATOM      1  C   UNL     1       4.189   4.896  18.139  0.00  0.00    +0.000 A 
ATOM      2  C   UNL     1       5.143   4.651  19.112  0.00  0.00    +0.000 A 
ATOM      3  N   UNL     1       6.191   5.477  18.799  0.00  0.00    +0.000 N 
ATOM      4  C   UNL     1       5.868   6.171  17.666  0.00  0.00    +0.000 A 
ATOM      5  N   UNL     1       4.673   5.841  17.266  0.00  0.00    +0.000 NA
ATOM      6  C   UNL     1       6.747   7.187  17.026  0.00  0.00    +0.000 C 
ATOM      7  N   UNL     1       7.788   7.591  17.962  0.00  0.00    +0.000 N 
ATOM      8  C   UNL     1       8.007   8.947  18.124  0.00  0.00    +0.000 C 
ATOM      9  O   UNL     1       7.395   9.792  17.464  0.00  0.00    +0.000 OA
ATOM     10  C   UNL     1       8.424   6.488  18.698  0.00  0.00    +0.000 C 
ATOM     11  C   UNL     1       7.398   5.735  19.557  0.00  0.00    +0.000 C 
ENDROOT
BRANCH   1  12
ATOM     12  C   UNL     1       2.778   4.386  17.976  0.00  0.00    +0.000 C 
BRANCH  12  13
ATOM     13  N   UNL     1       2.338   3.387  19.000  0.00  0.00    +0.000 NA
ATOM     14  C   UNL     1       1.945   2.154  18.311  0.00  0.00    +0.000 C 
BRANCH  13  16
ATOM     15  C   UNL     1       0.981   2.908  21.091  0.00  0.00    +0.000 C 
ATOM     16  C   UNL     1       1.287   3.879  19.937  0.00  0.00    +0.000 C 
ATOM     17  C   UNL     1       1.629   5.241  20.575  0.00  0.00    +0.000 C 
ENDBRANCH  13  16
ENDBRANCH  12  13
ENDBRANCH   1  12
BRANCH   8  18
ATOM     18  C   UNL     1       9.019   9.404  19.154  0.00  0.00    +0.000 C 
BRANCH  18  19
ATOM     19  C   UNL     1       9.591  10.777  18.894  0.00  0.00    +0.000 A 
ATOM     20  C   UNL     1       9.392  11.796  19.839  0.00  0.00    +0.000 A 
ATOM     21  C   UNL     1       9.962  13.055  19.653  0.00  0.00    +0.000 A 
ATOM     22  C   UNL     1      10.741  13.314  18.528  0.00  0.00    +0.000 A 
ATOM     23  C   UNL     1      10.959  12.310  17.589  0.00  0.00    +0.000 A 
ATOM     24  C   UNL     1      10.395  11.045  17.775  0.00  0.00    +0.000 A 
ENDBRANCH  18  19
ENDBRANCH   8  18
TORSDOF 5
ENDMDL
MODEL 8
REMARK VINA RESULT:      -6.8      4.185      6.905
REMARK  Name = 
REMARK  8 active torsions:
REMARK  status: ('A' for Active; 'I' for Inactive)
REMARK    1  A    between atoms: C_1  and  C_2
REMARK    2  A    between atoms: C_2  and  C_3
REMARK    3  A    between atoms: C_2  and  N_4
REMARK    4  A    between atoms: N_4  and  C_5
REMARK    5  A    between atoms: N_4  and  C_6
REMARK    6  A    between atoms: C_6  and  C_7
REMARK    7  A    between atoms: C_14  and  C_16
REMARK    8  A    between atoms: C_16  and  C_17
REMARK                            x       y       z     vdW  Elec       q    Type
REMARK                         _______ _______ _______ _____ _____    ______ ____
ROOT
ATOM      1  C   UNL     1       6.356   4.711  14.251  0.00  0.00    +0.000 A 
ATOM      2  C   UNL     1       6.459   3.881  15.355  0.00  0.00    +0.000 A 
ATOM      3  N   UNL     1       6.005   4.631  16.407  0.00  0.00    +0.000 N 
ATOM      4  C   UNL     1       5.662   5.869  15.938  0.00  0.00    +0.000 A 
ATOM      5  N   UNL     1       5.859   5.928  14.651  0.00  0.00    +0.000 NA
ATOM      6  C   UNL     1       5.104   6.961  16.780  0.00  0.00    +0.000 C 
ATOM      7  N   UNL     1       4.636   6.410  18.045  0.00  0.00    +0.000 N 
ATOM      8  C   UNL     1       3.372   6.778  18.471  0.00  0.00    +0.000 C 
ATOM      9  O   UNL     1       2.681   7.586  17.846  0.00  0.00    +0.000 OA
ATOM     10  C   UNL     1       5.547   5.443  18.677  0.00  0.00    +0.000 C 
ATOM     11  C   UNL     1       5.763   4.220  17.775  0.00  0.00    +0.000 C 
ENDROOT
BRANCH   1  12
ATOM     12  C   UNL     1       6.599   4.452  12.784  0.00  0.00    +0.000 C 
BRANCH  12  13
ATOM     13  N   UNL     1       6.726   3.011  12.402  0.00  0.00    +0.000 NA
ATOM     14  C   UNL     1       7.772   2.887  11.383  0.00  0.00    +0.000 C 
BRANCH  13  16
ATOM     15  C   UNL     1       4.458   3.318  11.303  0.00  0.00    +0.000 C 
ATOM     16  C   UNL     1       5.447   2.361  11.991  0.00  0.00    +0.000 C 
ATOM     17  C   UNL     1       5.651   1.164  11.039  0.00  0.00    +0.000 C 
ENDBRANCH  13  16
ENDBRANCH  12  13
ENDBRANCH   1  12
BRANCH   8  18
ATOM     18  C   UNL     1       2.819   6.154  19.736  0.00  0.00    +0.000 C 
BRANCH  18  19
ATOM     19  C   UNL     1       2.062   4.867  19.512  0.00  0.00    +0.000 A 
ATOM     20  C   UNL     1       2.221   4.178  18.300  0.00  0.00    +0.000 A 
ATOM     21  C   UNL     1       1.581   2.955  18.092  0.00  0.00    +0.000 A 
ATOM     22  C   UNL     1       0.781   2.402  19.090  0.00  0.00    +0.000 A 
ATOM     23  C   UNL     1       0.626   3.068  20.302  0.00  0.00    +0.000 A 
ATOM     24  C   UNL     1       1.270   4.289  20.517  0.00  0.00    +0.000 A 
ENDBRANCH  18  19
ENDBRANCH   8  18
TORSDOF 5
ENDMDL
MODEL 9
REMARK VINA RESULT:      -6.8      2.013      8.677
REMARK  Name = 
REMARK  8 active torsions:
REMARK  status: ('A' for Active; 'I' for Inactive)
REMARK    1  A    between atoms: C_1  and  C_2
REMARK    2  A    between atoms: C_2  and  C_3
REMARK    3  A    between atoms: C_2  and  N_4
REMARK    4  A    between atoms: N_4  and  C_5
REMARK    5  A    between atoms: N_4  and  C_6
REMARK    6  A    between atoms: C_6  and  C_7
REMARK    7  A    between atoms: C_14  and  C_16
REMARK    8  A    between atoms: C_16  and  C_17
REMARK                            x       y       z     vdW  Elec       q    Type
REMARK                         _______ _______ _______ _____ _____    ______ ____
ROOT
ATOM      1  C   UNL     1       3.628   4.974  18.270  0.00  0.00    +0.000 A 
ATOM      2  C   UNL     1       4.609   4.612  19.178  0.00  0.00    +0.000 A 
ATOM      3  N   UNL     1       5.721   5.318  18.801  0.00  0.00    +0.000 N 
ATOM      4  C   UNL     1       5.406   6.058  17.695  0.00  0.00    +0.000 A 
ATOM      5  N   UNL     1       4.158   5.869  17.372  0.00  0.00    +0.000 NA
ATOM      6  C   UNL     1       6.351   6.976  17.004  0.00  0.00    +0.000 C 
ATOM      7  N   UNL     1       7.489   7.250  17.871  0.00  0.00    +0.000 N 
ATOM      8  C   UNL     1       7.869   8.571  18.025  0.00  0.00    +0.000 C 
ATOM      9  O   UNL     1       7.315   9.486  17.411  0.00  0.00    +0.000 OA
ATOM     10  C   UNL     1       8.043   6.073  18.559  0.00  0.00    +0.000 C 
ATOM     11  C   UNL     1       6.996   5.430  19.480  0.00  0.00    +0.000 C 
ENDROOT
BRANCH   1  12
ATOM     12  C   UNL     1       2.161   4.627  18.198  0.00  0.00    +0.000 C 
BRANCH  12  13
ATOM     13  N   UNL     1       1.420   4.714  19.495  0.00  0.00    +0.000 NA
ATOM     14  C   UNL     1       2.077   5.712  20.344  0.00  0.00    +0.000 C 
BRANCH  13  16
ATOM     15  C   UNL     1       1.672   2.191  19.359  0.00  0.00    +0.000 C 
ATOM     16  C   UNL     1       1.229   3.408  20.191  0.00  0.00    +0.000 C 
ATOM     17  C   UNL     1       1.969   3.323  21.542  0.00  0.00    +0.000 C 
ENDBRANCH  13  16
ENDBRANCH  12  13
ENDBRANCH   1  12
BRANCH   8  18
ATOM     18  C   UNL     1       8.990   8.899  18.989  0.00  0.00    +0.000 C 
BRANCH  18  19
ATOM     19  C   UNL     1       9.330  10.369  19.068  0.00  0.00    +0.000 A 
ATOM     20  C   UNL     1       9.220  11.035  20.298  0.00  0.00    +0.000 A 
ATOM     21  C   UNL     1       9.587  12.376  20.411  0.00  0.00    +0.000 A 
ATOM     22  C   UNL     1      10.072  13.068  19.304  0.00  0.00    +0.000 A 
ATOM     23  C   UNL     1      10.200  12.416  18.081  0.00  0.00    +0.000 A 
ATOM     24  C   UNL     1       9.840  11.072  17.964  0.00  0.00    +0.000 A 
ENDBRANCH  18  19
ENDBRANCH   8  18
TORSDOF 5
ENDMDL
