MODEL 1
REMARK VINA RESULT:      -8.3      0.000      0.000
REMARK  Name = 
REMARK  8 active torsions:
REMARK  status: ('A' for Active; 'I' for Inactive)
REMARK    1  A    between atoms: C_1  and  O_2
REMARK    2  A    between atoms: O_2  and  C_3
REMARK    3  A    between atoms: C_8  and  O_9
REMARK    4  A    between atoms: O_9  and  C_10
REMARK    5  A    between atoms: C_16  and  O_17
REMARK    6  A    between atoms: O_17  and  C_18
REMARK    7  A    between atoms: C_19  and  O_20
REMARK    8  A    between atoms: O_20  and  C_21
REMARK                            x       y       z     vdW  Elec       q    Type
REMARK                         _______ _______ _______ _____ _____    ______ ____
ROOT
ATOM      1  C   UNL     1       3.755   4.275  19.015  0.00  0.00    +0.000 A 
ATOM      2  C   UNL     1       3.817   5.426  18.217  0.00  0.00    +0.000 A 
ATOM      3  C   UNL     1       3.093   6.577  18.551  0.00  0.00    +0.000 A 
ATOM      4  C   UNL     1       2.244   6.581  19.666  0.00  0.00    +0.000 A 
ATOM      5  C   UNL     1       2.090   5.381  20.372  0.00  0.00    +0.000 A 
ATOM      6  C   UNL     1       2.844   4.234  20.075  0.00  0.00    +0.000 A 
ATOM      7  C   UNL     1       1.547   7.842  20.043  0.00  0.00    +0.000 A 
ATOM      8  C   UNL     1       1.030   8.015  21.265  0.00  0.00    +0.000 A 
ATOM      9  C   UNL     1       0.367   9.262  21.635  0.00  0.00    +0.000 A 
ATOM     10  C   UNL     1      -0.131   9.335  22.939  0.00  0.00    +0.000 A 
ATOM     11  C   UNL     1      -0.759  10.485  23.369  0.00  0.00    +0.000 A 
ATOM     12  C   UNL     1      -0.890  11.585  22.516  0.00  0.00    +0.000 A 
ATOM     13  C   UNL     1      -0.397  11.543  21.178  0.00  0.00    +0.000 A 
ATOM     14  C   UNL     1       0.228  10.344  20.728  0.00  0.00    +0.000 A 
ATOM     15  C   UNL     1       0.750  10.058  19.344  0.00  0.00    +0.000 A 
ATOM     16  O   UNL     1       0.551  10.810  18.398  0.00  0.00    +0.000 OA
ATOM     17  N   UNL     1       1.470   8.873  19.118  0.00  0.00    +0.000 N 
ATOM     18  C   UNL     1       2.004   8.658  17.770  0.00  0.00    +0.000 C 
ATOM     19  C   UNL     1       3.286   7.842  17.763  0.00  0.00    +0.000 C 
ENDROOT
BRANCH   1  21
ATOM     20  C   UNL     1       3.940   2.146  18.007  0.00  0.00    +0.000 C 
ATOM     21  O   UNL     1       4.557   3.197  18.753  0.00  0.00    +0.000 OA
ENDBRANCH   1  21
BRANCH   6  22
ATOM     22  O   UNL     1       2.569   3.213  20.947  0.00  0.00    +0.000 OA
ATOM     23  C   UNL     1       1.219   2.920  21.265  0.00  0.00    +0.000 C 
ENDBRANCH   6  22
BRANCH  12  24
ATOM     24  O   UNL     1      -1.532  12.609  23.176  0.00  0.00    +0.000 OA
ATOM     25  C   UNL     1      -2.939  12.600  23.339  0.00  0.00    +0.000 C 
ENDBRANCH  12  24
BRANCH  13  26
ATOM     26  O   UNL     1      -0.626  12.715  20.526  0.00  0.00    +0.000 OA
ATOM     27  C   UNL     1      -1.749  13.049  19.745  0.00  0.00    +0.000 C 
ENDBRANCH  13  26
TORSDOF 4
ENDMDL
MODEL 2
REMARK VINA RESULT:      -7.8      1.164      1.323
REMARK  Name = 
REMARK  8 active torsions:
REMARK  status: ('A' for Active; 'I' for Inactive)
REMARK    1  A    between atoms: C_1  and  O_2
REMARK    2  A    between atoms: O_2  and  C_3
REMARK    3  A    between atoms: C_8  and  O_9
REMARK    4  A    between atoms: O_9  and  C_10
REMARK    5  A    between atoms: C_16  and  O_17
REMARK    6  A    between atoms: O_17  and  C_18
REMARK    7  A    between atoms: C_19  and  O_20
REMARK    8  A    between atoms: O_20  and  C_21
REMARK                            x       y       z     vdW  Elec       q    Type
REMARK                         _______ _______ _______ _____ _____    ______ ____
ROOT
ATOM      1  C   UNL     1       4.109   3.429  19.639  0.00  0.00    +0.000 A 
ATOM      2  C   UNL     1       4.359   4.421  18.679  0.00  0.00    +0.000 A 
ATOM      3  C   UNL     1       3.697   5.654  18.725  0.00  0.00    +0.000 A 
ATOM      4  C   UNL     1       2.726   5.902  19.705  0.00  0.00    +0.000 A 
ATOM      5  C   UNL     1       2.392   4.852  20.570  0.00  0.00    +0.000 A 
ATOM      6  C   UNL     1       3.078   3.627  20.564  0.00  0.00    +0.000 A 
ATOM      7  C   UNL     1       2.096   7.249  19.778  0.00  0.00    +0.000 A 
ATOM      8  C   UNL     1       1.455   7.660  20.878  0.00  0.00    +0.000 A 
ATOM      9  C   UNL     1       0.858   8.991  20.952  0.00  0.00    +0.000 A 
ATOM     10  C   UNL     1       0.218   9.316  22.151  0.00  0.00    +0.000 A 
ATOM     11  C   UNL     1      -0.360  10.560  22.304  0.00  0.00    +0.000 A 
ATOM     12  C   UNL     1      -0.298  11.503  21.274  0.00  0.00    +0.000 A 
ATOM     13  C   UNL     1       0.344  11.202  20.036  0.00  0.00    +0.000 A 
ATOM     14  C   UNL     1       0.917   9.907  19.871  0.00  0.00    +0.000 A 
ATOM     15  C   UNL     1       1.572   9.357  18.631  0.00  0.00    +0.000 A 
ATOM     16  O   UNL     1       1.549   9.947  17.559  0.00  0.00    +0.000 OA
ATOM     17  N   UNL     1       2.214   8.109  18.696  0.00  0.00    +0.000 N 
ATOM     18  C   UNL     1       2.883   7.634  17.482  0.00  0.00    +0.000 C 
ATOM     19  C   UNL     1       4.085   6.752  17.774  0.00  0.00    +0.000 C 
ENDROOT
BRANCH   1  21
ATOM     20  C   UNL     1       4.270   1.174  18.955  0.00  0.00    +0.000 C 
ATOM     21  O   UNL     1       4.844   2.276  19.661  0.00  0.00    +0.000 OA
ENDBRANCH   1  21
BRANCH   6  22
ATOM     22  O   UNL     1       2.620   2.789  21.546  0.00  0.00    +0.000 OA
ATOM     23  C   UNL     1       1.223   2.607  21.703  0.00  0.00    +0.000 C 
ENDBRANCH   6  22
BRANCH  12  24
ATOM     24  O   UNL     1      -0.927  12.662  21.669  0.00  0.00    +0.000 OA
ATOM     25  C   UNL     1      -1.238  12.893  23.031  0.00  0.00    +0.000 C 
ENDBRANCH  12  24
BRANCH  13  26
ATOM     26  O   UNL     1       0.290  12.257  19.178  0.00  0.00    +0.000 OA
ATOM     27  C   UNL     1       1.299  13.207  18.933  0.00  0.00    +0.000 C 
ENDBRANCH  13  26
TORSDOF 4
ENDMDL
MODEL 3
REMARK VINA RESULT:      -7.5      1.004      1.143
REMARK  Name = 
REMARK  8 active torsions:
REMARK  status: ('A' for Active; 'I' for Inactive)
REMARK    1  A    between atoms: C_1  and  O_2
REMARK    2  A    between atoms: O_2  and  C_3
REMARK    3  A    between atoms: C_8  and  O_9
REMARK    4  A    between atoms: O_9  and  C_10
REMARK    5  A    between atoms: C_16  and  O_17
REMARK    6  A    between atoms: O_17  and  C_18
REMARK    7  A    between atoms: C_19  and  O_20
REMARK    8  A    between atoms: O_20  and  C_21
REMARK                            x       y       z     vdW  Elec       q    Type
REMARK                         _______ _______ _______ _____ _____    ______ ____
ROOT
ATOM      1  C   UNL     1       3.254   5.179  19.344  0.00  0.00    +0.000 A 
ATOM      2  C   UNL     1       3.200   6.243  18.431  0.00  0.00    +0.000 A 
ATOM      3  C   UNL     1       2.430   7.382  18.694  0.00  0.00    +0.000 A 
ATOM      4  C   UNL     1       1.651   7.458  19.857  0.00  0.00    +0.000 A 
ATOM      5  C   UNL     1       1.611   6.332  20.689  0.00  0.00    +0.000 A 
ATOM      6  C   UNL     1       2.412   5.201  20.461  0.00  0.00    +0.000 A 
ATOM      7  C   UNL     1       0.905   8.713  20.149  0.00  0.00    +0.000 A 
ATOM      8  C   UNL     1       0.452   8.986  21.378  0.00  0.00    +0.000 A 
ATOM      9  C   UNL     1      -0.260  10.228  21.664  0.00  0.00    +0.000 A 
ATOM     10  C   UNL     1      -0.681  10.411  22.983  0.00  0.00    +0.000 A 
ATOM     11  C   UNL     1      -1.350  11.565  23.336  0.00  0.00    +0.000 A 
ATOM     12  C   UNL     1      -1.596  12.561  22.386  0.00  0.00    +0.000 A 
ATOM     13  C   UNL     1      -1.183  12.405  21.030  0.00  0.00    +0.000 A 
ATOM     14  C   UNL     1      -0.516  11.200  20.662  0.00  0.00    +0.000 A 
ATOM     15  C   UNL     1      -0.063  10.798  19.283  0.00  0.00    +0.000 A 
ATOM     16  O   UNL     1      -0.362  11.437  18.282  0.00  0.00    +0.000 OA
ATOM     17  N   UNL     1       0.712   9.636  19.131  0.00  0.00    +0.000 N 
ATOM     18  C   UNL     1       1.175   9.309  17.780  0.00  0.00    +0.000 C 
ATOM     19  C   UNL     1       2.500   8.566  17.771  0.00  0.00    +0.000 C 
ENDROOT
BRANCH   1  21
ATOM     20  C   UNL     1       3.718   3.230  18.092  0.00  0.00    +0.000 C 
ATOM     21  O   UNL     1       4.101   4.124  19.139  0.00  0.00    +0.000 OA
ENDBRANCH   1  21
BRANCH   6  22
ATOM     22  O   UNL     1       2.251   4.264  21.447  0.00  0.00    +0.000 OA
ATOM     23  C   UNL     1       1.288   3.239  21.275  0.00  0.00    +0.000 C 
ENDBRANCH   6  22
BRANCH  12  24
ATOM     24  O   UNL     1      -2.257  13.613  22.979  0.00  0.00    +0.000 OA
ATOM     25  C   UNL     1      -3.441  13.400  23.727  0.00  0.00    +0.000 C 
ENDBRANCH  12  24
BRANCH  13  26
ATOM     26  O   UNL     1      -1.520  13.489  20.279  0.00  0.00    +0.000 OA
ATOM     27  C   UNL     1      -0.676  14.540  19.874  0.00  0.00    +0.000 C 
ENDBRANCH  13  26
TORSDOF 4
ENDMDL
MODEL 4
REMARK VINA RESULT:      -7.3      1.831      8.606
REMARK  Name = 
REMARK  8 active torsions:
REMARK  status: ('A' for Active; 'I' for Inactive)
REMARK    1  A    between atoms: C_1  and  O_2
REMARK    2  A    between atoms: O_2  and  C_3
REMARK    3  A    between atoms: C_8  and  O_9
REMARK    4  A    between atoms: O_9  and  C_10
REMARK    5  A    between atoms: C_16  and  O_17
REMARK    6  A    between atoms: O_17  and  C_18
REMARK    7  A    between atoms: C_19  and  O_20
REMARK    8  A    between atoms: O_20  and  C_21
REMARK                            x       y       z     vdW  Elec       q    Type
REMARK                         _______ _______ _______ _____ _____    ______ ____
ROOT
ATOM      1  C   UNL     1       0.338  11.616  20.517  0.00  0.00    +0.000 A 
ATOM      2  C   UNL     1       0.393  10.446  21.290  0.00  0.00    +0.000 A 
ATOM      3  C   UNL     1       0.990   9.281  20.796  0.00  0.00    +0.000 A 
ATOM      4  C   UNL     1       1.500   9.245  19.490  0.00  0.00    +0.000 A 
ATOM      5  C   UNL     1       1.314  10.377  18.687  0.00  0.00    +0.000 A 
ATOM      6  C   UNL     1       0.757  11.567  19.184  0.00  0.00    +0.000 A 
ATOM      7  C   UNL     1       2.200   8.018  19.019  0.00  0.00    +0.000 A 
ATOM      8  C   UNL     1       3.007   8.042  17.952  0.00  0.00    +0.000 A 
ATOM      9  C   UNL     1       3.708   6.841  17.507  0.00  0.00    +0.000 A 
ATOM     10  C   UNL     1       4.530   6.983  16.386  0.00  0.00    +0.000 A 
ATOM     11  C   UNL     1       5.236   5.897  15.911  0.00  0.00    +0.000 A 
ATOM     12  C   UNL     1       5.148   4.658  16.552  0.00  0.00    +0.000 A 
ATOM     13  C   UNL     1       4.316   4.477  17.696  0.00  0.00    +0.000 A 
ATOM     14  C   UNL     1       3.567   5.594  18.168  0.00  0.00    +0.000 A 
ATOM     15  C   UNL     1       2.578   5.608  19.305  0.00  0.00    +0.000 A 
ATOM     16  O   UNL     1       2.206   4.584  19.865  0.00  0.00    +0.000 OA
ATOM     17  N   UNL     1       2.041   6.836  19.726  0.00  0.00    +0.000 N 
ATOM     18  C   UNL     1       1.123   6.811  20.868  0.00  0.00    +0.000 C 
ATOM     19  C   UNL     1       1.165   8.087  21.691  0.00  0.00    +0.000 C 
ENDROOT
BRANCH   1  21
ATOM     20  C   UNL     1      -1.561  12.901  21.088  0.00  0.00    +0.000 C 
ATOM     21  O   UNL     1      -0.137  12.784  21.049  0.00  0.00    +0.000 OA
ENDBRANCH   1  21
BRANCH   6  22
ATOM     22  O   UNL     1       0.747  12.552  18.233  0.00  0.00    +0.000 OA
ATOM     23  C   UNL     1       1.815  13.483  18.190  0.00  0.00    +0.000 C 
ENDBRANCH   6  22
BRANCH  12  24
ATOM     24  O   UNL     1       5.951   3.744  15.906  0.00  0.00    +0.000 OA
ATOM     25  C   UNL     1       6.318   3.928  14.551  0.00  0.00    +0.000 C 
ENDBRANCH  12  24
BRANCH  13  26
ATOM     26  O   UNL     1       4.379   3.199  18.161  0.00  0.00    +0.000 OA
ATOM     27  C   UNL     1       3.494   2.143  17.872  0.00  0.00    +0.000 C 
ENDBRANCH  13  26
TORSDOF 4
ENDMDL
MODEL 5
REMARK VINA RESULT:      -7.0      1.665      8.390
REMARK  Name = 
REMARK  8 active torsions:
REMARK  status: ('A' for Active; 'I' for Inactive)
REMARK    1  A    between atoms: C_1  and  O_2
REMARK    2  A    between atoms: O_2  and  C_3
REMARK    3  A    between atoms: C_8  and  O_9
REMARK    4  A    between atoms: O_9  and  C_10
REMARK    5  A    between atoms: C_16  and  O_17
REMARK    6  A    between atoms: O_17  and  C_18
REMARK    7  A    between atoms: C_19  and  O_20
REMARK    8  A    between atoms: O_20  and  C_21
REMARK                            x       y       z     vdW  Elec       q    Type
REMARK                         _______ _______ _______ _____ _____    ______ ____
ROOT
ATOM      1  C   UNL     1      -1.109  11.742  20.137  0.00  0.00    +0.000 A 
ATOM      2  C   UNL     1      -0.702  10.863  21.152  0.00  0.00    +0.000 A 
ATOM      3  C   UNL     1       0.146   9.784  20.876  0.00  0.00    +0.000 A 
ATOM      4  C   UNL     1       0.563   9.529  19.562  0.00  0.00    +0.000 A 
ATOM      5  C   UNL     1       0.038  10.334  18.544  0.00  0.00    +0.000 A 
ATOM      6  C   UNL     1      -0.777  11.446  18.811  0.00  0.00    +0.000 A 
ATOM      7  C   UNL     1       1.527   8.422  19.310  0.00  0.00    +0.000 A 
ATOM      8  C   UNL     1       2.231   8.356  18.174  0.00  0.00    +0.000 A 
ATOM      9  C   UNL     1       3.192   7.281  17.942  0.00  0.00    +0.000 A 
ATOM     10  C   UNL     1       3.875   7.314  16.723  0.00  0.00    +0.000 A 
ATOM     11  C   UNL     1       4.808   6.340  16.434  0.00  0.00    +0.000 A 
ATOM     12  C   UNL     1       5.087   5.327  17.356  0.00  0.00    +0.000 A 
ATOM     13  C   UNL     1       4.405   5.261  18.608  0.00  0.00    +0.000 A 
ATOM     14  C   UNL     1       3.422   6.254  18.893  0.00  0.00    +0.000 A 
ATOM     15  C   UNL     1       2.538   6.331  20.110  0.00  0.00    +0.000 A 
ATOM     16  O   UNL     1       2.482   5.432  20.939  0.00  0.00    +0.000 OA
ATOM     17  N   UNL     1       1.727   7.464  20.293  0.00  0.00    +0.000 N 
ATOM     18  C   UNL     1       0.922   7.523  21.515  0.00  0.00    +0.000 C 
ATOM     19  C   UNL     1       0.682   8.943  22.000  0.00  0.00    +0.000 C 
ENDROOT
BRANCH   1  21
ATOM     20  C   UNL     1      -3.253  12.719  20.308  0.00  0.00    +0.000 C 
ATOM     21  O   UNL     1      -1.837  12.863  20.432  0.00  0.00    +0.000 OA
ENDBRANCH   1  21
BRANCH   6  22
ATOM     22  O   UNL     1      -1.104  12.117  17.663  0.00  0.00    +0.000 OA
ATOM     23  C   UNL     1      -2.148  11.618  16.845  0.00  0.00    +0.000 C 
ENDBRANCH   6  22
BRANCH  12  24
ATOM     24  O   UNL     1       6.058   4.493  16.849  0.00  0.00    +0.000 OA
ATOM     25  C   UNL     1       7.408   4.614  17.260  0.00  0.00    +0.000 C 
ENDBRANCH  12  24
BRANCH  13  26
ATOM     26  O   UNL     1       4.828   4.203  19.350  0.00  0.00    +0.000 OA
ATOM     27  C   UNL     1       4.279   2.907  19.376  0.00  0.00    +0.000 C 
ENDBRANCH  13  26
TORSDOF 4
ENDMDL
MODEL 6
REMARK VINA RESULT:      -7.0      1.525      7.786
REMARK  Name = 
REMARK  8 active torsions:
REMARK  status: ('A' for Active; 'I' for Inactive)
REMARK    1  A    between atoms: C_1  and  O_2
REMARK    2  A    between atoms: O_2  and  C_3
REMARK    3  A    between atoms: C_8  and  O_9
REMARK    4  A    between atoms: O_9  and  C_10
REMARK    5  A    between atoms: C_16  and  O_17
REMARK    6  A    between atoms: O_17  and  C_18
REMARK    7  A    between atoms: C_19  and  O_20
REMARK    8  A    between atoms: O_20  and  C_21
REMARK                            x       y       z     vdW  Elec       q    Type
REMARK                         _______ _______ _______ _____ _____    ______ ____
ROOT
ATOM      1  C   UNL     1      -0.462  11.452  20.895  0.00  0.00    +0.000 A 
ATOM      2  C   UNL     1       0.019  11.265  19.590  0.00  0.00    +0.000 A 
ATOM      3  C   UNL     1       0.726  10.109  19.240  0.00  0.00    +0.000 A 
ATOM      4  C   UNL     1       1.016   9.135  20.206  0.00  0.00    +0.000 A 
ATOM      5  C   UNL     1       0.648   9.402  21.530  0.00  0.00    +0.000 A 
ATOM      6  C   UNL     1      -0.101  10.535  21.887  0.00  0.00    +0.000 A 
ATOM      7  C   UNL     1       1.701   7.881  19.788  0.00  0.00    +0.000 A 
ATOM      8  C   UNL     1       1.681   6.786  20.557  0.00  0.00    +0.000 A 
ATOM      9  C   UNL     1       2.335   5.551  20.132  0.00  0.00    +0.000 A 
ATOM     10  C   UNL     1       2.246   4.469  21.011  0.00  0.00    +0.000 A 
ATOM     11  C   UNL     1       2.828   3.264  20.676  0.00  0.00    +0.000 A 
ATOM     12  C   UNL     1       3.494   3.112  19.457  0.00  0.00    +0.000 A 
ATOM     13  C   UNL     1       3.608   4.197  18.538  0.00  0.00    +0.000 A 
ATOM     14  C   UNL     1       3.029   5.449  18.899  0.00  0.00    +0.000 A 
ATOM     15  C   UNL     1       3.093   6.736  18.119  0.00  0.00    +0.000 A 
ATOM     16  O   UNL     1       3.798   6.868  17.126  0.00  0.00    +0.000 OA
ATOM     17  N   UNL     1       2.338   7.837  18.557  0.00  0.00    +0.000 N 
ATOM     18  C   UNL     1       2.389   9.053  17.741  0.00  0.00    +0.000 C 
ATOM     19  C   UNL     1       1.106   9.865  17.807  0.00  0.00    +0.000 C 
ENDROOT
BRANCH   1  21
ATOM     20  C   UNL     1      -2.079  12.997  20.132  0.00  0.00    +0.000 C 
ATOM     21  O   UNL     1      -1.256  12.523  21.201  0.00  0.00    +0.000 OA
ENDBRANCH   1  21
BRANCH   6  22
ATOM     22  O   UNL     1      -0.401  10.538  23.224  0.00  0.00    +0.000 OA
ATOM     23  C   UNL     1       0.056   9.471  24.037  0.00  0.00    +0.000 C 
ENDBRANCH   6  22
BRANCH  12  24
ATOM     24  O   UNL     1       3.970   1.824  19.347  0.00  0.00    +0.000 OA
ATOM     25  C   UNL     1       4.869   1.296  20.306  0.00  0.00    +0.000 C 
ENDBRANCH  12  24
BRANCH  13  26
ATOM     26  O   UNL     1       4.291   3.833  17.420  0.00  0.00    +0.000 OA
ATOM     27  C   UNL     1       5.639   4.107  17.117  0.00  0.00    +0.000 C 
ENDBRANCH  13  26
TORSDOF 4
ENDMDL
MODEL 7
REMARK VINA RESULT:      -6.4      1.881      3.608
REMARK  Name = 
REMARK  8 active torsions:
REMARK  status: ('A' for Active; 'I' for Inactive)
REMARK    1  A    between atoms: C_1  and  O_2
REMARK    2  A    between atoms: O_2  and  C_3
REMARK    3  A    between atoms: C_8  and  O_9
REMARK    4  A    between atoms: O_9  and  C_10
REMARK    5  A    between atoms: C_16  and  O_17
REMARK    6  A    between atoms: O_17  and  C_18
REMARK    7  A    between atoms: C_19  and  O_20
REMARK    8  A    between atoms: O_20  and  C_21
REMARK                            x       y       z     vdW  Elec       q    Type
REMARK                         _______ _______ _______ _____ _____    ______ ____
ROOT
ATOM      1  C   UNL     1       3.523   3.672  17.841  0.00  0.00    +0.000 A 
ATOM      2  C   UNL     1       2.671   3.821  18.945  0.00  0.00    +0.000 A 
ATOM      3  C   UNL     1       2.257   5.088  19.373  0.00  0.00    +0.000 A 
ATOM      4  C   UNL     1       2.733   6.242  18.735  0.00  0.00    +0.000 A 
ATOM      5  C   UNL     1       3.688   6.080  17.723  0.00  0.00    +0.000 A 
ATOM      6  C   UNL     1       4.078   4.814  17.255  0.00  0.00    +0.000 A 
ATOM      7  C   UNL     1       2.215   7.571  19.159  0.00  0.00    +0.000 A 
ATOM      8  C   UNL     1       2.340   8.651  18.378  0.00  0.00    +0.000 A 
ATOM      9  C   UNL     1       1.810   9.948  18.791  0.00  0.00    +0.000 A 
ATOM     10  C   UNL     1       1.991  11.004  17.894  0.00  0.00    +0.000 A 
ATOM     11  C   UNL     1       1.508  12.258  18.205  0.00  0.00    +0.000 A 
ATOM     12  C   UNL     1       0.825  12.478  19.404  0.00  0.00    +0.000 A 
ATOM     13  C   UNL     1       0.626  11.423  20.344  0.00  0.00    +0.000 A 
ATOM     14  C   UNL     1       1.149  10.135  20.032  0.00  0.00    +0.000 A 
ATOM     15  C   UNL     1       1.118   8.908  20.905  0.00  0.00    +0.000 A 
ATOM     16  O   UNL     1       0.747   8.941  22.072  0.00  0.00    +0.000 OA
ATOM     17  N   UNL     1       1.553   7.682  20.374  0.00  0.00    +0.000 N 
ATOM     18  C   UNL     1       1.458   6.503  21.239  0.00  0.00    +0.000 C 
ATOM     19  C   UNL     1       1.233   5.216  20.465  0.00  0.00    +0.000 C 
ENDROOT
BRANCH   1  21
ATOM     20  C   UNL     1       3.656   1.354  18.280  0.00  0.00    +0.000 C 
ATOM     21  O   UNL     1       3.826   2.430  17.354  0.00  0.00    +0.000 OA
ENDBRANCH   1  21
BRANCH   6  22
ATOM     22  O   UNL     1       4.965   4.914  16.217  0.00  0.00    +0.000 OA
ATOM     23  C   UNL     1       6.350   4.751  16.473  0.00  0.00    +0.000 C 
ENDBRANCH   6  22
BRANCH  12  24
ATOM     24  O   UNL     1       0.430  13.795  19.478  0.00  0.00    +0.000 OA
ATOM     25  C   UNL     1       1.317  14.842  19.126  0.00  0.00    +0.000 C 
ENDBRANCH  12  24
BRANCH  13  26
ATOM     26  O   UNL     1      -0.061  11.854  21.437  0.00  0.00    +0.000 OA
ATOM     27  C   UNL     1      -1.451  11.787  21.651  0.00  0.00    +0.000 C 
ENDBRANCH  13  26
TORSDOF 4
ENDMDL
MODEL 8
REMARK VINA RESULT:      -6.2      2.114      3.814
REMARK  Name = 
REMARK  8 active torsions:
REMARK  status: ('A' for Active; 'I' for Inactive)
REMARK    1  A    between atoms: C_1  and  O_2
REMARK    2  A    between atoms: O_2  and  C_3
REMARK    3  A    between atoms: C_8  and  O_9
REMARK    4  A    between atoms: O_9  and  C_10
REMARK    5  A    between atoms: C_16  and  O_17
REMARK    6  A    between atoms: O_17  and  C_18
REMARK    7  A    between atoms: C_19  and  O_20
REMARK    8  A    between atoms: O_20  and  C_21
REMARK                            x       y       z     vdW  Elec       q    Type
REMARK                         _______ _______ _______ _____ _____    ______ ____
ROOT
ATOM      1  C   UNL     1       4.895   4.567  17.008  0.00  0.00    +0.000 A 
ATOM      2  C   UNL     1       3.885   4.267  17.934  0.00  0.00    +0.000 A 
ATOM      3  C   UNL     1       3.122   5.281  18.524  0.00  0.00    +0.000 A 
ATOM      4  C   UNL     1       3.391   6.627  18.241  0.00  0.00    +0.000 A 
ATOM      5  C   UNL     1       4.490   6.913  17.422  0.00  0.00    +0.000 A 
ATOM      6  C   UNL     1       5.236   5.906  16.787  0.00  0.00    +0.000 A 
ATOM      7  C   UNL     1       2.512   7.680  18.822  0.00  0.00    +0.000 A 
ATOM      8  C   UNL     1       2.482   8.919  18.318  0.00  0.00    +0.000 A 
ATOM      9  C   UNL     1       1.602   9.942  18.878  0.00  0.00    +0.000 A 
ATOM     10  C   UNL     1       1.649  11.198  18.269  0.00  0.00    +0.000 A 
ATOM     11  C   UNL     1       0.838  12.215  18.732  0.00  0.00    +0.000 A 
ATOM     12  C   UNL     1      -0.040  11.993  19.797  0.00  0.00    +0.000 A 
ATOM     13  C   UNL     1      -0.110  10.723  20.443  0.00  0.00    +0.000 A 
ATOM     14  C   UNL     1       0.748   9.683  19.980  0.00  0.00    +0.000 A 
ATOM     15  C   UNL     1       0.890   8.300  20.559  0.00  0.00    +0.000 A 
ATOM     16  O   UNL     1       0.361   7.972  21.614  0.00  0.00    +0.000 OA
ATOM     17  N   UNL     1       1.679   7.355  19.882  0.00  0.00    +0.000 N 
ATOM     18  C   UNL     1       1.750   6.007  20.452  0.00  0.00    +0.000 C 
ATOM     19  C   UNL     1       1.953   4.928  19.401  0.00  0.00    +0.000 C 
ENDROOT
BRANCH   1  21
ATOM     20  C   UNL     1       5.761   3.799  14.948  0.00  0.00    +0.000 C 
ATOM     21  O   UNL     1       5.555   3.569  16.344  0.00  0.00    +0.000 OA
ENDBRANCH   1  21
BRANCH   6  22
ATOM     22  O   UNL     1       6.210   6.434  15.983  0.00  0.00    +0.000 OA
ATOM     23  C   UNL     1       7.361   7.009  16.578  0.00  0.00    +0.000 C 
ENDBRANCH   6  22
BRANCH  12  24
ATOM     24  O   UNL     1      -0.748  13.144  20.061  0.00  0.00    +0.000 OA
ATOM     25  C   UNL     1      -0.408  14.367  19.433  0.00  0.00    +0.000 C 
ENDBRANCH  12  24
BRANCH  13  26
ATOM     26  O   UNL     1      -1.028  10.726  21.448  0.00  0.00    +0.000 OA
ATOM     27  C   UNL     1      -0.809  11.052  22.800  0.00  0.00    +0.000 C 
ENDBRANCH  13  26
TORSDOF 4
ENDMDL
MODEL 9
REMARK VINA RESULT:      -6.2      1.699      3.456
REMARK  Name = 
REMARK  8 active torsions:
REMARK  status: ('A' for Active; 'I' for Inactive)
REMARK    1  A    between atoms: C_1  and  O_2
REMARK    2  A    between atoms: O_2  and  C_3
REMARK    3  A    between atoms: C_8  and  O_9
REMARK    4  A    between atoms: O_9  and  C_10
REMARK    5  A    between atoms: C_16  and  O_17
REMARK    6  A    between atoms: O_17  and  C_18
REMARK    7  A    between atoms: C_19  and  O_20
REMARK    8  A    between atoms: O_20  and  C_21
REMARK                            x       y       z     vdW  Elec       q    Type
REMARK                         _______ _______ _______ _____ _____    ______ ____
ROOT
ATOM      1  C   UNL     1       3.920   4.850  17.888  0.00  0.00    +0.000 A 
ATOM      2  C   UNL     1       3.046   4.753  18.981  0.00  0.00    +0.000 A 
ATOM      3  C   UNL     1       2.348   5.871  19.450  0.00  0.00    +0.000 A 
ATOM      4  C   UNL     1       2.552   7.130  18.868  0.00  0.00    +0.000 A 
ATOM      5  C   UNL     1       3.529   7.235  17.869  0.00  0.00    +0.000 A 
ATOM      6  C   UNL     1       4.203   6.114  17.358  0.00  0.00    +0.000 A 
ATOM      7  C   UNL     1       1.738   8.286  19.335  0.00  0.00    +0.000 A 
ATOM      8  C   UNL     1       1.619   9.398  18.600  0.00  0.00    +0.000 A 
ATOM      9  C   UNL     1       0.801  10.520  19.052  0.00  0.00    +0.000 A 
ATOM     10  C   UNL     1       0.744  11.626  18.202  0.00  0.00    +0.000 A 
ATOM     11  C   UNL     1      -0.018  12.722  18.553  0.00  0.00    +0.000 A 
ATOM     12  C   UNL     1      -0.745  12.728  19.747  0.00  0.00    +0.000 A 
ATOM     13  C   UNL     1      -0.705  11.617  20.640  0.00  0.00    +0.000 A 
ATOM     14  C   UNL     1       0.104  10.497  20.288  0.00  0.00    +0.000 A 
ATOM     15  C   UNL     1       0.347   9.259  21.111  0.00  0.00    +0.000 A 
ATOM     16  O   UNL     1      -0.032   9.156  22.270  0.00  0.00    +0.000 OA
ATOM     17  N   UNL     1       1.058   8.190  20.539  0.00  0.00    +0.000 N 
ATOM     18  C   UNL     1       1.228   6.985  21.356  0.00  0.00    +0.000 C 
ATOM     19  C   UNL     1       1.312   5.714  20.527  0.00  0.00    +0.000 C 
ENDROOT
BRANCH   1  21
ATOM     20  C   UNL     1       3.849   2.500  17.661  0.00  0.00    +0.000 C 
ATOM     21  O   UNL     1       4.505   3.733  17.358  0.00  0.00    +0.000 OA
ENDBRANCH   1  21
BRANCH   6  22
ATOM     22  O   UNL     1       5.054   6.459  16.342  0.00  0.00    +0.000 OA
ATOM     23  C   UNL     1       6.444   6.547  16.604  0.00  0.00    +0.000 C 
ENDBRANCH   6  22
BRANCH  12  24
ATOM     24  O   UNL     1      -1.433  13.915  19.865  0.00  0.00    +0.000 OA
ATOM     25  C   UNL     1      -0.781  15.093  20.305  0.00  0.00    +0.000 C 
ENDBRANCH  12  24
BRANCH  13  26
ATOM     26  O   UNL     1      -1.482  11.831  21.736  0.00  0.00    +0.000 OA
ATOM     27  C   UNL     1      -1.096  12.429  22.951  0.00  0.00    +0.000 C 
ENDBRANCH  13  26
TORSDOF 4
ENDMDL
