MODEL 1
REMARK VINA RESULT:      -6.9      0.000      0.000
REMARK  Name = 
REMARK  6 active torsions:
REMARK  status: ('A' for Active; 'I' for Inactive)
REMARK    1  A    between atoms: C_2  and  C_3
REMARK    2  A    between atoms: C_2  and  C_4
REMARK    3  A    between atoms: C_4  and  N_5
REMARK    4  A    between atoms: C_8  and  C_9
REMARK    5  A    between atoms: C_9  and  S_10
REMARK    6  A    between atoms: S_10  and  C_13
REMARK                            x       y       z     vdW  Elec       q    Type
REMARK                         _______ _______ _______ _____ _____    ______ ____
ROOT
ATOM      1  N   UNL     1       5.945   3.090  13.985  0.00  0.00    +0.000 N 
ATOM      2  C   UNL     1       6.193   3.906  15.033  0.00  0.00    +0.000 A 
ATOM      3  N   UNL     1       5.650   3.710  16.216  0.00  0.00    +0.000 NA
ATOM      4  C   UNL     1       6.013   4.706  17.110  0.00  0.00    +0.000 A 
ATOM      5  C   UNL     1       6.908   5.627  16.605  0.00  0.00    +0.000 A 
ATOM      6  S   UNL     1       7.245   5.278  14.970  0.00  0.00    +0.000 S 
ATOM      7  H   UNL     1       5.918   2.099  14.187  0.00  0.00    +0.000 HD
ENDROOT
BRANCH   1   8
ATOM      8  C   UNL     1       6.279   3.466  12.633  0.00  0.00    +0.000 C 
BRANCH   8  10
ATOM      9  C   UNL     1       6.016   1.467  11.168  0.00  0.00    +0.000 C 
ATOM     10  C   UNL     1       5.506   2.608  11.662  0.00  0.00    +0.000 C 
ATOM     11  C   UNL     1       4.176   3.135  11.195  0.00  0.00    +0.000 C 
ENDBRANCH   8  10
ENDBRANCH   1   8
BRANCH   4  12
ATOM     12  C   UNL     1       5.424   4.707  18.474  0.00  0.00    +0.000 C 
BRANCH  12  13
ATOM     13  S   UNL     1       3.882   5.585  18.562  0.00  0.00    +0.000 S 
ATOM     14  O   UNL     1       3.935   6.487  19.703  0.00  0.00    +0.000 OA
ATOM     15  O   UNL     1       3.585   6.109  17.240  0.00  0.00    +0.000 OA
BRANCH  13  16
ATOM     16  C   UNL     1       2.662   4.340  18.897  0.00  0.00    +0.000 A 
ATOM     17  C   UNL     1       2.535   3.239  18.049  0.00  0.00    +0.000 A 
ATOM     18  C   UNL     1       1.544   2.292  18.306  0.00  0.00    +0.000 A 
ATOM     19  C   UNL     1       0.691   2.450  19.400  0.00  0.00    +0.000 A 
ATOM     20  C   UNL     1       0.831   3.549  20.249  0.00  0.00    +0.000 A 
ATOM     21  C   UNL     1       1.823   4.495  20.006  0.00  0.00    +0.000 A 
ENDBRANCH  13  16
ENDBRANCH  12  13
ENDBRANCH   4  12
TORSDOF 5
ENDMDL
MODEL 2
REMARK VINA RESULT:      -6.8      0.300      1.118
REMARK  Name = 
REMARK  6 active torsions:
REMARK  status: ('A' for Active; 'I' for Inactive)
REMARK    1  A    between atoms: C_2  and  C_3
REMARK    2  A    between atoms: C_2  and  C_4
REMARK    3  A    between atoms: C_4  and  N_5
REMARK    4  A    between atoms: C_8  and  C_9
REMARK    5  A    between atoms: C_9  and  S_10
REMARK    6  A    between atoms: S_10  and  C_13
REMARK                            x       y       z     vdW  Elec       q    Type
REMARK                         _______ _______ _______ _____ _____    ______ ____
ROOT
ATOM      1  N   UNL     1       5.858   3.288  14.220  0.00  0.00    +0.000 N 
ATOM      2  C   UNL     1       6.118   4.065  15.293  0.00  0.00    +0.000 A 
ATOM      3  N   UNL     1       5.495   3.905  16.441  0.00  0.00    +0.000 NA
ATOM      4  C   UNL     1       5.894   4.855  17.370  0.00  0.00    +0.000 A 
ATOM      5  C   UNL     1       6.894   5.698  16.930  0.00  0.00    +0.000 A 
ATOM      6  S   UNL     1       7.289   5.339  15.310  0.00  0.00    +0.000 S 
ATOM      7  H   UNL     1       5.733   2.300  14.404  0.00  0.00    +0.000 HD
ENDROOT
BRANCH   1   8
ATOM      8  C   UNL     1       6.299   3.647  12.894  0.00  0.00    +0.000 C 
BRANCH   8  10
ATOM      9  C   UNL     1       6.075   1.716  11.335  0.00  0.00    +0.000 C 
ATOM     10  C   UNL     1       5.550   2.831  11.871  0.00  0.00    +0.000 C 
ATOM     11  C   UNL     1       4.225   3.373  11.403  0.00  0.00    +0.000 C 
ENDBRANCH   8  10
ENDBRANCH   1   8
BRANCH   4  12
ATOM     12  C   UNL     1       5.232   4.893  18.700  0.00  0.00    +0.000 C 
BRANCH  12  13
ATOM     13  S   UNL     1       3.657   5.713  18.666  0.00  0.00    +0.000 S 
ATOM     14  O   UNL     1       3.616   6.668  19.763  0.00  0.00    +0.000 OA
ATOM     15  O   UNL     1       3.411   6.162  17.307  0.00  0.00    +0.000 OA
BRANCH  13  16
ATOM     16  C   UNL     1       2.468   4.438  18.999  0.00  0.00    +0.000 A 
ATOM     17  C   UNL     1       1.783   4.420  20.216  0.00  0.00    +0.000 A 
ATOM     18  C   UNL     1       0.882   3.387  20.474  0.00  0.00    +0.000 A 
ATOM     19  C   UNL     1       0.672   2.386  19.524  0.00  0.00    +0.000 A 
ATOM     20  C   UNL     1       1.352   2.417  18.306  0.00  0.00    +0.000 A 
ATOM     21  C   UNL     1       2.248   3.449  18.035  0.00  0.00    +0.000 A 
ENDBRANCH  13  16
ENDBRANCH  12  13
ENDBRANCH   4  12
TORSDOF 5
ENDMDL
MODEL 3
REMARK VINA RESULT:      -6.6      2.321      3.507
REMARK  Name = 
REMARK  6 active torsions:
REMARK  status: ('A' for Active; 'I' for Inactive)
REMARK    1  A    between atoms: C_2  and  C_3
REMARK    2  A    between atoms: C_2  and  C_4
REMARK    3  A    between atoms: C_4  and  N_5
REMARK    4  A    between atoms: C_8  and  C_9
REMARK    5  A    between atoms: C_9  and  S_10
REMARK    6  A    between atoms: S_10  and  C_13
REMARK                            x       y       z     vdW  Elec       q    Type
REMARK                         _______ _______ _______ _____ _____    ______ ____
ROOT
ATOM      1  N   UNL     1       5.634   3.952  15.403  0.00  0.00    +0.000 N 
ATOM      2  C   UNL     1       5.425   3.961  16.738  0.00  0.00    +0.000 A 
ATOM      3  N   UNL     1       4.490   3.228  17.305  0.00  0.00    +0.000 NA
ATOM      4  C   UNL     1       4.435   3.450  18.673  0.00  0.00    +0.000 A 
ATOM      5  C   UNL     1       5.401   4.312  19.150  0.00  0.00    +0.000 A 
ATOM      6  S   UNL     1       6.345   4.904  17.859  0.00  0.00    +0.000 S 
ATOM      7  H   UNL     1       5.589   3.047  14.951  0.00  0.00    +0.000 HD
ENDROOT
BRANCH   1   8
ATOM      8  C   UNL     1       6.428   4.963  14.750  0.00  0.00    +0.000 C 
BRANCH   8  10
ATOM      9  C   UNL     1       6.104   3.504  12.756  0.00  0.00    +0.000 C 
ATOM     10  C   UNL     1       6.750   4.525  13.343  0.00  0.00    +0.000 C 
ATOM     11  C   UNL     1       7.895   5.222  12.657  0.00  0.00    +0.000 C 
ENDBRANCH   8  10
ENDBRANCH   1   8
BRANCH   4  12
ATOM     12  C   UNL     1       3.379   2.779  19.475  0.00  0.00    +0.000 C 
BRANCH  12  13
ATOM     13  S   UNL     1       1.754   3.422  19.156  0.00  0.00    +0.000 S 
ATOM     14  O   UNL     1       1.393   3.091  17.786  0.00  0.00    +0.000 OA
ATOM     15  O   UNL     1       0.887   3.020  20.250  0.00  0.00    +0.000 OA
BRANCH  13  16
ATOM     16  C   UNL     1       1.927   5.185  19.272  0.00  0.00    +0.000 A 
ATOM     17  C   UNL     1       1.742   5.828  20.497  0.00  0.00    +0.000 A 
ATOM     18  C   UNL     1       1.842   7.217  20.559  0.00  0.00    +0.000 A 
ATOM     19  C   UNL     1       2.124   7.952  19.406  0.00  0.00    +0.000 A 
ATOM     20  C   UNL     1       2.318   7.302  18.186  0.00  0.00    +0.000 A 
ATOM     21  C   UNL     1       2.228   5.913  18.116  0.00  0.00    +0.000 A 
ENDBRANCH  13  16
ENDBRANCH  12  13
ENDBRANCH   4  12
TORSDOF 5
ENDMDL
MODEL 4
REMARK VINA RESULT:      -6.6      2.319      3.374
REMARK  Name = 
REMARK  6 active torsions:
REMARK  status: ('A' for Active; 'I' for Inactive)
REMARK    1  A    between atoms: C_2  and  C_3
REMARK    2  A    between atoms: C_2  and  C_4
REMARK    3  A    between atoms: C_4  and  N_5
REMARK    4  A    between atoms: C_8  and  C_9
REMARK    5  A    between atoms: C_9  and  S_10
REMARK    6  A    between atoms: S_10  and  C_13
REMARK                            x       y       z     vdW  Elec       q    Type
REMARK                         _______ _______ _______ _____ _____    ______ ____
ROOT
ATOM      1  N   UNL     1       5.681   3.938  15.489  0.00  0.00    +0.000 N 
ATOM      2  C   UNL     1       5.451   3.970  16.820  0.00  0.00    +0.000 A 
ATOM      3  N   UNL     1       4.565   3.186  17.396  0.00  0.00    +0.000 NA
ATOM      4  C   UNL     1       4.471   3.443  18.755  0.00  0.00    +0.000 A 
ATOM      5  C   UNL     1       5.362   4.389  19.220  0.00  0.00    +0.000 A 
ATOM      6  S   UNL     1       6.280   5.012  17.924  0.00  0.00    +0.000 S 
ATOM      7  H   UNL     1       5.712   3.020  15.063  0.00  0.00    +0.000 HD
ENDROOT
BRANCH   1   8
ATOM      8  C   UNL     1       6.409   4.987  14.816  0.00  0.00    +0.000 C 
BRANCH   8  10
ATOM      9  C   UNL     1       6.099   3.535  12.815  0.00  0.00    +0.000 C 
ATOM     10  C   UNL     1       6.743   4.553  13.411  0.00  0.00    +0.000 C 
ATOM     11  C   UNL     1       7.898   5.247  12.739  0.00  0.00    +0.000 C 
ENDBRANCH   8  10
ENDBRANCH   1   8
BRANCH   4  12
ATOM     12  C   UNL     1       3.456   2.718  19.563  0.00  0.00    +0.000 C 
BRANCH  12  13
ATOM     13  S   UNL     1       1.801   3.298  19.276  0.00  0.00    +0.000 S 
ATOM     14  O   UNL     1       1.387   2.860  17.951  0.00  0.00    +0.000 OA
ATOM     15  O   UNL     1       0.995   2.956  20.435  0.00  0.00    +0.000 OA
BRANCH  13  16
ATOM     16  C   UNL     1       1.931   5.068  19.257  0.00  0.00    +0.000 A 
ATOM     17  C   UNL     1       2.178   5.740  18.058  0.00  0.00    +0.000 A 
ATOM     18  C   UNL     1       2.317   7.127  18.071  0.00  0.00    +0.000 A 
ATOM     19  C   UNL     1       2.210   7.831  19.272  0.00  0.00    +0.000 A 
ATOM     20  C   UNL     1       1.954   7.154  20.465  0.00  0.00    +0.000 A 
ATOM     21  C   UNL     1       1.805   5.769  20.461  0.00  0.00    +0.000 A 
ENDBRANCH  13  16
ENDBRANCH  12  13
ENDBRANCH   4  12
TORSDOF 5
ENDMDL
MODEL 5
REMARK VINA RESULT:      -6.6      1.293      1.489
REMARK  Name = 
REMARK  6 active torsions:
REMARK  status: ('A' for Active; 'I' for Inactive)
REMARK    1  A    between atoms: C_2  and  C_3
REMARK    2  A    between atoms: C_2  and  C_4
REMARK    3  A    between atoms: C_4  and  N_5
REMARK    4  A    between atoms: C_8  and  C_9
REMARK    5  A    between atoms: C_9  and  S_10
REMARK    6  A    between atoms: S_10  and  C_13
REMARK                            x       y       z     vdW  Elec       q    Type
REMARK                         _______ _______ _______ _____ _____    ______ ____
ROOT
ATOM      1  N   UNL     1       5.263   3.962  13.715  0.00  0.00    +0.000 N 
ATOM      2  C   UNL     1       5.607   4.585  14.863  0.00  0.00    +0.000 A 
ATOM      3  N   UNL     1       4.721   5.193  15.623  0.00  0.00    +0.000 NA
ATOM      4  C   UNL     1       5.323   5.802  16.714  0.00  0.00    +0.000 A 
ATOM      5  C   UNL     1       6.681   5.580  16.813  0.00  0.00    +0.000 A 
ATOM      6  S   UNL     1       7.220   4.656  15.485  0.00  0.00    +0.000 S 
ATOM      7  H   UNL     1       4.408   3.420  13.740  0.00  0.00    +0.000 HD
ENDROOT
BRANCH   1   8
ATOM      8  C   UNL     1       6.247   3.571  12.736  0.00  0.00    +0.000 C 
BRANCH   8  10
ATOM      9  C   UNL     1       6.266   1.616  11.191  0.00  0.00    +0.000 C 
ATOM     10  C   UNL     1       5.610   2.669  11.708  0.00  0.00    +0.000 C 
ATOM     11  C   UNL     1       4.242   3.057  11.215  0.00  0.00    +0.000 C 
ENDBRANCH   8  10
ENDBRANCH   1   8
BRANCH   4  12
ATOM     12  C   UNL     1       4.494   6.616  17.640  0.00  0.00    +0.000 C 
BRANCH  12  13
ATOM     13  S   UNL     1       4.169   5.796  19.182  0.00  0.00    +0.000 S 
ATOM     14  O   UNL     1       5.444   5.476  19.806  0.00  0.00    +0.000 OA
ATOM     15  O   UNL     1       3.184   6.576  19.910  0.00  0.00    +0.000 OA
BRANCH  13  16
ATOM     16  C   UNL     1       3.375   4.273  18.734  0.00  0.00    +0.000 A 
ATOM     17  C   UNL     1       4.121   3.096  18.638  0.00  0.00    +0.000 A 
ATOM     18  C   UNL     1       3.487   1.918  18.246  0.00  0.00    +0.000 A 
ATOM     19  C   UNL     1       2.121   1.922  17.953  0.00  0.00    +0.000 A 
ATOM     20  C   UNL     1       1.380   3.099  18.061  0.00  0.00    +0.000 A 
ATOM     21  C   UNL     1       2.003   4.279  18.461  0.00  0.00    +0.000 A 
ENDBRANCH  13  16
ENDBRANCH  12  13
ENDBRANCH   4  12
TORSDOF 5
ENDMDL
MODEL 6
REMARK VINA RESULT:      -6.6      1.737      2.260
REMARK  Name = 
REMARK  6 active torsions:
REMARK  status: ('A' for Active; 'I' for Inactive)
REMARK    1  A    between atoms: C_2  and  C_3
REMARK    2  A    between atoms: C_2  and  C_4
REMARK    3  A    between atoms: C_4  and  N_5
REMARK    4  A    between atoms: C_8  and  C_9
REMARK    5  A    between atoms: C_9  and  S_10
REMARK    6  A    between atoms: S_10  and  C_13
REMARK                            x       y       z     vdW  Elec       q    Type
REMARK                         _______ _______ _______ _____ _____    ______ ____
ROOT
ATOM      1  N   UNL     1       6.609   3.616  13.820  0.00  0.00    +0.000 N 
ATOM      2  C   UNL     1       6.214   4.285  14.925  0.00  0.00    +0.000 A 
ATOM      3  N   UNL     1       6.339   3.777  16.133  0.00  0.00    +0.000 NA
ATOM      4  C   UNL     1       5.813   4.626  17.095  0.00  0.00    +0.000 A 
ATOM      5  C   UNL     1       5.352   5.830  16.602  0.00  0.00    +0.000 A 
ATOM      6  S   UNL     1       5.518   5.869  14.905  0.00  0.00    +0.000 S 
ATOM      7  H   UNL     1       7.488   3.118  13.890  0.00  0.00    +0.000 HD
ENDROOT
BRANCH   1   8
ATOM      8  C   UNL     1       6.200   4.022  12.497  0.00  0.00    +0.000 C 
BRANCH   8  10
ATOM      9  C   UNL     1       6.037   1.714  11.570  0.00  0.00    +0.000 C 
ATOM     10  C   UNL     1       5.451   2.895  11.830  0.00  0.00    +0.000 C 
ATOM     11  C   UNL     1       4.044   3.184  11.380  0.00  0.00    +0.000 C 
ENDBRANCH   8  10
ENDBRANCH   1   8
BRANCH   4  12
ATOM     12  C   UNL     1       5.780   4.184  18.513  0.00  0.00    +0.000 C 
BRANCH  12  13
ATOM     13  S   UNL     1       4.430   3.083  18.863  0.00  0.00    +0.000 S 
ATOM     14  O   UNL     1       3.965   2.516  17.606  0.00  0.00    +0.000 OA
ATOM     15  O   UNL     1       4.834   2.204  19.946  0.00  0.00    +0.000 OA
BRANCH  13  16
ATOM     16  C   UNL     1       3.145   4.122  19.510  0.00  0.00    +0.000 A 
ATOM     17  C   UNL     1       3.342   5.501  19.608  0.00  0.00    +0.000 A 
ATOM     18  C   UNL     1       2.335   6.295  20.157  0.00  0.00    +0.000 A 
ATOM     19  C   UNL     1       1.147   5.712  20.601  0.00  0.00    +0.000 A 
ATOM     20  C   UNL     1       0.953   4.335  20.490  0.00  0.00    +0.000 A 
ATOM     21  C   UNL     1       1.949   3.534  19.936  0.00  0.00    +0.000 A 
ENDBRANCH  13  16
ENDBRANCH  12  13
ENDBRANCH   4  12
TORSDOF 5
ENDMDL
MODEL 7
REMARK VINA RESULT:      -6.5      2.170      6.867
REMARK  Name = 
REMARK  6 active torsions:
REMARK  status: ('A' for Active; 'I' for Inactive)
REMARK    1  A    between atoms: C_2  and  C_3
REMARK    2  A    between atoms: C_2  and  C_4
REMARK    3  A    between atoms: C_4  and  N_5
REMARK    4  A    between atoms: C_8  and  C_9
REMARK    5  A    between atoms: C_9  and  S_10
REMARK    6  A    between atoms: S_10  and  C_13
REMARK                            x       y       z     vdW  Elec       q    Type
REMARK                         _______ _______ _______ _____ _____    ______ ____
ROOT
ATOM      1  N   UNL     1       3.168   2.774  18.260  0.00  0.00    +0.000 N 
ATOM      2  C   UNL     1       3.865   3.885  17.932  0.00  0.00    +0.000 A 
ATOM      3  N   UNL     1       4.187   4.167  16.688  0.00  0.00    +0.000 NA
ATOM      4  C   UNL     1       4.945   5.326  16.613  0.00  0.00    +0.000 A 
ATOM      5  C   UNL     1       5.130   5.965  17.821  0.00  0.00    +0.000 A 
ATOM      6  S   UNL     1       4.403   5.067  19.075  0.00  0.00    +0.000 S 
ATOM      7  H   UNL     1       2.400   2.532  17.646  0.00  0.00    +0.000 HD
ENDROOT
BRANCH   1   8
ATOM      8  C   UNL     1       3.081   2.304  19.621  0.00  0.00    +0.000 C 
BRANCH   8  10
ATOM      9  C   UNL     1       1.543   2.862  21.501  0.00  0.00    +0.000 C 
ATOM     10  C   UNL     1       1.724   2.638  20.188  0.00  0.00    +0.000 C 
ATOM     11  C   UNL     1       0.561   2.615  19.233  0.00  0.00    +0.000 C 
ENDBRANCH   8  10
ENDBRANCH   1   8
BRANCH   4  12
ATOM     12  C   UNL     1       5.482   5.757  15.296  0.00  0.00    +0.000 C 
BRANCH  12  13
ATOM     13  S   UNL     1       6.849   4.765  14.747  0.00  0.00    +0.000 S 
ATOM     14  O   UNL     1       7.917   5.655  14.318  0.00  0.00    +0.000 OA
ATOM     15  O   UNL     1       7.112   3.758  15.761  0.00  0.00    +0.000 OA
BRANCH  13  16
ATOM     16  C   UNL     1       6.245   3.898  13.321  0.00  0.00    +0.000 A 
ATOM     17  C   UNL     1       4.886   3.935  13.003  0.00  0.00    +0.000 A 
ATOM     18  C   UNL     1       4.425   3.215  11.901  0.00  0.00    +0.000 A 
ATOM     19  C   UNL     1       5.317   2.467  11.130  0.00  0.00    +0.000 A 
ATOM     20  C   UNL     1       6.675   2.443  11.448  0.00  0.00    +0.000 A 
ATOM     21  C   UNL     1       7.147   3.166  12.541  0.00  0.00    +0.000 A 
ENDBRANCH  13  16
ENDBRANCH  12  13
ENDBRANCH   4  12
TORSDOF 5
ENDMDL
MODEL 8
REMARK VINA RESULT:      -6.5      2.088      2.947
REMARK  Name = 
REMARK  6 active torsions:
REMARK  status: ('A' for Active; 'I' for Inactive)
REMARK    1  A    between atoms: C_2  and  C_3
REMARK    2  A    between atoms: C_2  and  C_4
REMARK    3  A    between atoms: C_4  and  N_5
REMARK    4  A    between atoms: C_8  and  C_9
REMARK    5  A    between atoms: C_9  and  S_10
REMARK    6  A    between atoms: S_10  and  C_13
REMARK                            x       y       z     vdW  Elec       q    Type
REMARK                         _______ _______ _______ _____ _____    ______ ____
ROOT
ATOM      1  N   UNL     1       5.834   3.346  14.549  0.00  0.00    +0.000 N 
ATOM      2  C   UNL     1       5.842   4.005  15.729  0.00  0.00    +0.000 A 
ATOM      3  N   UNL     1       5.234   3.536  16.797  0.00  0.00    +0.000 NA
ATOM      4  C   UNL     1       5.338   4.414  17.865  0.00  0.00    +0.000 A 
ATOM      5  C   UNL     1       6.105   5.533  17.610  0.00  0.00    +0.000 A 
ATOM      6  S   UNL     1       6.646   5.514  15.993  0.00  0.00    +0.000 S 
ATOM      7  H   UNL     1       5.959   2.342  14.598  0.00  0.00    +0.000 HD
ENDROOT
BRANCH   1   8
ATOM      8  C   UNL     1       6.222   3.986  13.316  0.00  0.00    +0.000 C 
BRANCH   8  10
ATOM      9  C   UNL     1       6.692   2.318  11.526  0.00  0.00    +0.000 C 
ATOM     10  C   UNL     1       5.815   3.125  12.147  0.00  0.00    +0.000 C 
ATOM     11  C   UNL     1       4.405   3.281  11.643  0.00  0.00    +0.000 C 
ENDBRANCH   8  10
ENDBRANCH   1   8
BRANCH   4  12
ATOM     12  C   UNL     1       4.634   4.099  19.135  0.00  0.00    +0.000 C 
BRANCH  12  13
ATOM     13  S   UNL     1       2.866   4.195  18.990  0.00  0.00    +0.000 S 
ATOM     14  O   UNL     1       2.492   3.736  17.661  0.00  0.00    +0.000 OA
ATOM     15  O   UNL     1       2.282   3.568  20.163  0.00  0.00    +0.000 OA
BRANCH  13  16
ATOM     16  C   UNL     1       2.489   5.926  19.104  0.00  0.00    +0.000 A 
ATOM     17  C   UNL     1       2.057   6.471  20.314  0.00  0.00    +0.000 A 
ATOM     18  C   UNL     1       1.727   7.824  20.373  0.00  0.00    +0.000 A 
ATOM     19  C   UNL     1       1.829   8.620  19.230  0.00  0.00    +0.000 A 
ATOM     20  C   UNL     1       2.271   8.071  18.026  0.00  0.00    +0.000 A 
ATOM     21  C   UNL     1       2.612   6.722  17.960  0.00  0.00    +0.000 A 
ENDBRANCH  13  16
ENDBRANCH  12  13
ENDBRANCH   4  12
TORSDOF 5
ENDMDL
MODEL 9
REMARK VINA RESULT:      -6.4      3.924      7.985
REMARK  Name = 
REMARK  6 active torsions:
REMARK  status: ('A' for Active; 'I' for Inactive)
REMARK    1  A    between atoms: C_2  and  C_3
REMARK    2  A    between atoms: C_2  and  C_4
REMARK    3  A    between atoms: C_4  and  N_5
REMARK    4  A    between atoms: C_8  and  C_9
REMARK    5  A    between atoms: C_9  and  S_10
REMARK    6  A    between atoms: S_10  and  C_13
REMARK                            x       y       z     vdW  Elec       q    Type
REMARK                         _______ _______ _______ _____ _____    ______ ____
ROOT
ATOM      1  N   UNL     1       1.385   8.041  21.510  0.00  0.00    +0.000 N 
ATOM      2  C   UNL     1       1.814   7.504  20.347  0.00  0.00    +0.000 A 
ATOM      3  N   UNL     1       2.095   6.223  20.229  0.00  0.00    +0.000 NA
ATOM      4  C   UNL     1       2.567   5.925  18.960  0.00  0.00    +0.000 A 
ATOM      5  C   UNL     1       2.568   6.992  18.086  0.00  0.00    +0.000 A 
ATOM      6  S   UNL     1       2.036   8.402  18.885  0.00  0.00    +0.000 S 
ATOM      7  H   UNL     1       0.710   7.495  22.031  0.00  0.00    +0.000 HD
ENDROOT
BRANCH   1   8
ATOM      8  C   UNL     1       1.374   9.466  21.732  0.00  0.00    +0.000 C 
BRANCH   8  10
ATOM      9  C   UNL     1      -0.722   9.988  22.976  0.00  0.00    +0.000 C 
ATOM     10  C   UNL     1      -0.051   9.957  21.812  0.00  0.00    +0.000 C 
ATOM     11  C   UNL     1      -0.721  10.320  20.514  0.00  0.00    +0.000 C 
ENDBRANCH   8  10
ENDBRANCH   1   8
BRANCH   4  12
ATOM     12  C   UNL     1       3.023   4.542  18.662  0.00  0.00    +0.000 C 
BRANCH  12  13
ATOM     13  S   UNL     1       4.767   4.318  18.922  0.00  0.00    +0.000 S 
ATOM     14  O   UNL     1       5.257   5.435  19.715  0.00  0.00    +0.000 OA
ATOM     15  O   UNL     1       4.984   2.957  19.379  0.00  0.00    +0.000 OA
BRANCH  13  16
ATOM     16  C   UNL     1       5.490   4.429  17.305  0.00  0.00    +0.000 A 
ATOM     17  C   UNL     1       4.700   4.239  16.169  0.00  0.00    +0.000 A 
ATOM     18  C   UNL     1       5.296   4.290  14.910  0.00  0.00    +0.000 A 
ATOM     19  C   UNL     1       6.667   4.527  14.791  0.00  0.00    +0.000 A 
ATOM     20  C   UNL     1       7.448   4.725  15.930  0.00  0.00    +0.000 A 
ATOM     21  C   UNL     1       6.861   4.685  17.192  0.00  0.00    +0.000 A 
ENDBRANCH  13  16
ENDBRANCH  12  13
ENDBRANCH   4  12
TORSDOF 5
ENDMDL
