MODEL 1
REMARK VINA RESULT:      -8.4      0.000      0.000
REMARK  Name = 
REMARK  4 active torsions:
REMARK  status: ('A' for Active; 'I' for Inactive)
REMARK    1  A    between atoms: C_4  and  C_5
REMARK    2  A    between atoms: C_5  and  O_6
REMARK    3  A    between atoms: O_6  and  C_7
REMARK    4  A    between atoms: C_10  and  C_11
REMARK                            x       y       z     vdW  Elec       q    Type
REMARK                         _______ _______ _______ _____ _____    ______ ____
ROOT
ATOM      1  C   UNL     1       3.665   6.102  17.879  0.00  0.00    +0.000 A 
ATOM      2  N   UNL     1       2.772   5.353  18.460  0.00  0.00    +0.000 NA
ATOM      3  N   UNL     1       2.906   4.011  18.222  0.00  0.00    +0.000 N 
ATOM      4  C   UNL     1       2.168   2.968  18.736  0.00  0.00    +0.000 A 
ATOM      5  N   UNL     1       2.641   1.827  18.273  0.00  0.00    +0.000 NA
ATOM      6  N   UNL     1       3.684   2.110  17.420  0.00  0.00    +0.000 NA
ATOM      7  C   UNL     1       3.833   3.417  17.402  0.00  0.00    +0.000 A 
ATOM      8  C   UNL     1       4.824   4.237  16.750  0.00  0.00    +0.000 A 
ATOM      9  C   UNL     1       5.780   3.696  15.884  0.00  0.00    +0.000 A 
ATOM     10  C   UNL     1       6.770   4.513  15.346  0.00  0.00    +0.000 A 
ATOM     11  C   UNL     1       6.858   5.844  15.742  0.00  0.00    +0.000 A 
ATOM     12  C   UNL     1       5.928   6.371  16.643  0.00  0.00    +0.000 A 
ATOM     13  C   UNL     1       4.838   5.602  17.071  0.00  0.00    +0.000 A 
ENDROOT
BRANCH   4  14
ATOM     14  C   UNL     1       0.995   3.082  19.700  0.00  0.00    +0.000 C 
ATOM     15  C   UNL     1       1.263   2.894  21.183  0.00  0.00    +0.000 C 
ATOM     16  C   UNL     1       0.975   4.257  20.658  0.00  0.00    +0.000 C 
ENDBRANCH   4  14
BRANCH   1  17
ATOM     17  O   UNL     1       3.471   7.440  18.032  0.00  0.00    +0.000 OA
BRANCH  17  18
ATOM     18  C   UNL     1       2.178   8.077  17.907  0.00  0.00    +0.000 C 
BRANCH  18  22
ATOM     19  C   UNL     1       0.676   9.919  21.421  0.00  0.00    +0.000 A 
ATOM     20  C   UNL     1       1.189   8.633  21.529  0.00  0.00    +0.000 A 
ATOM     21  C   UNL     1       1.690   7.992  20.396  0.00  0.00    +0.000 A 
ATOM     22  C   UNL     1       1.643   8.666  19.184  0.00  0.00    +0.000 A 
ATOM     23  N   UNL     1       1.166   9.935  19.070  0.00  0.00    +0.000 NA
ATOM     24  C   UNL     1       0.690  10.528  20.182  0.00  0.00    +0.000 A 
ENDBRANCH  18  22
ENDBRANCH  17  18
ENDBRANCH   1  17
TORSDOF 4
ENDMDL
MODEL 2
REMARK VINA RESULT:      -8.3      3.442      5.954
REMARK  Name = 
REMARK  4 active torsions:
REMARK  status: ('A' for Active; 'I' for Inactive)
REMARK    1  A    between atoms: C_4  and  C_5
REMARK    2  A    between atoms: C_5  and  O_6
REMARK    3  A    between atoms: O_6  and  C_7
REMARK    4  A    between atoms: C_10  and  C_11
REMARK                            x       y       z     vdW  Elec       q    Type
REMARK                         _______ _______ _______ _____ _____    ______ ____
ROOT
ATOM      1  C   UNL     1       5.148   3.600  16.580  0.00  0.00    +0.000 A 
ATOM      2  N   UNL     1       5.197   3.340  15.305  0.00  0.00    +0.000 NA
ATOM      3  N   UNL     1       6.129   4.062  14.608  0.00  0.00    +0.000 N 
ATOM      4  C   UNL     1       6.465   3.973  13.275  0.00  0.00    +0.000 A 
ATOM      5  N   UNL     1       7.434   4.829  13.010  0.00  0.00    +0.000 NA
ATOM      6  N   UNL     1       7.727   5.516  14.166  0.00  0.00    +0.000 NA
ATOM      7  C   UNL     1       6.943   5.046  15.112  0.00  0.00    +0.000 A 
ATOM      8  C   UNL     1       6.894   5.346  16.522  0.00  0.00    +0.000 A 
ATOM      9  C   UNL     1       7.679   6.352  17.093  0.00  0.00    +0.000 A 
ATOM     10  C   UNL     1       7.662   6.548  18.471  0.00  0.00    +0.000 A 
ATOM     11  C   UNL     1       6.933   5.683  19.282  0.00  0.00    +0.000 A 
ATOM     12  C   UNL     1       6.185   4.650  18.712  0.00  0.00    +0.000 A 
ATOM     13  C   UNL     1       6.071   4.539  17.320  0.00  0.00    +0.000 A 
ENDROOT
BRANCH   4  14
ATOM     14  C   UNL     1       5.845   3.035  12.249  0.00  0.00    +0.000 C 
ATOM     15  C   UNL     1       4.388   3.242  11.873  0.00  0.00    +0.000 C 
ATOM     16  C   UNL     1       5.454   3.614  10.902  0.00  0.00    +0.000 C 
ENDBRANCH   4  14
BRANCH   1  17
ATOM     17  O   UNL     1       4.154   2.960  17.253  0.00  0.00    +0.000 OA
BRANCH  17  18
ATOM     18  C   UNL     1       2.878   3.568  17.558  0.00  0.00    +0.000 C 
BRANCH  18  22
ATOM     19  C   UNL     1       1.812   3.073  21.635  0.00  0.00    +0.000 A 
ATOM     20  C   UNL     1       0.941   3.781  20.815  0.00  0.00    +0.000 A 
ATOM     21  C   UNL     1       1.257   3.969  19.471  0.00  0.00    +0.000 A 
ATOM     22  C   UNL     1       2.452   3.445  18.997  0.00  0.00    +0.000 A 
ATOM     23  N   UNL     1       3.300   2.727  19.782  0.00  0.00    +0.000 NA
ATOM     24  C   UNL     1       2.967   2.563  21.077  0.00  0.00    +0.000 A 
ENDBRANCH  18  22
ENDBRANCH  17  18
ENDBRANCH   1  17
TORSDOF 4
ENDMDL
MODEL 3
REMARK VINA RESULT:      -8.2      0.648      1.039
REMARK  Name = 
REMARK  4 active torsions:
REMARK  status: ('A' for Active; 'I' for Inactive)
REMARK    1  A    between atoms: C_4  and  C_5
REMARK    2  A    between atoms: C_5  and  O_6
REMARK    3  A    between atoms: O_6  and  C_7
REMARK    4  A    between atoms: C_10  and  C_11
REMARK                            x       y       z     vdW  Elec       q    Type
REMARK                         _______ _______ _______ _____ _____    ______ ____
ROOT
ATOM      1  C   UNL     1       3.693   6.006  17.924  0.00  0.00    +0.000 A 
ATOM      2  N   UNL     1       2.876   5.279  18.630  0.00  0.00    +0.000 NA
ATOM      3  N   UNL     1       2.976   3.929  18.416  0.00  0.00    +0.000 N 
ATOM      4  C   UNL     1       2.304   2.906  19.046  0.00  0.00    +0.000 A 
ATOM      5  N   UNL     1       2.715   1.749  18.562  0.00  0.00    +0.000 NA
ATOM      6  N   UNL     1       3.646   2.002  17.581  0.00  0.00    +0.000 NA
ATOM      7  C   UNL     1       3.795   3.307  17.507  0.00  0.00    +0.000 A 
ATOM      8  C   UNL     1       4.701   4.103  16.716  0.00  0.00    +0.000 A 
ATOM      9  C   UNL     1       5.543   3.531  15.756  0.00  0.00    +0.000 A 
ATOM     10  C   UNL     1       6.462   4.327  15.078  0.00  0.00    +0.000 A 
ATOM     11  C   UNL     1       6.601   5.669  15.422  0.00  0.00    +0.000 A 
ATOM     12  C   UNL     1       5.789   6.226  16.413  0.00  0.00    +0.000 A 
ATOM     13  C   UNL     1       4.758   5.476  16.993  0.00  0.00    +0.000 A 
ENDROOT
BRANCH   4  14
ATOM     14  C   UNL     1       1.258   3.054  20.143  0.00  0.00    +0.000 C 
ATOM     15  C   UNL     1       1.610   2.578  21.541  0.00  0.00    +0.000 C 
ATOM     16  C   UNL     1       1.536   4.039  21.262  0.00  0.00    +0.000 C 
ENDBRANCH   4  14
BRANCH   1  17
ATOM     17  O   UNL     1       3.522   7.349  18.060  0.00  0.00    +0.000 OA
BRANCH  17  18
ATOM     18  C   UNL     1       2.286   8.031  17.741  0.00  0.00    +0.000 C 
BRANCH  18  22
ATOM     19  C   UNL     1       0.468   9.823  21.129  0.00  0.00    +0.000 A 
ATOM     20  C   UNL     1       0.328  10.459  19.902  0.00  0.00    +0.000 A 
ATOM     21  C   UNL     1       0.913   9.903  18.765  0.00  0.00    +0.000 A 
ATOM     22  C   UNL     1       1.636   8.727  18.906  0.00  0.00    +0.000 A 
ATOM     23  N   UNL     1       1.759   8.081  20.097  0.00  0.00    +0.000 NA
ATOM     24  C   UNL     1       1.182   8.642  21.177  0.00  0.00    +0.000 A 
ENDBRANCH  18  22
ENDBRANCH  17  18
ENDBRANCH   1  17
TORSDOF 4
ENDMDL
MODEL 4
REMARK VINA RESULT:      -8.2      2.119      6.011
REMARK  Name = 
REMARK  4 active torsions:
REMARK  status: ('A' for Active; 'I' for Inactive)
REMARK    1  A    between atoms: C_4  and  C_5
REMARK    2  A    between atoms: C_5  and  O_6
REMARK    3  A    between atoms: O_6  and  C_7
REMARK    4  A    between atoms: C_10  and  C_11
REMARK                            x       y       z     vdW  Elec       q    Type
REMARK                         _______ _______ _______ _____ _____    ______ ____
ROOT
ATOM      1  C   UNL     1       3.405   5.161  18.094  0.00  0.00    +0.000 A 
ATOM      2  N   UNL     1       3.010   6.399  18.009  0.00  0.00    +0.000 NA
ATOM      3  N   UNL     1       2.352   6.868  19.115  0.00  0.00    +0.000 N 
ATOM      4  C   UNL     1       1.873   8.136  19.357  0.00  0.00    +0.000 A 
ATOM      5  N   UNL     1       1.327   8.176  20.558  0.00  0.00    +0.000 NA
ATOM      6  N   UNL     1       1.415   6.919  21.110  0.00  0.00    +0.000 NA
ATOM      7  C   UNL     1       2.032   6.149  20.240  0.00  0.00    +0.000 A 
ATOM      8  C   UNL     1       2.460   4.776  20.342  0.00  0.00    +0.000 A 
ATOM      9  C   UNL     1       2.144   3.983  21.451  0.00  0.00    +0.000 A 
ATOM     10  C   UNL     1       2.653   2.690  21.546  0.00  0.00    +0.000 A 
ATOM     11  C   UNL     1       3.544   2.226  20.582  0.00  0.00    +0.000 A 
ATOM     12  C   UNL     1       3.891   3.037  19.499  0.00  0.00    +0.000 A 
ATOM     13  C   UNL     1       3.269   4.278  19.312  0.00  0.00    +0.000 A 
ENDROOT
BRANCH   4  14
ATOM     14  C   UNL     1       1.958   9.329  18.414  0.00  0.00    +0.000 C 
ATOM     15  C   UNL     1       0.686   9.796  17.729  0.00  0.00    +0.000 C 
ATOM     16  C   UNL     1       1.267  10.614  18.830  0.00  0.00    +0.000 C 
ENDBRANCH   4  14
BRANCH   1  17
ATOM     17  O   UNL     1       3.966   4.664  16.958  0.00  0.00    +0.000 OA
BRANCH  17  18
ATOM     18  C   UNL     1       5.352   4.263  16.863  0.00  0.00    +0.000 C 
BRANCH  18  22
ATOM     19  C   UNL     1       8.108   6.938  18.666  0.00  0.00    +0.000 A 
ATOM     20  C   UNL     1       7.469   7.348  17.502  0.00  0.00    +0.000 A 
ATOM     21  C   UNL     1       6.559   6.496  16.877  0.00  0.00    +0.000 A 
ATOM     22  C   UNL     1       6.331   5.249  17.442  0.00  0.00    +0.000 A 
ATOM     23  N   UNL     1       6.931   4.846  18.595  0.00  0.00    +0.000 NA
ATOM     24  C   UNL     1       7.804   5.692  19.175  0.00  0.00    +0.000 A 
ENDBRANCH  18  22
ENDBRANCH  17  18
ENDBRANCH   1  17
TORSDOF 4
ENDMDL
MODEL 5
REMARK VINA RESULT:      -8.2      3.020      5.411
REMARK  Name = 
REMARK  4 active torsions:
REMARK  status: ('A' for Active; 'I' for Inactive)
REMARK    1  A    between atoms: C_4  and  C_5
REMARK    2  A    between atoms: C_5  and  O_6
REMARK    3  A    between atoms: O_6  and  C_7
REMARK    4  A    between atoms: C_10  and  C_11
REMARK                            x       y       z     vdW  Elec       q    Type
REMARK                         _______ _______ _______ _____ _____    ______ ____
ROOT
ATOM      1  C   UNL     1       5.029   3.676  16.718  0.00  0.00    +0.000 A 
ATOM      2  N   UNL     1       5.057   3.392  15.448  0.00  0.00    +0.000 NA
ATOM      3  N   UNL     1       6.010   4.065  14.730  0.00  0.00    +0.000 N 
ATOM      4  C   UNL     1       6.330   3.940  13.397  0.00  0.00    +0.000 A 
ATOM      5  N   UNL     1       7.328   4.754  13.108  0.00  0.00    +0.000 NA
ATOM      6  N   UNL     1       7.657   5.449  14.249  0.00  0.00    +0.000 NA
ATOM      7  C   UNL     1       6.865   5.026  15.210  0.00  0.00    +0.000 A 
ATOM      8  C   UNL     1       6.839   5.353  16.614  0.00  0.00    +0.000 A 
ATOM      9  C   UNL     1       7.667   6.339  17.160  0.00  0.00    +0.000 A 
ATOM     10  C   UNL     1       7.670   6.559  18.535  0.00  0.00    +0.000 A 
ATOM     11  C   UNL     1       6.916   5.737  19.368  0.00  0.00    +0.000 A 
ATOM     12  C   UNL     1       6.124   4.724  18.822  0.00  0.00    +0.000 A 
ATOM     13  C   UNL     1       5.993   4.592  17.434  0.00  0.00    +0.000 A 
ENDROOT
BRANCH   4  14
ATOM     14  C   UNL     1       5.666   3.008  12.392  0.00  0.00    +0.000 C 
ATOM     15  C   UNL     1       4.302   3.393  11.847  0.00  0.00    +0.000 C 
ATOM     16  C   UNL     1       5.499   3.502  10.968  0.00  0.00    +0.000 C 
ENDBRANCH   4  14
BRANCH   1  17
ATOM     17  O   UNL     1       4.017   3.086  17.410  0.00  0.00    +0.000 OA
BRANCH  17  18
ATOM     18  C   UNL     1       2.668   3.607  17.450  0.00  0.00    +0.000 C 
BRANCH  18  22
ATOM     19  C   UNL     1       1.927   6.536  20.428  0.00  0.00    +0.000 A 
ATOM     20  C   UNL     1       2.394   6.967  19.192  0.00  0.00    +0.000 A 
ATOM     21  C   UNL     1       2.652   6.035  18.188  0.00  0.00    +0.000 A 
ATOM     22  C   UNL     1       2.444   4.692  18.468  0.00  0.00    +0.000 A 
ATOM     23  N   UNL     1       1.964   4.259  19.665  0.00  0.00    +0.000 NA
ATOM     24  C   UNL     1       1.723   5.184  20.614  0.00  0.00    +0.000 A 
ENDBRANCH  18  22
ENDBRANCH  17  18
ENDBRANCH   1  17
TORSDOF 4
ENDMDL
MODEL 6
REMARK VINA RESULT:      -8.2      2.176      5.865
REMARK  Name = 
REMARK  4 active torsions:
REMARK  status: ('A' for Active; 'I' for Inactive)
REMARK    1  A    between atoms: C_4  and  C_5
REMARK    2  A    between atoms: C_5  and  O_6
REMARK    3  A    between atoms: O_6  and  C_7
REMARK    4  A    between atoms: C_10  and  C_11
REMARK                            x       y       z     vdW  Elec       q    Type
REMARK                         _______ _______ _______ _____ _____    ______ ____
ROOT
ATOM      1  C   UNL     1       3.431   5.270  18.040  0.00  0.00    +0.000 A 
ATOM      2  N   UNL     1       3.012   6.501  17.965  0.00  0.00    +0.000 NA
ATOM      3  N   UNL     1       2.340   6.948  19.072  0.00  0.00    +0.000 N 
ATOM      4  C   UNL     1       1.836   8.204  19.323  0.00  0.00    +0.000 A 
ATOM      5  N   UNL     1       1.284   8.223  20.521  0.00  0.00    +0.000 NA
ATOM      6  N   UNL     1       1.395   6.962  21.063  0.00  0.00    +0.000 NA
ATOM      7  C   UNL     1       2.030   6.213  20.189  0.00  0.00    +0.000 A 
ATOM      8  C   UNL     1       2.484   4.847  20.282  0.00  0.00    +0.000 A 
ATOM      9  C   UNL     1       2.180   4.039  21.382  0.00  0.00    +0.000 A 
ATOM     10  C   UNL     1       2.713   2.755  21.468  0.00  0.00    +0.000 A 
ATOM     11  C   UNL     1       3.617   2.317  20.505  0.00  0.00    +0.000 A 
ATOM     12  C   UNL     1       3.953   3.144  19.430  0.00  0.00    +0.000 A 
ATOM     13  C   UNL     1       3.307   4.374  19.250  0.00  0.00    +0.000 A 
ENDROOT
BRANCH   4  14
ATOM     14  C   UNL     1       1.901   9.406  18.390  0.00  0.00    +0.000 C 
ATOM     15  C   UNL     1       0.606   9.916  17.783  0.00  0.00    +0.000 C 
ATOM     16  C   UNL     1       1.270  10.703  18.859  0.00  0.00    +0.000 C 
ENDBRANCH   4  14
BRANCH   1  17
ATOM     17  O   UNL     1       4.006   4.794  16.903  0.00  0.00    +0.000 OA
BRANCH  17  18
ATOM     18  C   UNL     1       5.082   5.470  16.212  0.00  0.00    +0.000 C 
BRANCH  18  22
ATOM     19  C   UNL     1       8.204   7.057  18.605  0.00  0.00    +0.000 A 
ATOM     20  C   UNL     1       7.815   5.742  18.830  0.00  0.00    +0.000 A 
ATOM     21  C   UNL     1       6.790   5.185  18.067  0.00  0.00    +0.000 A 
ATOM     22  C   UNL     1       6.180   5.979  17.106  0.00  0.00    +0.000 A 
ATOM     23  N   UNL     1       6.569   7.259  16.858  0.00  0.00    +0.000 NA
ATOM     24  C   UNL     1       7.562   7.769  17.612  0.00  0.00    +0.000 A 
ENDBRANCH  18  22
ENDBRANCH  17  18
ENDBRANCH   1  17
TORSDOF 4
ENDMDL
MODEL 7
REMARK VINA RESULT:      -8.1      2.922      5.139
REMARK  Name = 
REMARK  4 active torsions:
REMARK  status: ('A' for Active; 'I' for Inactive)
REMARK    1  A    between atoms: C_4  and  C_5
REMARK    2  A    between atoms: C_5  and  O_6
REMARK    3  A    between atoms: O_6  and  C_7
REMARK    4  A    between atoms: C_10  and  C_11
REMARK                            x       y       z     vdW  Elec       q    Type
REMARK                         _______ _______ _______ _____ _____    ______ ____
ROOT
ATOM      1  C   UNL     1       4.948   3.804  17.126  0.00  0.00    +0.000 A 
ATOM      2  N   UNL     1       4.871   3.475  15.869  0.00  0.00    +0.000 NA
ATOM      3  N   UNL     1       5.798   4.078  15.059  0.00  0.00    +0.000 N 
ATOM      4  C   UNL     1       6.014   3.892  13.712  0.00  0.00    +0.000 A 
ATOM      5  N   UNL     1       7.023   4.647  13.322  0.00  0.00    +0.000 NA
ATOM      6  N   UNL     1       7.465   5.366  14.410  0.00  0.00    +0.000 NA
ATOM      7  C   UNL     1       6.727   5.014  15.440  0.00  0.00    +0.000 A 
ATOM      8  C   UNL     1       6.819   5.389  16.830  0.00  0.00    +0.000 A 
ATOM      9  C   UNL     1       7.728   6.354  17.277  0.00  0.00    +0.000 A 
ATOM     10  C   UNL     1       7.840   6.621  18.639  0.00  0.00    +0.000 A 
ATOM     11  C   UNL     1       7.114   5.864  19.554  0.00  0.00    +0.000 A 
ATOM     12  C   UNL     1       6.239   4.871  19.106  0.00  0.00    +0.000 A 
ATOM     13  C   UNL     1       6.002   4.698  17.736  0.00  0.00    +0.000 A 
ENDROOT
BRANCH   4  14
ATOM     14  C   UNL     1       5.237   2.958  12.794  0.00  0.00    +0.000 C 
ATOM     15  C   UNL     1       4.617   3.540  11.535  0.00  0.00    +0.000 C 
ATOM     16  C   UNL     1       5.818   2.666  11.423  0.00  0.00    +0.000 C 
ENDBRANCH   4  14
BRANCH   1  17
ATOM     17  O   UNL     1       3.965   3.287  17.911  0.00  0.00    +0.000 OA
BRANCH  17  18
ATOM     18  C   UNL     1       2.599   3.761  17.893  0.00  0.00    +0.000 C 
BRANCH  18  22
ATOM     19  C   UNL     1       2.018   7.357  20.069  0.00  0.00    +0.000 A 
ATOM     20  C   UNL     1       1.754   6.155  20.714  0.00  0.00    +0.000 A 
ATOM     21  C   UNL     1       1.930   4.952  20.032  0.00  0.00    +0.000 A 
ATOM     22  C   UNL     1       2.354   5.000  18.712  0.00  0.00    +0.000 A 
ATOM     23  N   UNL     1       2.640   6.169  18.077  0.00  0.00    +0.000 NA
ATOM     24  C   UNL     1       2.462   7.314  18.762  0.00  0.00    +0.000 A 
ENDBRANCH  18  22
ENDBRANCH  17  18
ENDBRANCH   1  17
TORSDOF 4
ENDMDL
MODEL 8
REMARK VINA RESULT:      -8.0      2.022      4.467
REMARK  Name = 
REMARK  4 active torsions:
REMARK  status: ('A' for Active; 'I' for Inactive)
REMARK    1  A    between atoms: C_4  and  C_5
REMARK    2  A    between atoms: C_5  and  O_6
REMARK    3  A    between atoms: O_6  and  C_7
REMARK    4  A    between atoms: C_10  and  C_11
REMARK                            x       y       z     vdW  Elec       q    Type
REMARK                         _______ _______ _______ _____ _____    ______ ____
ROOT
ATOM      1  C   UNL     1       3.090   6.321  18.055  0.00  0.00    +0.000 A 
ATOM      2  N   UNL     1       4.311   6.691  17.796  0.00  0.00    +0.000 NA
ATOM      3  N   UNL     1       5.279   5.833  18.247  0.00  0.00    +0.000 N 
ATOM      4  C   UNL     1       6.644   5.909  18.078  0.00  0.00    +0.000 A 
ATOM      5  N   UNL     1       7.215   4.865  18.647  0.00  0.00    +0.000 NA
ATOM      6  N   UNL     1       6.228   4.100  19.226  0.00  0.00    +0.000 NA
ATOM      7  C   UNL     1       5.078   4.688  18.977  0.00  0.00    +0.000 A 
ATOM      8  C   UNL     1       3.729   4.271  19.273  0.00  0.00    +0.000 A 
ATOM      9  C   UNL     1       3.458   3.128  20.033  0.00  0.00    +0.000 A 
ATOM     10  C   UNL     1       2.141   2.716  20.220  0.00  0.00    +0.000 A 
ATOM     11  C   UNL     1       1.108   3.391  19.576  0.00  0.00    +0.000 A 
ATOM     12  C   UNL     1       1.387   4.507  18.782  0.00  0.00    +0.000 A 
ATOM     13  C   UNL     1       2.688   5.022  18.711  0.00  0.00    +0.000 A 
ENDROOT
BRANCH   4  14
ATOM     14  C   UNL     1       7.402   7.006  17.342  0.00  0.00    +0.000 C 
ATOM     15  C   UNL     1       7.028   8.451  17.624  0.00  0.00    +0.000 C 
ATOM     16  C   UNL     1       8.309   7.910  18.156  0.00  0.00    +0.000 C 
ENDBRANCH   4  14
BRANCH   1  17
ATOM     17  O   UNL     1       2.136   7.223  17.698  0.00  0.00    +0.000 OA
BRANCH  17  18
ATOM     18  C   UNL     1       2.163   8.613  18.098  0.00  0.00    +0.000 C 
BRANCH  18  22
ATOM     19  C   UNL     1      -0.177   9.679  21.472  0.00  0.00    +0.000 A 
ATOM     20  C   UNL     1       0.741   8.645  21.616  0.00  0.00    +0.000 A 
ATOM     21  C   UNL     1       1.526   8.263  20.530  0.00  0.00    +0.000 A 
ATOM     22  C   UNL     1       1.351   8.929  19.325  0.00  0.00    +0.000 A 
ATOM     23  N   UNL     1       0.475   9.959  19.178  0.00  0.00    +0.000 NA
ATOM     24  C   UNL     1      -0.269  10.305  20.246  0.00  0.00    +0.000 A 
ENDBRANCH  18  22
ENDBRANCH  17  18
ENDBRANCH   1  17
TORSDOF 4
ENDMDL
MODEL 9
REMARK VINA RESULT:      -7.9      1.017      1.386
REMARK  Name = 
REMARK  4 active torsions:
REMARK  status: ('A' for Active; 'I' for Inactive)
REMARK    1  A    between atoms: C_4  and  C_5
REMARK    2  A    between atoms: C_5  and  O_6
REMARK    3  A    between atoms: O_6  and  C_7
REMARK    4  A    between atoms: C_10  and  C_11
REMARK                            x       y       z     vdW  Elec       q    Type
REMARK                         _______ _______ _______ _____ _____    ______ ____
ROOT
ATOM      1  C   UNL     1       3.120   5.935  18.173  0.00  0.00    +0.000 A 
ATOM      2  N   UNL     1       2.532   5.024  18.895  0.00  0.00    +0.000 NA
ATOM      3  N   UNL     1       2.869   3.735  18.578  0.00  0.00    +0.000 N 
ATOM      4  C   UNL     1       2.473   2.567  19.190  0.00  0.00    +0.000 A 
ATOM      5  N   UNL     1       3.049   1.541  18.592  0.00  0.00    +0.000 NA
ATOM      6  N   UNL     1       3.811   2.025  17.553  0.00  0.00    +0.000 NA
ATOM      7  C   UNL     1       3.698   3.336  17.559  0.00  0.00    +0.000 A 
ATOM      8  C   UNL     1       4.350   4.336  16.750  0.00  0.00    +0.000 A 
ATOM      9  C   UNL     1       5.186   3.994  15.682  0.00  0.00    +0.000 A 
ATOM     10  C   UNL     1       5.862   4.991  14.984  0.00  0.00    +0.000 A 
ATOM     11  C   UNL     1       5.774   6.314  15.410  0.00  0.00    +0.000 A 
ATOM     12  C   UNL     1       4.973   6.646  16.505  0.00  0.00    +0.000 A 
ATOM     13  C   UNL     1       4.168   5.676  17.118  0.00  0.00    +0.000 A 
ENDROOT
BRANCH   4  14
ATOM     14  C   UNL     1       1.532   2.446  20.382  0.00  0.00    +0.000 C 
ATOM     15  C   UNL     1       2.126   2.527  21.777  0.00  0.00    +0.000 C 
ATOM     16  C   UNL     1       1.330   3.671  21.253  0.00  0.00    +0.000 C 
ENDBRANCH   4  14
BRANCH   1  17
ATOM     17  O   UNL     1       2.707   7.208  18.419  0.00  0.00    +0.000 OA
BRANCH  17  18
ATOM     18  C   UNL     1       2.174   7.641  19.692  0.00  0.00    +0.000 C 
BRANCH  18  22
ATOM     19  C   UNL     1      -0.448  10.976  19.656  0.00  0.00    +0.000 A 
ATOM     20  C   UNL     1       0.203  10.646  18.473  0.00  0.00    +0.000 A 
ATOM     21  C   UNL     1       1.075   9.559  18.445  0.00  0.00    +0.000 A 
ATOM     22  C   UNL     1       1.274   8.845  19.618  0.00  0.00    +0.000 A 
ATOM     23  N   UNL     1       0.623   9.142  20.776  0.00  0.00    +0.000 NA
ATOM     24  C   UNL     1      -0.214  10.197  20.771  0.00  0.00    +0.000 A 
ENDBRANCH  18  22
ENDBRANCH  17  18
ENDBRANCH   1  17
TORSDOF 4
ENDMDL
