MODEL 1
REMARK VINA RESULT:      -8.3      0.000      0.000
REMARK  Name = 
REMARK  8 active torsions:
REMARK  status: ('A' for Active; 'I' for Inactive)
REMARK    1  A    between atoms: C_2  and  C_3
REMARK    2  A    between atoms: C_2  and  C_26
REMARK    3  A    between atoms: C_4  and  O_5
REMARK    4  A    between atoms: C_7  and  C_8
REMARK    5  A    between atoms: C_12  and  O_13
REMARK    6  A    between atoms: O_13  and  C_14
REMARK    7  A    between atoms: C_14  and  C_15
REMARK    8  A    between atoms: C_15  and  N_16
REMARK                            x       y       z     vdW  Elec       q    Type
REMARK                         _______ _______ _______ _____ _____    ______ ____
ROOT
ATOM      1  C   UNL     1       0.769   9.661  19.331  0.00  0.00    +0.000 C 
ATOM      2  C   UNL     1       1.689   9.419  18.384  0.00  0.00    +0.000 C 
ATOM      3  C   UNL     1       2.587   8.259  18.407  0.00  0.00    +0.000 C 
ATOM      4  C   UNL     1       3.492   8.034  17.427  0.00  0.00    +0.000 C 
ATOM      5  C   UNL     1       2.483   7.278  19.557  0.00  0.00    +0.000 C 
ATOM      6  C   UNL     1       1.554   7.592  20.705  0.00  0.00    +0.000 C 
ATOM      7  C   UNL     1       0.624   8.755  20.513  0.00  0.00    +0.000 C 
ENDROOT
BRANCH   4   8
ATOM      8  C   UNL     1       4.386   6.867  17.365  0.00  0.00    +0.000 A 
ATOM      9  C   UNL     1       5.740   6.982  17.671  0.00  0.00    +0.000 A 
ATOM     10  C   UNL     1       6.566   5.852  17.636  0.00  0.00    +0.000 A 
ATOM     11  C   UNL     1       6.025   4.603  17.303  0.00  0.00    +0.000 A 
ATOM     12  C   UNL     1       4.671   4.473  17.005  0.00  0.00    +0.000 A 
ATOM     13  C   UNL     1       3.857   5.615  17.028  0.00  0.00    +0.000 A 
BRANCH  12  14
ATOM     14  O   UNL     1       4.244   3.197  16.719  0.00  0.00    +0.000 OA
BRANCH  14  15
ATOM     15  C   UNL     1       4.349   2.279  17.812  0.00  0.00    +0.000 C 
BRANCH  15  16
ATOM     16  C   UNL     1       3.009   1.577  18.078  0.00  0.00    +0.000 C 
BRANCH  16  17
ATOM     17  N   UNL     1       2.308   2.103  19.271  0.00  0.00    +0.000 NA
ATOM     18  C   UNL     1       3.222   2.323  20.405  0.00  0.00    +0.000 C 
ATOM     19  C   UNL     1       2.474   2.810  21.644  0.00  0.00    +0.000 C 
ATOM     20  C   UNL     1       1.686   4.077  21.349  0.00  0.00    +0.000 C 
ATOM     21  C   UNL     1       0.797   3.876  20.127  0.00  0.00    +0.000 C 
ATOM     22  C   UNL     1       1.596   3.347  18.933  0.00  0.00    +0.000 C 
ENDBRANCH  16  17
ENDBRANCH  15  16
ENDBRANCH  14  15
ENDBRANCH  12  14
ENDBRANCH   4   8
BRANCH   1  24
ATOM     23  O   UNL     1       0.138  11.891  19.888  0.00  0.00    +0.000 OA
ATOM     24  C   UNL     1      -0.156  10.869  19.268  0.00  0.00    +0.000 C 
BRANCH  24  25
ATOM     25  C   UNL     1      -1.473  10.818  18.526  0.00  0.00    +0.000 A 
ATOM     26  C   UNL     1      -2.573  11.646  18.799  0.00  0.00    +0.000 A 
ATOM     27  C   UNL     1      -3.718  11.648  18.005  0.00  0.00    +0.000 A 
ATOM     28  C   UNL     1      -3.844  10.719  16.990  0.00  0.00    +0.000 A 
ATOM     29  C   UNL     1      -2.805   9.817  16.751  0.00  0.00    +0.000 A 
ATOM     30  C   UNL     1      -1.619   9.876  17.500  0.00  0.00    +0.000 A 
ENDBRANCH  24  25
ENDBRANCH   1  24
BRANCH   2  31
ATOM     31  O   UNL     1       1.859  10.237  17.269  0.00  0.00    +0.000 OA
ATOM     32  H   UNL     1       1.379  11.079  17.434  0.00  0.00    +0.000 HD
ENDBRANCH   2  31
TORSDOF 8
ENDMDL
MODEL 2
REMARK VINA RESULT:      -8.2      2.516      4.471
REMARK  Name = 
REMARK  8 active torsions:
REMARK  status: ('A' for Active; 'I' for Inactive)
REMARK    1  A    between atoms: C_2  and  C_3
REMARK    2  A    between atoms: C_2  and  C_26
REMARK    3  A    between atoms: C_4  and  O_5
REMARK    4  A    between atoms: C_7  and  C_8
REMARK    5  A    between atoms: C_12  and  O_13
REMARK    6  A    between atoms: O_13  and  C_14
REMARK    7  A    between atoms: C_14  and  C_15
REMARK    8  A    between atoms: C_15  and  N_16
REMARK                            x       y       z     vdW  Elec       q    Type
REMARK                         _______ _______ _______ _____ _____    ______ ____
ROOT
ATOM      1  C   UNL     1       0.554  10.377  19.936  0.00  0.00    +0.000 C 
ATOM      2  C   UNL     1       1.148   9.747  18.910  0.00  0.00    +0.000 C 
ATOM      3  C   UNL     1       1.785   8.431  19.028  0.00  0.00    +0.000 C 
ATOM      4  C   UNL     1       2.359   7.815  17.970  0.00  0.00    +0.000 C 
ATOM      5  C   UNL     1       1.783   7.738  20.375  0.00  0.00    +0.000 C 
ATOM      6  C   UNL     1       1.244   8.477  21.577  0.00  0.00    +0.000 C 
ATOM      7  C   UNL     1       0.536   9.772  21.304  0.00  0.00    +0.000 C 
ENDROOT
BRANCH   4   8
ATOM      8  C   UNL     1       2.970   6.477  18.011  0.00  0.00    +0.000 A 
ATOM      9  C   UNL     1       2.186   5.327  17.967  0.00  0.00    +0.000 A 
ATOM     10  C   UNL     1       2.791   4.065  17.976  0.00  0.00    +0.000 A 
ATOM     11  C   UNL     1       4.188   3.960  18.017  0.00  0.00    +0.000 A 
ATOM     12  C   UNL     1       4.983   5.103  18.050  0.00  0.00    +0.000 A 
ATOM     13  C   UNL     1       4.366   6.362  18.057  0.00  0.00    +0.000 A 
BRANCH  12  14
ATOM     14  O   UNL     1       6.341   4.882  18.061  0.00  0.00    +0.000 OA
BRANCH  14  15
ATOM     15  C   UNL     1       6.891   4.511  16.793  0.00  0.00    +0.000 C 
BRANCH  15  16
ATOM     16  C   UNL     1       6.859   5.688  15.807  0.00  0.00    +0.000 C 
BRANCH  16  17
ATOM     17  N   UNL     1       6.544   5.274  14.421  0.00  0.00    +0.000 NA
ATOM     18  C   UNL     1       7.756   5.082  13.606  0.00  0.00    +0.000 C 
ATOM     19  C   UNL     1       7.411   4.711  12.165  0.00  0.00    +0.000 C 
ATOM     20  C   UNL     1       6.536   3.468  12.110  0.00  0.00    +0.000 C 
ATOM     21  C   UNL     1       5.321   3.634  13.015  0.00  0.00    +0.000 C 
ATOM     22  C   UNL     1       5.729   4.047  14.432  0.00  0.00    +0.000 C 
ENDBRANCH  16  17
ENDBRANCH  15  16
ENDBRANCH  14  15
ENDBRANCH  12  14
ENDBRANCH   4   8
BRANCH   1  24
ATOM     23  O   UNL     1       0.543  12.760  19.988  0.00  0.00    +0.000 OA
ATOM     24  C   UNL     1      -0.109  11.738  19.773  0.00  0.00    +0.000 C 
BRANCH  24  25
ATOM     25  C   UNL     1      -1.576  11.866  19.431  0.00  0.00    +0.000 A 
ATOM     26  C   UNL     1      -2.172  11.345  18.271  0.00  0.00    +0.000 A 
ATOM     27  C   UNL     1      -3.549  11.378  18.063  0.00  0.00    +0.000 A 
ATOM     28  C   UNL     1      -4.356  12.059  18.954  0.00  0.00    +0.000 A 
ATOM     29  C   UNL     1      -3.783  12.670  20.072  0.00  0.00    +0.000 A 
ATOM     30  C   UNL     1      -2.405  12.560  20.321  0.00  0.00    +0.000 A 
ENDBRANCH  24  25
ENDBRANCH   1  24
BRANCH   2  31
ATOM     31  O   UNL     1       1.190  10.275  17.621  0.00  0.00    +0.000 OA
ATOM     32  H   UNL     1       1.388   9.540  16.998  0.00  0.00    +0.000 HD
ENDBRANCH   2  31
TORSDOF 8
ENDMDL
MODEL 3
REMARK VINA RESULT:      -8.1      1.085      1.289
REMARK  Name = 
REMARK  8 active torsions:
REMARK  status: ('A' for Active; 'I' for Inactive)
REMARK    1  A    between atoms: C_2  and  C_3
REMARK    2  A    between atoms: C_2  and  C_26
REMARK    3  A    between atoms: C_4  and  O_5
REMARK    4  A    between atoms: C_7  and  C_8
REMARK    5  A    between atoms: C_12  and  O_13
REMARK    6  A    between atoms: O_13  and  C_14
REMARK    7  A    between atoms: C_14  and  C_15
REMARK    8  A    between atoms: C_15  and  N_16
REMARK                            x       y       z     vdW  Elec       q    Type
REMARK                         _______ _______ _______ _____ _____    ______ ____
ROOT
ATOM      1  C   UNL     1       1.030   9.359  19.326  0.00  0.00    +0.000 C 
ATOM      2  C   UNL     1       1.918   9.205  18.331  0.00  0.00    +0.000 C 
ATOM      3  C   UNL     1       2.779   8.026  18.191  0.00  0.00    +0.000 C 
ATOM      4  C   UNL     1       3.651   7.893  17.166  0.00  0.00    +0.000 C 
ATOM      5  C   UNL     1       2.674   6.919  19.220  0.00  0.00    +0.000 C 
ATOM      6  C   UNL     1       1.783   7.121  20.423  0.00  0.00    +0.000 C 
ATOM      7  C   UNL     1       0.887   8.324  20.396  0.00  0.00    +0.000 C 
ENDROOT
BRANCH   4   8
ATOM      8  C   UNL     1       4.507   6.716  16.941  0.00  0.00    +0.000 A 
ATOM      9  C   UNL     1       4.944   6.380  15.663  0.00  0.00    +0.000 A 
ATOM     10  C   UNL     1       5.782   5.274  15.477  0.00  0.00    +0.000 A 
ATOM     11  C   UNL     1       6.190   4.513  16.581  0.00  0.00    +0.000 A 
ATOM     12  C   UNL     1       5.767   4.847  17.866  0.00  0.00    +0.000 A 
ATOM     13  C   UNL     1       4.915   5.947  18.038  0.00  0.00    +0.000 A 
BRANCH  12  14
ATOM     14  O   UNL     1       6.251   4.048  18.876  0.00  0.00    +0.000 OA
BRANCH  14  15
ATOM     15  C   UNL     1       5.255   3.582  19.793  0.00  0.00    +0.000 C 
BRANCH  15  16
ATOM     16  C   UNL     1       4.506   2.366  19.229  0.00  0.00    +0.000 C 
BRANCH  16  17
ATOM     17  N   UNL     1       3.076   2.341  19.609  0.00  0.00    +0.000 NA
ATOM     18  C   UNL     1       2.768   3.296  20.687  0.00  0.00    +0.000 C 
ATOM     19  C   UNL     1       1.302   3.216  21.107  0.00  0.00    +0.000 C 
ATOM     20  C   UNL     1       0.375   3.441  19.922  0.00  0.00    +0.000 C 
ATOM     21  C   UNL     1       0.744   2.506  18.776  0.00  0.00    +0.000 C 
ATOM     22  C   UNL     1       2.233   2.601  18.431  0.00  0.00    +0.000 C 
ENDBRANCH  16  17
ENDBRANCH  15  16
ENDBRANCH  14  15
ENDBRANCH  12  14
ENDBRANCH   4   8
BRANCH   1  24
ATOM     23  O   UNL     1       0.475  11.516  20.174  0.00  0.00    +0.000 OA
ATOM     24  C   UNL     1       0.143  10.592  19.432  0.00  0.00    +0.000 C 
BRANCH  24  25
ATOM     25  C   UNL     1      -1.183  10.676  18.709  0.00  0.00    +0.000 A 
ATOM     26  C   UNL     1      -2.244  11.514  19.087  0.00  0.00    +0.000 A 
ATOM     27  C   UNL     1      -3.396  11.649  18.315  0.00  0.00    +0.000 A 
ATOM     28  C   UNL     1      -3.573  10.841  17.209  0.00  0.00    +0.000 A 
ATOM     29  C   UNL     1      -2.576   9.927  16.859  0.00  0.00    +0.000 A 
ATOM     30  C   UNL     1      -1.381   9.856  17.591  0.00  0.00    +0.000 A 
ENDBRANCH  24  25
ENDBRANCH   1  24
BRANCH   2  31
ATOM     31  O   UNL     1       2.086  10.144  17.315  0.00  0.00    +0.000 OA
ATOM     32  H   UNL     1       2.726   9.776  16.665  0.00  0.00    +0.000 HD
ENDBRANCH   2  31
TORSDOF 8
ENDMDL
MODEL 4
REMARK VINA RESULT:      -8.1      2.773      4.712
REMARK  Name = 
REMARK  8 active torsions:
REMARK  status: ('A' for Active; 'I' for Inactive)
REMARK    1  A    between atoms: C_2  and  C_3
REMARK    2  A    between atoms: C_2  and  C_26
REMARK    3  A    between atoms: C_4  and  O_5
REMARK    4  A    between atoms: C_7  and  C_8
REMARK    5  A    between atoms: C_12  and  O_13
REMARK    6  A    between atoms: O_13  and  C_14
REMARK    7  A    between atoms: C_14  and  C_15
REMARK    8  A    between atoms: C_15  and  N_16
REMARK                            x       y       z     vdW  Elec       q    Type
REMARK                         _______ _______ _______ _____ _____    ______ ____
ROOT
ATOM      1  C   UNL     1       0.590  10.366  19.810  0.00  0.00    +0.000 C 
ATOM      2  C   UNL     1       1.230   9.735  18.812  0.00  0.00    +0.000 C 
ATOM      3  C   UNL     1       1.848   8.413  18.956  0.00  0.00    +0.000 C 
ATOM      4  C   UNL     1       2.469   7.796  17.925  0.00  0.00    +0.000 C 
ATOM      5  C   UNL     1       1.771   7.713  20.298  0.00  0.00    +0.000 C 
ATOM      6  C   UNL     1       1.178   8.451  21.474  0.00  0.00    +0.000 C 
ATOM      7  C   UNL     1       0.497   9.754  21.172  0.00  0.00    +0.000 C 
ENDROOT
BRANCH   4   8
ATOM      8  C   UNL     1       3.065   6.452  17.990  0.00  0.00    +0.000 A 
ATOM      9  C   UNL     1       2.266   5.312  18.001  0.00  0.00    +0.000 A 
ATOM     10  C   UNL     1       2.855   4.042  18.032  0.00  0.00    +0.000 A 
ATOM     11  C   UNL     1       4.251   3.921  18.040  0.00  0.00    +0.000 A 
ATOM     12  C   UNL     1       5.061   5.054  18.018  0.00  0.00    +0.000 A 
ATOM     13  C   UNL     1       4.459   6.320  18.004  0.00  0.00    +0.000 A 
BRANCH  12  14
ATOM     14  O   UNL     1       6.416   4.816  18.001  0.00  0.00    +0.000 OA
BRANCH  14  15
ATOM     15  C   UNL     1       6.912   4.305  16.759  0.00  0.00    +0.000 C 
BRANCH  15  16
ATOM     16  C   UNL     1       7.250   5.443  15.785  0.00  0.00    +0.000 C 
BRANCH  16  17
ATOM     17  N   UNL     1       6.815   5.164  14.397  0.00  0.00    +0.000 NA
ATOM     18  C   UNL     1       7.940   5.177  13.446  0.00  0.00    +0.000 C 
ATOM     19  C   UNL     1       7.466   4.946  12.013  0.00  0.00    +0.000 C 
ATOM     20  C   UNL     1       6.689   3.644  11.892  0.00  0.00    +0.000 C 
ATOM     21  C   UNL     1       5.573   3.594  12.929  0.00  0.00    +0.000 C 
ATOM     22  C   UNL     1       6.104   3.876  14.338  0.00  0.00    +0.000 C 
ENDBRANCH  16  17
ENDBRANCH  15  16
ENDBRANCH  14  15
ENDBRANCH  12  14
ENDBRANCH   4   8
BRANCH   1  24
ATOM     23  O   UNL     1       0.521  12.581  18.934  0.00  0.00    +0.000 OA
ATOM     24  C   UNL     1      -0.050  11.734  19.620  0.00  0.00    +0.000 C 
BRANCH  24  25
ATOM     25  C   UNL     1      -1.336  12.109  20.323  0.00  0.00    +0.000 A 
ATOM     26  C   UNL     1      -1.435  12.414  21.690  0.00  0.00    +0.000 A 
ATOM     27  C   UNL     1      -2.617  12.877  22.264  0.00  0.00    +0.000 A 
ATOM     28  C   UNL     1      -3.772  12.917  21.507  0.00  0.00    +0.000 A 
ATOM     29  C   UNL     1      -3.728  12.530  20.166  0.00  0.00    +0.000 A 
ATOM     30  C   UNL     1      -2.516  12.145  19.571  0.00  0.00    +0.000 A 
ENDBRANCH  24  25
ENDBRANCH   1  24
BRANCH   2  31
ATOM     31  O   UNL     1       1.343  10.269  17.530  0.00  0.00    +0.000 OA
ATOM     32  H   UNL     1       1.104  11.223  17.576  0.00  0.00    +0.000 HD
ENDBRANCH   2  31
TORSDOF 8
ENDMDL
MODEL 5
REMARK VINA RESULT:      -8.1      1.967      4.140
REMARK  Name = 
REMARK  8 active torsions:
REMARK  status: ('A' for Active; 'I' for Inactive)
REMARK    1  A    between atoms: C_2  and  C_3
REMARK    2  A    between atoms: C_2  and  C_26
REMARK    3  A    between atoms: C_4  and  O_5
REMARK    4  A    between atoms: C_7  and  C_8
REMARK    5  A    between atoms: C_12  and  O_13
REMARK    6  A    between atoms: O_13  and  C_14
REMARK    7  A    between atoms: C_14  and  C_15
REMARK    8  A    between atoms: C_15  and  N_16
REMARK                            x       y       z     vdW  Elec       q    Type
REMARK                         _______ _______ _______ _____ _____    ______ ____
ROOT
ATOM      1  C   UNL     1       1.057   9.702  19.302  0.00  0.00    +0.000 C 
ATOM      2  C   UNL     1       1.045   8.601  20.070  0.00  0.00    +0.000 C 
ATOM      3  C   UNL     1       1.788   7.379  19.744  0.00  0.00    +0.000 C 
ATOM      4  C   UNL     1       1.769   6.292  20.548  0.00  0.00    +0.000 C 
ATOM      5  C   UNL     1       2.614   7.345  18.474  0.00  0.00    +0.000 C 
ATOM      6  C   UNL     1       2.543   8.516  17.523  0.00  0.00    +0.000 C 
ATOM      7  C   UNL     1       1.825   9.737  18.019  0.00  0.00    +0.000 C 
ENDROOT
BRANCH   4   8
ATOM      8  C   UNL     1       2.529   5.056  20.304  0.00  0.00    +0.000 A 
ATOM      9  C   UNL     1       1.925   3.806  20.419  0.00  0.00    +0.000 A 
ATOM     10  C   UNL     1       2.661   2.645  20.152  0.00  0.00    +0.000 A 
ATOM     11  C   UNL     1       4.002   2.743  19.758  0.00  0.00    +0.000 A 
ATOM     12  C   UNL     1       4.614   3.988  19.630  0.00  0.00    +0.000 A 
ATOM     13  C   UNL     1       3.872   5.143  19.915  0.00  0.00    +0.000 A 
BRANCH  12  14
ATOM     14  O   UNL     1       5.924   3.966  19.210  0.00  0.00    +0.000 OA
BRANCH  14  15
ATOM     15  C   UNL     1       6.596   5.226  19.298  0.00  0.00    +0.000 C 
BRANCH  15  16
ATOM     16  C   UNL     1       7.711   5.336  18.248  0.00  0.00    +0.000 C 
BRANCH  16  17
ATOM     17  N   UNL     1       7.194   5.501  16.871  0.00  0.00    +0.000 NA
ATOM     18  C   UNL     1       7.127   4.222  16.143  0.00  0.00    +0.000 C 
ATOM     19  C   UNL     1       6.647   4.417  14.706  0.00  0.00    +0.000 C 
ATOM     20  C   UNL     1       5.297   5.117  14.666  0.00  0.00    +0.000 C 
ATOM     21  C   UNL     1       5.342   6.402  15.485  0.00  0.00    +0.000 C 
ATOM     22  C   UNL     1       5.872   6.148  16.899  0.00  0.00    +0.000 C 
ENDBRANCH  16  17
ENDBRANCH  15  16
ENDBRANCH  14  15
ENDBRANCH  12  14
ENDBRANCH   4   8
BRANCH   1  24
ATOM     23  O   UNL     1       0.822  11.816  20.377  0.00  0.00    +0.000 OA
ATOM     24  C   UNL     1       0.283  10.958  19.679  0.00  0.00    +0.000 C 
BRANCH  24  25
ATOM     25  C   UNL     1      -1.166  11.140  19.285  0.00  0.00    +0.000 A 
ATOM     26  C   UNL     1      -2.044  12.057  19.884  0.00  0.00    +0.000 A 
ATOM     27  C   UNL     1      -3.332  12.277  19.400  0.00  0.00    +0.000 A 
ATOM     28  C   UNL     1      -3.823  11.482  18.382  0.00  0.00    +0.000 A 
ATOM     29  C   UNL     1      -3.005  10.496  17.826  0.00  0.00    +0.000 A 
ATOM     30  C   UNL     1      -1.680  10.336  18.260  0.00  0.00    +0.000 A 
ENDBRANCH  24  25
ENDBRANCH   1  24
BRANCH   2  31
ATOM     31  O   UNL     1       0.341   8.524  21.271  0.00  0.00    +0.000 OA
ATOM     32  H   UNL     1      -0.224   9.326  21.342  0.00  0.00    +0.000 HD
ENDBRANCH   2  31
TORSDOF 8
ENDMDL
MODEL 6
REMARK VINA RESULT:      -8.1      2.813      8.878
REMARK  Name = 
REMARK  8 active torsions:
REMARK  status: ('A' for Active; 'I' for Inactive)
REMARK    1  A    between atoms: C_2  and  C_3
REMARK    2  A    between atoms: C_2  and  C_26
REMARK    3  A    between atoms: C_4  and  O_5
REMARK    4  A    between atoms: C_7  and  C_8
REMARK    5  A    between atoms: C_12  and  O_13
REMARK    6  A    between atoms: O_13  and  C_14
REMARK    7  A    between atoms: C_14  and  C_15
REMARK    8  A    between atoms: C_15  and  N_16
REMARK                            x       y       z     vdW  Elec       q    Type
REMARK                         _______ _______ _______ _____ _____    ______ ____
ROOT
ATOM      1  C   UNL     1       2.879   6.494  18.754  0.00  0.00    +0.000 C 
ATOM      2  C   UNL     1       2.285   6.781  19.924  0.00  0.00    +0.000 C 
ATOM      3  C   UNL     1       1.535   8.017  20.168  0.00  0.00    +0.000 C 
ATOM      4  C   UNL     1       0.933   8.268  21.353  0.00  0.00    +0.000 C 
ATOM      5  C   UNL     1       1.421   9.034  19.051  0.00  0.00    +0.000 C 
ATOM      6  C   UNL     1       2.188   8.804  17.771  0.00  0.00    +0.000 C 
ATOM      7  C   UNL     1       2.836   7.460  17.613  0.00  0.00    +0.000 C 
ENDROOT
BRANCH   4   8
ATOM      8  C   UNL     1       0.126   9.463  21.646  0.00  0.00    +0.000 A 
ATOM      9  C   UNL     1      -0.326   9.726  22.937  0.00  0.00    +0.000 A 
ATOM     10  C   UNL     1      -1.066  10.886  23.198  0.00  0.00    +0.000 A 
ATOM     11  C   UNL     1      -1.341  11.787  22.160  0.00  0.00    +0.000 A 
ATOM     12  C   UNL     1      -0.885  11.540  20.868  0.00  0.00    +0.000 A 
ATOM     13  C   UNL     1      -0.158  10.368  20.615  0.00  0.00    +0.000 A 
BRANCH  12  14
ATOM     14  O   UNL     1      -1.188  12.506  19.936  0.00  0.00    +0.000 OA
BRANCH  14  15
ATOM     15  C   UNL     1      -2.565  12.894  19.911  0.00  0.00    +0.000 C 
BRANCH  15  16
ATOM     16  C   UNL     1      -3.443  11.791  19.303  0.00  0.00    +0.000 C 
BRANCH  16  17
ATOM     17  N   UNL     1      -3.022  11.403  17.938  0.00  0.00    +0.000 NA
ATOM     18  C   UNL     1      -2.416  10.061  17.900  0.00  0.00    +0.000 C 
ATOM     19  C   UNL     1      -1.934   9.702  16.496  0.00  0.00    +0.000 C 
ATOM     20  C   UNL     1      -3.065   9.797  15.484  0.00  0.00    +0.000 C 
ATOM     21  C   UNL     1      -3.745  11.158  15.576  0.00  0.00    +0.000 C 
ATOM     22  C   UNL     1      -4.165  11.480  17.013  0.00  0.00    +0.000 C 
ENDBRANCH  16  17
ENDBRANCH  15  16
ENDBRANCH  14  15
ENDBRANCH  12  14
ENDBRANCH   4   8
BRANCH   1  24
ATOM     23  O   UNL     1       3.358   4.204  19.208  0.00  0.00    +0.000 OA
ATOM     24  C   UNL     1       3.639   5.193  18.533  0.00  0.00    +0.000 C 
BRANCH  24  25
ATOM     25  C   UNL     1       4.791   5.108  17.557  0.00  0.00    +0.000 A 
ATOM     26  C   UNL     1       4.863   4.201  16.488  0.00  0.00    +0.000 A 
ATOM     27  C   UNL     1       5.885   4.247  15.541  0.00  0.00    +0.000 A 
ATOM     28  C   UNL     1       6.939   5.122  15.719  0.00  0.00    +0.000 A 
ATOM     29  C   UNL     1       6.945   5.975  16.825  0.00  0.00    +0.000 A 
ATOM     30  C   UNL     1       5.871   5.983  17.729  0.00  0.00    +0.000 A 
ENDBRANCH  24  25
ENDBRANCH   1  24
BRANCH   2  31
ATOM     31  O   UNL     1       2.302   5.912  21.013  0.00  0.00    +0.000 OA
ATOM     32  H   UNL     1       2.519   6.437  21.816  0.00  0.00    +0.000 HD
ENDBRANCH   2  31
TORSDOF 8
ENDMDL
MODEL 7
REMARK VINA RESULT:      -8.0      2.964      5.149
REMARK  Name = 
REMARK  8 active torsions:
REMARK  status: ('A' for Active; 'I' for Inactive)
REMARK    1  A    between atoms: C_2  and  C_3
REMARK    2  A    between atoms: C_2  and  C_26
REMARK    3  A    between atoms: C_4  and  O_5
REMARK    4  A    between atoms: C_7  and  C_8
REMARK    5  A    between atoms: C_12  and  O_13
REMARK    6  A    between atoms: O_13  and  C_14
REMARK    7  A    between atoms: C_14  and  C_15
REMARK    8  A    between atoms: C_15  and  N_16
REMARK                            x       y       z     vdW  Elec       q    Type
REMARK                         _______ _______ _______ _____ _____    ______ ____
ROOT
ATOM      1  C   UNL     1      -1.867  12.288  20.735  0.00  0.00    +0.000 C 
ATOM      2  C   UNL     1      -0.789  11.561  21.071  0.00  0.00    +0.000 C 
ATOM      3  C   UNL     1      -0.223  10.512  20.217  0.00  0.00    +0.000 C 
ATOM      4  C   UNL     1       0.875   9.810  20.578  0.00  0.00    +0.000 C 
ATOM      5  C   UNL     1      -0.882  10.221  18.884  0.00  0.00    +0.000 C 
ATOM      6  C   UNL     1      -2.172  10.926  18.537  0.00  0.00    +0.000 C 
ATOM      7  C   UNL     1      -2.590  12.041  19.450  0.00  0.00    +0.000 C 
ENDROOT
BRANCH   4   8
ATOM      8  C   UNL     1       1.521   8.781  19.747  0.00  0.00    +0.000 A 
ATOM      9  C   UNL     1       1.895   9.049  18.432  0.00  0.00    +0.000 A 
ATOM     10  C   UNL     1       2.535   8.064  17.671  0.00  0.00    +0.000 A 
ATOM     11  C   UNL     1       2.811   6.812  18.237  0.00  0.00    +0.000 A 
ATOM     12  C   UNL     1       2.451   6.536  19.554  0.00  0.00    +0.000 A 
ATOM     13  C   UNL     1       1.795   7.524  20.302  0.00  0.00    +0.000 A 
BRANCH  12  14
ATOM     14  O   UNL     1       2.795   5.286  20.014  0.00  0.00    +0.000 OA
BRANCH  14  15
ATOM     15  C   UNL     1       3.271   4.392  19.003  0.00  0.00    +0.000 C 
BRANCH  15  16
ATOM     16  C   UNL     1       4.580   3.713  19.433  0.00  0.00    +0.000 C 
BRANCH  16  17
ATOM     17  N   UNL     1       5.759   4.207  18.687  0.00  0.00    +0.000 NA
ATOM     18  C   UNL     1       5.467   4.422  17.259  0.00  0.00    +0.000 C 
ATOM     19  C   UNL     1       6.709   4.874  16.494  0.00  0.00    +0.000 C 
ATOM     20  C   UNL     1       7.305   6.133  17.105  0.00  0.00    +0.000 C 
ATOM     21  C   UNL     1       7.535   5.939  18.599  0.00  0.00    +0.000 C 
ATOM     22  C   UNL     1       6.268   5.445  19.302  0.00  0.00    +0.000 C 
ENDBRANCH  16  17
ENDBRANCH  15  16
ENDBRANCH  14  15
ENDBRANCH  12  14
ENDBRANCH   4   8
BRANCH   1  24
ATOM     23  O   UNL     1      -1.835  14.459  21.718  0.00  0.00    +0.000 OA
ATOM     24  C   UNL     1      -2.420  13.379  21.642  0.00  0.00    +0.000 C 
BRANCH  24  25
ATOM     25  C   UNL     1      -3.628  13.139  22.519  0.00  0.00    +0.000 A 
ATOM     26  C   UNL     1      -4.953  13.406  22.139  0.00  0.00    +0.000 A 
ATOM     27  C   UNL     1      -6.041  13.049  22.934  0.00  0.00    +0.000 A 
ATOM     28  C   UNL     1      -5.822  12.536  24.197  0.00  0.00    +0.000 A 
ATOM     29  C   UNL     1      -4.512  12.345  24.644  0.00  0.00    +0.000 A 
ATOM     30  C   UNL     1      -3.421  12.627  23.806  0.00  0.00    +0.000 A 
ENDBRANCH  24  25
ENDBRANCH   1  24
BRANCH   2  31
ATOM     31  O   UNL     1      -0.087  11.756  22.259  0.00  0.00    +0.000 OA
ATOM     32  H   UNL     1       0.012  10.882  22.699  0.00  0.00    +0.000 HD
ENDBRANCH   2  31
TORSDOF 8
ENDMDL
MODEL 8
REMARK VINA RESULT:      -8.0      0.557      1.334
REMARK  Name = 
REMARK  8 active torsions:
REMARK  status: ('A' for Active; 'I' for Inactive)
REMARK    1  A    between atoms: C_2  and  C_3
REMARK    2  A    between atoms: C_2  and  C_26
REMARK    3  A    between atoms: C_4  and  O_5
REMARK    4  A    between atoms: C_7  and  C_8
REMARK    5  A    between atoms: C_12  and  O_13
REMARK    6  A    between atoms: O_13  and  C_14
REMARK    7  A    between atoms: C_14  and  C_15
REMARK    8  A    between atoms: C_15  and  N_16
REMARK                            x       y       z     vdW  Elec       q    Type
REMARK                         _______ _______ _______ _____ _____    ______ ____
ROOT
ATOM      1  C   UNL     1       0.667   9.508  19.442  0.00  0.00    +0.000 C 
ATOM      2  C   UNL     1       1.575   9.346  18.467  0.00  0.00    +0.000 C 
ATOM      3  C   UNL     1       2.552   8.252  18.445  0.00  0.00    +0.000 C 
ATOM      4  C   UNL     1       3.442   8.106  17.437  0.00  0.00    +0.000 C 
ATOM      5  C   UNL     1       2.549   7.248  19.579  0.00  0.00    +0.000 C 
ATOM      6  C   UNL     1       1.632   7.478  20.757  0.00  0.00    +0.000 C 
ATOM      7  C   UNL     1       0.619   8.576  20.611  0.00  0.00    +0.000 C 
ENDROOT
BRANCH   4   8
ATOM      8  C   UNL     1       4.413   7.005  17.330  0.00  0.00    +0.000 A 
ATOM      9  C   UNL     1       5.780   7.238  17.463  0.00  0.00    +0.000 A 
ATOM     10  C   UNL     1       6.683   6.171  17.388  0.00  0.00    +0.000 A 
ATOM     11  C   UNL     1       6.209   4.867  17.192  0.00  0.00    +0.000 A 
ATOM     12  C   UNL     1       4.843   4.621  17.068  0.00  0.00    +0.000 A 
ATOM     13  C   UNL     1       3.949   5.699  17.129  0.00  0.00    +0.000 A 
BRANCH  12  14
ATOM     14  O   UNL     1       4.490   3.301  16.907  0.00  0.00    +0.000 OA
BRANCH  14  15
ATOM     15  C   UNL     1       3.114   3.092  16.572  0.00  0.00    +0.000 C 
BRANCH  15  16
ATOM     16  C   UNL     1       2.415   2.212  17.618  0.00  0.00    +0.000 C 
BRANCH  16  17
ATOM     17  N   UNL     1       2.329   2.853  18.949  0.00  0.00    +0.000 NA
ATOM     18  C   UNL     1       0.943   3.187  19.320  0.00  0.00    +0.000 C 
ATOM     19  C   UNL     1       0.878   3.899  20.669  0.00  0.00    +0.000 C 
ATOM     20  C   UNL     1       1.531   3.068  21.763  0.00  0.00    +0.000 C 
ATOM     21  C   UNL     1       2.937   2.655  21.347  0.00  0.00    +0.000 C 
ATOM     22  C   UNL     1       2.942   1.986  19.970  0.00  0.00    +0.000 C 
ENDBRANCH  16  17
ENDBRANCH  15  16
ENDBRANCH  14  15
ENDBRANCH  12  14
ENDBRANCH   4   8
BRANCH   1  24
ATOM     23  O   UNL     1      -0.246  11.554  20.254  0.00  0.00    +0.000 OA
ATOM     24  C   UNL     1      -0.341  10.649  19.425  0.00  0.00    +0.000 C 
BRANCH  24  25
ATOM     25  C   UNL     1      -1.508  10.658  18.464  0.00  0.00    +0.000 A 
ATOM     26  C   UNL     1      -1.620   9.825  17.339  0.00  0.00    +0.000 A 
ATOM     27  C   UNL     1      -2.772   9.782  16.558  0.00  0.00    +0.000 A 
ATOM     28  C   UNL     1      -3.797  10.676  16.804  0.00  0.00    +0.000 A 
ATOM     29  C   UNL     1      -3.677  11.583  17.859  0.00  0.00    +0.000 A 
ATOM     30  C   UNL     1      -2.550  11.565  18.696  0.00  0.00    +0.000 A 
ENDBRANCH  24  25
ENDBRANCH   1  24
BRANCH   2  31
ATOM     31  O   UNL     1       1.656  10.191  17.362  0.00  0.00    +0.000 OA
ATOM     32  H   UNL     1       1.211   9.746  16.606  0.00  0.00    +0.000 HD
ENDBRANCH   2  31
TORSDOF 8
ENDMDL
MODEL 9
REMARK VINA RESULT:      -7.9      3.425      9.069
REMARK  Name = 
REMARK  8 active torsions:
REMARK  status: ('A' for Active; 'I' for Inactive)
REMARK    1  A    between atoms: C_2  and  C_3
REMARK    2  A    between atoms: C_2  and  C_26
REMARK    3  A    between atoms: C_4  and  O_5
REMARK    4  A    between atoms: C_7  and  C_8
REMARK    5  A    between atoms: C_12  and  O_13
REMARK    6  A    between atoms: O_13  and  C_14
REMARK    7  A    between atoms: C_14  and  C_15
REMARK    8  A    between atoms: C_15  and  N_16
REMARK                            x       y       z     vdW  Elec       q    Type
REMARK                         _______ _______ _______ _____ _____    ______ ____
ROOT
ATOM      1  C   UNL     1       5.377   4.886  16.733  0.00  0.00    +0.000 C 
ATOM      2  C   UNL     1       5.041   6.165  16.967  0.00  0.00    +0.000 C 
ATOM      3  C   UNL     1       3.815   6.563  17.668  0.00  0.00    +0.000 C 
ATOM      4  C   UNL     1       3.515   7.861  17.904  0.00  0.00    +0.000 C 
ATOM      5  C   UNL     1       2.869   5.485  18.154  0.00  0.00    +0.000 C 
ATOM      6  C   UNL     1       3.150   4.046  17.789  0.00  0.00    +0.000 C 
ATOM      7  C   UNL     1       4.481   3.766  17.156  0.00  0.00    +0.000 C 
ENDROOT
BRANCH   4   8
ATOM      8  C   UNL     1       2.329   8.324  18.642  0.00  0.00    +0.000 A 
ATOM      9  C   UNL     1       2.025   7.819  19.904  0.00  0.00    +0.000 A 
ATOM     10  C   UNL     1       0.909   8.297  20.600  0.00  0.00    +0.000 A 
ATOM     11  C   UNL     1       0.104   9.294  20.031  0.00  0.00    +0.000 A 
ATOM     12  C   UNL     1       0.404   9.814  18.774  0.00  0.00    +0.000 A 
ATOM     13  C   UNL     1       1.516   9.316  18.079  0.00  0.00    +0.000 A 
BRANCH  12  14
ATOM     14  O   UNL     1      -0.436  10.807  18.326  0.00  0.00    +0.000 OA
BRANCH  14  15
ATOM     15  C   UNL     1      -0.055  12.129  18.720  0.00  0.00    +0.000 C 
BRANCH  15  16
ATOM     16  C   UNL     1      -1.260  12.921  19.247  0.00  0.00    +0.000 C 
BRANCH  16  17
ATOM     17  N   UNL     1      -1.794  12.383  20.519  0.00  0.00    +0.000 NA
ATOM     18  C   UNL     1      -0.787  12.388  21.594  0.00  0.00    +0.000 C 
ATOM     19  C   UNL     1      -1.336  11.776  22.881  0.00  0.00    +0.000 C 
ATOM     20  C   UNL     1      -2.597  12.493  23.338  0.00  0.00    +0.000 C 
ATOM     21  C   UNL     1      -3.611  12.558  22.201  0.00  0.00    +0.000 C 
ATOM     22  C   UNL     1      -2.989  13.140  20.928  0.00  0.00    +0.000 C 
ENDBRANCH  16  17
ENDBRANCH  15  16
ENDBRANCH  14  15
ENDBRANCH  12  14
ENDBRANCH   4   8
BRANCH   1  24
ATOM     23  O   UNL     1       7.691   4.320  16.665  0.00  0.00    +0.000 OA
ATOM     24  C   UNL     1       6.665   4.510  16.013  0.00  0.00    +0.000 C 
BRANCH  24  25
ATOM     25  C   UNL     1       6.735   4.442  14.504  0.00  0.00    +0.000 A 
ATOM     26  C   UNL     1       7.605   5.208  13.712  0.00  0.00    +0.000 A 
ATOM     27  C   UNL     1       7.722   5.018  12.337  0.00  0.00    +0.000 A 
ATOM     28  C   UNL     1       6.867   4.142  11.696  0.00  0.00    +0.000 A 
ATOM     29  C   UNL     1       5.924   3.431  12.443  0.00  0.00    +0.000 A 
ATOM     30  C   UNL     1       5.869   3.565  13.839  0.00  0.00    +0.000 A 
ENDBRANCH  24  25
ENDBRANCH   1  24
BRANCH   2  31
ATOM     31  O   UNL     1       5.844   7.239  16.589  0.00  0.00    +0.000 OA
ATOM     32  H   UNL     1       5.274   8.040  16.536  0.00  0.00    +0.000 HD
ENDBRANCH   2  31
TORSDOF 8
ENDMDL
