MODEL 1
REMARK VINA RESULT:      -8.5      0.000      0.000
REMARK  Name = 
REMARK  5 active torsions:
REMARK  status: ('A' for Active; 'I' for Inactive)
REMARK    1  A    between atoms: C_2  and  C_3
REMARK    2  A    between atoms: C_3  and  O_4
REMARK    3  A    between atoms: O_4  and  C_5
REMARK    4  A    between atoms: C_15  and  C_16
REMARK    5  A    between atoms: C_16  and  C_17
REMARK                            x       y       z     vdW  Elec       q    Type
REMARK                         _______ _______ _______ _____ _____    ______ ____
ROOT
ATOM      1  O   UNL     1       6.331   7.426  16.560  0.00  0.00    +0.000 OA
ATOM      2  C   UNL     1       5.894   6.298  16.807  0.00  0.00    +0.000 C 
ATOM      3  N   UNL     1       4.560   6.080  17.123  0.00  0.00    +0.000 N 
ATOM      4  C   UNL     1       3.941   4.789  17.425  0.00  0.00    +0.000 C 
ATOM      5  C   UNL     1       3.161   4.853  18.747  0.00  0.00    +0.000 C 
ATOM      6  N   UNL     1       2.163   5.939  18.767  0.00  0.00    +0.000 NA
ATOM      7  C   UNL     1       2.826   7.242  18.489  0.00  0.00    +0.000 C 
ATOM      8  C   UNL     1       3.629   7.214  17.163  0.00  0.00    +0.000 C 
ATOM      9  H   UNL     1       1.776   5.977  19.714  0.00  0.00    +0.000 HD
ENDROOT
BRANCH   2  10
ATOM     10  C   UNL     1       6.833   5.091  16.757  0.00  0.00    +0.000 C 
BRANCH  10  11
ATOM     11  O   UNL     1       7.684   5.205  15.620  0.00  0.00    +0.000 OA
BRANCH  11  12
ATOM     12  C   UNL     1       7.151   4.725  14.454  0.00  0.00    +0.000 A 
ATOM     13  C   UNL     1       7.792   5.114  13.274  0.00  0.00    +0.000 A 
ATOM     14  C   UNL     1       7.346   4.637  12.040  0.00  0.00    +0.000 A 
ATOM     15  C   UNL     1       6.267   3.757  11.981  0.00  0.00    +0.000 A 
ATOM     16  C   UNL     1       5.637   3.354  13.157  0.00  0.00    +0.000 A 
ATOM     17  C   UNL     1       6.080   3.834  14.392  0.00  0.00    +0.000 A 
ENDBRANCH  11  12
ENDBRANCH  10  11
ENDBRANCH   2  10
BRANCH   7  18
ATOM     18  C   UNL     1       1.780   8.370  18.438  0.00  0.00    +0.000 C 
BRANCH  18  19
ATOM     19  C   UNL     1       1.375   8.811  19.841  0.00  0.00    +0.000 A 
ATOM     20  N   UNL     1       1.931   8.169  20.825  0.00  0.00    +0.000 NA
ATOM     21  N   UNL     1       1.564   8.514  22.085  0.00  0.00    +0.000 N 
ATOM     22  C   UNL     1       0.645   9.470  22.421  0.00  0.00    +0.000 A 
ATOM     23  O   UNL     1       0.320   9.686  23.583  0.00  0.00    +0.000 OA
ATOM     24  C   UNL     1       0.063  10.234  21.290  0.00  0.00    +0.000 A 
ATOM     25  C   UNL     1       0.387   9.918  20.023  0.00  0.00    +0.000 A 
ATOM     26  C   UNL     1      -0.204  10.636  18.841  0.00  0.00    +0.000 C 
ATOM     27  C   UNL     1      -1.372  11.561  19.202  0.00  0.00    +0.000 C 
ATOM     28  C   UNL     1      -1.093  12.327  20.487  0.00  0.00    +0.000 C 
ATOM     29  C   UNL     1      -0.863  11.362  21.651  0.00  0.00    +0.000 C 
ATOM     30  H   UNL     1       1.981   7.984  22.842  0.00  0.00    +0.000 HD
ENDBRANCH  18  19
ENDBRANCH   7  18
TORSDOF 5
ENDMDL
MODEL 2
REMARK VINA RESULT:      -8.2      4.558      7.109
REMARK  Name = 
REMARK  5 active torsions:
REMARK  status: ('A' for Active; 'I' for Inactive)
REMARK    1  A    between atoms: C_2  and  C_3
REMARK    2  A    between atoms: C_3  and  O_4
REMARK    3  A    between atoms: O_4  and  C_5
REMARK    4  A    between atoms: C_15  and  C_16
REMARK    5  A    between atoms: C_16  and  C_17
REMARK                            x       y       z     vdW  Elec       q    Type
REMARK                         _______ _______ _______ _____ _____    ______ ____
ROOT
ATOM      1  O   UNL     1       7.183   8.739  16.876  0.00  0.00    +0.000 OA
ATOM      2  C   UNL     1       7.769   8.085  17.744  0.00  0.00    +0.000 C 
ATOM      3  N   UNL     1       7.577   6.718  17.888  0.00  0.00    +0.000 N 
ATOM      4  C   UNL     1       8.223   5.851  18.876  0.00  0.00    +0.000 C 
ATOM      5  C   UNL     1       7.180   5.023  19.641  0.00  0.00    +0.000 C 
ATOM      6  N   UNL     1       6.301   4.247  18.747  0.00  0.00    +0.000 NA
ATOM      7  C   UNL     1       5.634   5.157  17.776  0.00  0.00    +0.000 C 
ATOM      8  C   UNL     1       6.657   6.015  16.986  0.00  0.00    +0.000 C 
ATOM      9  H   UNL     1       5.577   3.820  19.329  0.00  0.00    +0.000 HD
ENDROOT
BRANCH   2  10
ATOM     10  C   UNL     1       8.748   8.783  18.689  0.00  0.00    +0.000 C 
BRANCH  10  11
ATOM     11  O   UNL     1       8.552  10.193  18.611  0.00  0.00    +0.000 OA
BRANCH  11  12
ATOM     12  C   UNL     1       9.676  10.942  18.837  0.00  0.00    +0.000 A 
ATOM     13  C   UNL     1       9.974  11.222  20.173  0.00  0.00    +0.000 A 
ATOM     14  C   UNL     1      11.125  11.942  20.502  0.00  0.00    +0.000 A 
ATOM     15  C   UNL     1      11.990  12.370  19.497  0.00  0.00    +0.000 A 
ATOM     16  C   UNL     1      11.704  12.078  18.165  0.00  0.00    +0.000 A 
ATOM     17  C   UNL     1      10.550  11.362  17.835  0.00  0.00    +0.000 A 
ENDBRANCH  11  12
ENDBRANCH  10  11
ENDBRANCH   2  10
BRANCH   7  18
ATOM     18  C   UNL     1       4.771   4.344  16.794  0.00  0.00    +0.000 C 
BRANCH  18  19
ATOM     19  C   UNL     1       3.567   3.727  17.498  0.00  0.00    +0.000 A 
ATOM     20  N   UNL     1       3.267   2.510  17.155  0.00  0.00    +0.000 NA
ATOM     21  N   UNL     1       2.179   1.945  17.738  0.00  0.00    +0.000 N 
ATOM     22  C   UNL     1       1.352   2.545  18.646  0.00  0.00    +0.000 A 
ATOM     23  O   UNL     1       0.350   1.991  19.086  0.00  0.00    +0.000 OA
ATOM     24  C   UNL     1       1.741   3.913  19.071  0.00  0.00    +0.000 A 
ATOM     25  C   UNL     1       2.804   4.518  18.511  0.00  0.00    +0.000 A 
ATOM     26  C   UNL     1       3.217   5.917  18.879  0.00  0.00    +0.000 C 
ATOM     27  C   UNL     1       2.186   6.658  19.737  0.00  0.00    +0.000 C 
ATOM     28  C   UNL     1       1.592   5.743  20.799  0.00  0.00    +0.000 C 
ATOM     29  C   UNL     1       0.905   4.541  20.151  0.00  0.00    +0.000 C 
ATOM     30  H   UNL     1       1.937   1.006  17.438  0.00  0.00    +0.000 HD
ENDBRANCH  18  19
ENDBRANCH   7  18
TORSDOF 5
ENDMDL
MODEL 3
REMARK VINA RESULT:      -8.0      4.236      5.973
REMARK  Name = 
REMARK  5 active torsions:
REMARK  status: ('A' for Active; 'I' for Inactive)
REMARK    1  A    between atoms: C_2  and  C_3
REMARK    2  A    between atoms: C_3  and  O_4
REMARK    3  A    between atoms: O_4  and  C_5
REMARK    4  A    between atoms: C_15  and  C_16
REMARK    5  A    between atoms: C_16  and  C_17
REMARK                            x       y       z     vdW  Elec       q    Type
REMARK                         _______ _______ _______ _____ _____    ______ ____
ROOT
ATOM      1  O   UNL     1       2.521   8.648  17.232  0.00  0.00    +0.000 OA
ATOM      2  C   UNL     1       2.228   8.333  18.390  0.00  0.00    +0.000 C 
ATOM      3  N   UNL     1       1.312   9.059  19.138  0.00  0.00    +0.000 N 
ATOM      4  C   UNL     1       0.890   8.770  20.510  0.00  0.00    +0.000 C 
ATOM      5  C   UNL     1       1.027  10.016  21.397  0.00  0.00    +0.000 C 
ATOM      6  N   UNL     1       0.306  11.183  20.855  0.00  0.00    +0.000 NA
ATOM      7  C   UNL     1       0.777  11.472  19.472  0.00  0.00    +0.000 C 
ATOM      8  C   UNL     1       0.659  10.234  18.547  0.00  0.00    +0.000 C 
ATOM      9  H   UNL     1       0.541  11.986  21.444  0.00  0.00    +0.000 HD
ENDROOT
BRANCH   2  10
ATOM     10  C   UNL     1       2.876   7.104  19.030  0.00  0.00    +0.000 C 
BRANCH  10  11
ATOM     11  O   UNL     1       2.745   5.992  18.149  0.00  0.00    +0.000 OA
BRANCH  11  12
ATOM     12  C   UNL     1       2.143   4.892  18.698  0.00  0.00    +0.000 A 
ATOM     13  C   UNL     1       1.907   4.938  20.075  0.00  0.00    +0.000 A 
ATOM     14  C   UNL     1       1.257   3.880  20.715  0.00  0.00    +0.000 A 
ATOM     15  C   UNL     1       0.827   2.779  19.978  0.00  0.00    +0.000 A 
ATOM     16  C   UNL     1       1.046   2.737  18.602  0.00  0.00    +0.000 A 
ATOM     17  C   UNL     1       1.700   3.793  17.963  0.00  0.00    +0.000 A 
ENDBRANCH  11  12
ENDBRANCH  10  11
ENDBRANCH   2  10
BRANCH   7  18
ATOM     18  C   UNL     1      -0.022  12.644  18.874  0.00  0.00    +0.000 C 
BRANCH  18  19
ATOM     19  C   UNL     1      -1.450  12.668  19.409  0.00  0.00    +0.000 A 
ATOM     20  N   UNL     1      -1.623  13.264  20.550  0.00  0.00    +0.000 NA
ATOM     21  N   UNL     1      -2.878  13.271  21.069  0.00  0.00    +0.000 N 
ATOM     22  C   UNL     1      -3.982  12.692  20.509  0.00  0.00    +0.000 A 
ATOM     23  O   UNL     1      -5.074  12.688  21.067  0.00  0.00    +0.000 OA
ATOM     24  C   UNL     1      -3.781  12.067  19.178  0.00  0.00    +0.000 A 
ATOM     25  C   UNL     1      -2.553  12.024  18.631  0.00  0.00    +0.000 A 
ATOM     26  C   UNL     1      -2.289  11.368  17.303  0.00  0.00    +0.000 C 
ATOM     27  C   UNL     1      -3.472  10.551  16.774  0.00  0.00    +0.000 C 
ATOM     28  C   UNL     1      -4.791  11.273  17.009  0.00  0.00    +0.000 C 
ATOM     29  C   UNL     1      -5.009  11.525  18.501  0.00  0.00    +0.000 C 
ATOM     30  H   UNL     1      -2.993  13.712  21.976  0.00  0.00    +0.000 HD
ENDBRANCH  18  19
ENDBRANCH   7  18
TORSDOF 5
ENDMDL
MODEL 4
REMARK VINA RESULT:      -7.8      2.121      8.673
REMARK  Name = 
REMARK  5 active torsions:
REMARK  status: ('A' for Active; 'I' for Inactive)
REMARK    1  A    between atoms: C_2  and  C_3
REMARK    2  A    between atoms: C_3  and  O_4
REMARK    3  A    between atoms: O_4  and  C_5
REMARK    4  A    between atoms: C_15  and  C_16
REMARK    5  A    between atoms: C_16  and  C_17
REMARK                            x       y       z     vdW  Elec       q    Type
REMARK                         _______ _______ _______ _____ _____    ______ ____
ROOT
ATOM      1  O   UNL     1       1.945   9.131  17.149  0.00  0.00    +0.000 OA
ATOM      2  C   UNL     1       1.781   9.006  18.367  0.00  0.00    +0.000 C 
ATOM      3  N   UNL     1       2.154   7.853  19.042  0.00  0.00    +0.000 N 
ATOM      4  C   UNL     1       2.010   7.605  20.478  0.00  0.00    +0.000 C 
ATOM      5  C   UNL     1       1.292   6.271  20.733  0.00  0.00    +0.000 C 
ATOM      6  N   UNL     1       1.948   5.134  20.061  0.00  0.00    +0.000 NA
ATOM      7  C   UNL     1       2.051   5.400  18.599  0.00  0.00    +0.000 C 
ATOM      8  C   UNL     1       2.767   6.743  18.302  0.00  0.00    +0.000 C 
ATOM      9  H   UNL     1       1.347   4.316  20.191  0.00  0.00    +0.000 HD
ENDROOT
BRANCH   2  10
ATOM     10  C   UNL     1       1.161  10.150  19.171  0.00  0.00    +0.000 C 
BRANCH  10  11
ATOM     11  O   UNL     1      -0.153   9.779  19.579  0.00  0.00    +0.000 OA
BRANCH  11  12
ATOM     12  C   UNL     1      -1.159  10.265  18.787  0.00  0.00    +0.000 A 
ATOM     13  C   UNL     1      -1.896  11.332  19.308  0.00  0.00    +0.000 A 
ATOM     14  C   UNL     1      -2.912  11.921  18.553  0.00  0.00    +0.000 A 
ATOM     15  C   UNL     1      -3.184  11.457  17.268  0.00  0.00    +0.000 A 
ATOM     16  C   UNL     1      -2.439  10.404  16.739  0.00  0.00    +0.000 A 
ATOM     17  C   UNL     1      -1.426   9.811  17.496  0.00  0.00    +0.000 A 
ENDBRANCH  11  12
ENDBRANCH  10  11
ENDBRANCH   2  10
BRANCH   7  18
ATOM     18  C   UNL     1       2.799   4.249  17.902  0.00  0.00    +0.000 C 
BRANCH  18  19
ATOM     19  C   UNL     1       4.308   4.387  18.074  0.00  0.00    +0.000 A 
ATOM     20  N   UNL     1       4.749   4.352  19.296  0.00  0.00    +0.000 NA
ATOM     21  N   UNL     1       6.084   4.507  19.484  0.00  0.00    +0.000 N 
ATOM     22  C   UNL     1       7.015   4.715  18.505  0.00  0.00    +0.000 A 
ATOM     23  O   UNL     1       8.200   4.907  18.757  0.00  0.00    +0.000 OA
ATOM     24  C   UNL     1       6.504   4.694  17.111  0.00  0.00    +0.000 A 
ATOM     25  C   UNL     1       5.187   4.557  16.877  0.00  0.00    +0.000 A 
ATOM     26  C   UNL     1       4.614   4.567  15.486  0.00  0.00    +0.000 C 
ATOM     27  C   UNL     1       5.617   4.998  14.410  0.00  0.00    +0.000 C 
ATOM     28  C   UNL     1       6.989   4.385  14.656  0.00  0.00    +0.000 C 
ATOM     29  C   UNL     1       7.532   4.810  16.021  0.00  0.00    +0.000 C 
ATOM     30  H   UNL     1       6.412   4.509  20.445  0.00  0.00    +0.000 HD
ENDBRANCH  18  19
ENDBRANCH   7  18
TORSDOF 5
ENDMDL
MODEL 5
REMARK VINA RESULT:      -7.7      4.241      5.810
REMARK  Name = 
REMARK  5 active torsions:
REMARK  status: ('A' for Active; 'I' for Inactive)
REMARK    1  A    between atoms: C_2  and  C_3
REMARK    2  A    between atoms: C_3  and  O_4
REMARK    3  A    between atoms: O_4  and  C_5
REMARK    4  A    between atoms: C_15  and  C_16
REMARK    5  A    between atoms: C_16  and  C_17
REMARK                            x       y       z     vdW  Elec       q    Type
REMARK                         _______ _______ _______ _____ _____    ______ ____
ROOT
ATOM      1  O   UNL     1       2.462   8.883  17.588  0.00  0.00    +0.000 OA
ATOM      2  C   UNL     1       2.197   8.335  18.663  0.00  0.00    +0.000 C 
ATOM      3  N   UNL     1       1.381   8.936  19.610  0.00  0.00    +0.000 N 
ATOM      4  C   UNL     1       1.001   8.374  20.908  0.00  0.00    +0.000 C 
ATOM      5  C   UNL     1       1.282   9.374  22.040  0.00  0.00    +0.000 C 
ATOM      6  N   UNL     1       0.638  10.682  21.817  0.00  0.00    +0.000 NA
ATOM      7  C   UNL     1       1.067  11.243  20.507  0.00  0.00    +0.000 C 
ATOM      8  C   UNL     1       0.803  10.258  19.339  0.00  0.00    +0.000 C 
ATOM      9  H   UNL     1       0.966  11.311  22.554  0.00  0.00    +0.000 HD
ENDROOT
BRANCH   2  10
ATOM     10  C   UNL     1       2.769   6.950  18.971  0.00  0.00    +0.000 C 
BRANCH  10  11
ATOM     11  O   UNL     1       2.166   5.990  18.107  0.00  0.00    +0.000 OA
BRANCH  11  12
ATOM     12  C   UNL     1       1.813   4.815  18.713  0.00  0.00    +0.000 A 
ATOM     13  C   UNL     1       1.754   4.832  20.109  0.00  0.00    +0.000 A 
ATOM     14  C   UNL     1       1.359   3.690  20.812  0.00  0.00    +0.000 A 
ATOM     15  C   UNL     1       1.008   2.533  20.121  0.00  0.00    +0.000 A 
ATOM     16  C   UNL     1       1.050   2.519  18.728  0.00  0.00    +0.000 A 
ATOM     17  C   UNL     1       1.449   3.658  18.025  0.00  0.00    +0.000 A 
ENDBRANCH  11  12
ENDBRANCH  10  11
ENDBRANCH   2  10
BRANCH   7  18
ATOM     18  C   UNL     1       0.342  12.574  20.237  0.00  0.00    +0.000 C 
BRANCH  18  19
ATOM     19  C   UNL     1      -0.777  12.808  21.247  0.00  0.00    +0.000 A 
ATOM     20  N   UNL     1      -0.403  13.147  22.444  0.00  0.00    +0.000 NA
ATOM     21  N   UNL     1      -1.375  13.328  23.375  0.00  0.00    +0.000 N 
ATOM     22  C   UNL     1      -2.718  13.171  23.176  0.00  0.00    +0.000 A 
ATOM     23  O   UNL     1      -3.534  13.294  24.083  0.00  0.00    +0.000 OA
ATOM     24  C   UNL     1      -3.133  12.841  21.789  0.00  0.00    +0.000 A 
ATOM     25  C   UNL     1      -2.205  12.639  20.836  0.00  0.00    +0.000 A 
ATOM     26  C   UNL     1      -2.571  12.266  19.426  0.00  0.00    +0.000 C 
ATOM     27  C   UNL     1      -4.047  11.894  19.251  0.00  0.00    +0.000 C 
ATOM     28  C   UNL     1      -4.950  12.831  20.041  0.00  0.00    +0.000 C 
ATOM     29  C   UNL     1      -4.612  12.775  21.531  0.00  0.00    +0.000 C 
ATOM     30  H   UNL     1      -1.068  13.561  24.314  0.00  0.00    +0.000 HD
ENDBRANCH  18  19
ENDBRANCH   7  18
TORSDOF 5
ENDMDL
MODEL 6
REMARK VINA RESULT:      -7.6      2.913     10.536
REMARK  Name = 
REMARK  5 active torsions:
REMARK  status: ('A' for Active; 'I' for Inactive)
REMARK    1  A    between atoms: C_2  and  C_3
REMARK    2  A    between atoms: C_3  and  O_4
REMARK    3  A    between atoms: O_4  and  C_5
REMARK    4  A    between atoms: C_15  and  C_16
REMARK    5  A    between atoms: C_16  and  C_17
REMARK                            x       y       z     vdW  Elec       q    Type
REMARK                         _______ _______ _______ _____ _____    ______ ____
ROOT
ATOM      1  O   UNL     1       0.038  10.625  23.099  0.00  0.00    +0.000 OA
ATOM      2  C   UNL     1      -0.051  10.962  21.914  0.00  0.00    +0.000 C 
ATOM      3  N   UNL     1       0.115  10.054  20.879  0.00  0.00    +0.000 N 
ATOM      4  C   UNL     1       0.026  10.346  19.447  0.00  0.00    +0.000 C 
ATOM      5  C   UNL     1       1.268   9.828  18.705  0.00  0.00    +0.000 C 
ATOM      6  N   UNL     1       1.515   8.394  18.941  0.00  0.00    +0.000 NA
ATOM      7  C   UNL     1       1.633   8.132  20.402  0.00  0.00    +0.000 C 
ATOM      8  C   UNL     1       0.398   8.646  21.185  0.00  0.00    +0.000 C 
ATOM      9  H   UNL     1       2.412   8.165  18.505  0.00  0.00    +0.000 HD
ENDROOT
BRANCH   2  10
ATOM     10  C   UNL     1      -0.361  12.418  21.559  0.00  0.00    +0.000 C 
BRANCH  10  11
ATOM     11  O   UNL     1      -1.770  12.626  21.621  0.00  0.00    +0.000 OA
BRANCH  11  12
ATOM     12  C   UNL     1      -2.215  13.199  22.782  0.00  0.00    +0.000 A 
ATOM     13  C   UNL     1      -1.393  14.181  23.341  0.00  0.00    +0.000 A 
ATOM     14  C   UNL     1      -1.787  14.853  24.501  0.00  0.00    +0.000 A 
ATOM     15  C   UNL     1      -3.011  14.557  25.096  0.00  0.00    +0.000 A 
ATOM     16  C   UNL     1      -3.840  13.590  24.531  0.00  0.00    +0.000 A 
ATOM     17  C   UNL     1      -3.445  12.914  23.374  0.00  0.00    +0.000 A 
ENDBRANCH  11  12
ENDBRANCH  10  11
ENDBRANCH   2  10
BRANCH   7  18
ATOM     18  C   UNL     1       1.820   6.626  20.658  0.00  0.00    +0.000 C 
BRANCH  18  19
ATOM     19  C   UNL     1       2.587   5.963  19.518  0.00  0.00    +0.000 A 
ATOM     20  N   UNL     1       3.554   6.659  18.999  0.00  0.00    +0.000 NA
ATOM     21  N   UNL     1       4.232   6.110  17.959  0.00  0.00    +0.000 N 
ATOM     22  C   UNL     1       3.982   4.893  17.390  0.00  0.00    +0.000 A 
ATOM     23  O   UNL     1       4.600   4.488  16.411  0.00  0.00    +0.000 OA
ATOM     24  C   UNL     1       2.914   4.085  18.030  0.00  0.00    +0.000 A 
ATOM     25  C   UNL     1       2.206   4.593  19.055  0.00  0.00    +0.000 A 
ATOM     26  C   UNL     1       1.089   3.831  19.713  0.00  0.00    +0.000 C 
ATOM     27  C   UNL     1       0.677   2.564  18.956  0.00  0.00    +0.000 C 
ATOM     28  C   UNL     1       1.894   1.815  18.431  0.00  0.00    +0.000 C 
ATOM     29  C   UNL     1       2.705   2.700  17.485  0.00  0.00    +0.000 C 
ATOM     30  H   UNL     1       4.964   6.677  17.543  0.00  0.00    +0.000 HD
ENDBRANCH  18  19
ENDBRANCH   7  18
TORSDOF 5
ENDMDL
MODEL 7
REMARK VINA RESULT:      -7.6      3.476      9.874
REMARK  Name = 
REMARK  5 active torsions:
REMARK  status: ('A' for Active; 'I' for Inactive)
REMARK    1  A    between atoms: C_2  and  C_3
REMARK    2  A    between atoms: C_3  and  O_4
REMARK    3  A    between atoms: O_4  and  C_5
REMARK    4  A    between atoms: C_15  and  C_16
REMARK    5  A    between atoms: C_16  and  C_17
REMARK                            x       y       z     vdW  Elec       q    Type
REMARK                         _______ _______ _______ _____ _____    ______ ____
ROOT
ATOM      1  O   UNL     1      -1.057  10.287  17.532  0.00  0.00    +0.000 OA
ATOM      2  C   UNL     1      -1.059  10.676  18.704  0.00  0.00    +0.000 C 
ATOM      3  N   UNL     1      -0.046  10.339  19.591  0.00  0.00    +0.000 N 
ATOM      4  C   UNL     1       0.051  10.751  20.993  0.00  0.00    +0.000 C 
ATOM      5  C   UNL     1       0.274   9.534  21.904  0.00  0.00    +0.000 C 
ATOM      6  N   UNL     1       1.443   8.730  21.504  0.00  0.00    +0.000 NA
ATOM      7  C   UNL     1       1.303   8.300  20.086  0.00  0.00    +0.000 C 
ATOM      8  C   UNL     1       1.071   9.502  19.135  0.00  0.00    +0.000 C 
ATOM      9  H   UNL     1       1.449   7.891  22.090  0.00  0.00    +0.000 HD
ENDROOT
BRANCH   2  10
ATOM     10  C   UNL     1      -2.198  11.564  19.207  0.00  0.00    +0.000 C 
BRANCH  10  11
ATOM     11  O   UNL     1      -3.198  11.663  18.197  0.00  0.00    +0.000 OA
BRANCH  11  12
ATOM     12  C   UNL     1      -4.482  11.742  18.667  0.00  0.00    +0.000 A 
ATOM     13  C   UNL     1      -5.440  10.995  17.977  0.00  0.00    +0.000 A 
ATOM     14  C   UNL     1      -6.768  10.979  18.410  0.00  0.00    +0.000 A 
ATOM     15  C   UNL     1      -7.139  11.697  19.545  0.00  0.00    +0.000 A 
ATOM     16  C   UNL     1      -6.182  12.430  20.244  0.00  0.00    +0.000 A 
ATOM     17  C   UNL     1      -4.855  12.450  19.809  0.00  0.00    +0.000 A 
ENDBRANCH  11  12
ENDBRANCH  10  11
ENDBRANCH   2  10
BRANCH   7  18
ATOM     18  C   UNL     1       2.553   7.521  19.641  0.00  0.00    +0.000 C 
BRANCH  18  19
ATOM     19  C   UNL     1       2.316   6.015  19.701  0.00  0.00    +0.000 A 
ATOM     20  N   UNL     1       1.490   5.603  20.615  0.00  0.00    +0.000 NA
ATOM     21  N   UNL     1       1.285   4.265  20.716  0.00  0.00    +0.000 N 
ATOM     22  C   UNL     1       1.882   3.300  19.952  0.00  0.00    +0.000 A 
ATOM     23  O   UNL     1       1.692   2.104  20.142  0.00  0.00    +0.000 OA
ATOM     24  C   UNL     1       2.777   3.790  18.875  0.00  0.00    +0.000 A 
ATOM     25  C   UNL     1       3.021   5.107  18.745  0.00  0.00    +0.000 A 
ATOM     26  C   UNL     1       3.949   5.651  17.694  0.00  0.00    +0.000 C 
ATOM     27  C   UNL     1       4.767   4.572  16.976  0.00  0.00    +0.000 C 
ATOM     28  C   UNL     1       3.917   3.347  16.670  0.00  0.00    +0.000 C 
ATOM     29  C   UNL     1       3.352   2.747  17.958  0.00  0.00    +0.000 C 
ATOM     30  H   UNL     1       0.662   3.954  21.454  0.00  0.00    +0.000 HD
ENDBRANCH  18  19
ENDBRANCH   7  18
TORSDOF 5
ENDMDL
MODEL 8
REMARK VINA RESULT:      -7.6      3.208      4.295
REMARK  Name = 
REMARK  5 active torsions:
REMARK  status: ('A' for Active; 'I' for Inactive)
REMARK    1  A    between atoms: C_2  and  C_3
REMARK    2  A    between atoms: C_3  and  O_4
REMARK    3  A    between atoms: O_4  and  C_5
REMARK    4  A    between atoms: C_15  and  C_16
REMARK    5  A    between atoms: C_16  and  C_17
REMARK                            x       y       z     vdW  Elec       q    Type
REMARK                         _______ _______ _______ _____ _____    ______ ____
ROOT
ATOM      1  O   UNL     1       5.203   6.809  17.331  0.00  0.00    +0.000 OA
ATOM      2  C   UNL     1       4.625   6.348  18.320  0.00  0.00    +0.000 C 
ATOM      3  N   UNL     1       3.336   6.732  18.661  0.00  0.00    +0.000 N 
ATOM      4  C   UNL     1       2.561   6.245  19.805  0.00  0.00    +0.000 C 
ATOM      5  C   UNL     1       2.008   7.418  20.628  0.00  0.00    +0.000 C 
ATOM      6  N   UNL     1       1.220   8.363  19.816  0.00  0.00    +0.000 NA
ATOM      7  C   UNL     1       2.043   8.865  18.681  0.00  0.00    +0.000 C 
ATOM      8  C   UNL     1       2.623   7.707  17.828  0.00  0.00    +0.000 C 
ATOM      9  H   UNL     1       0.989   9.159  20.415  0.00  0.00    +0.000 HD
ENDROOT
BRANCH   2  10
ATOM     10  C   UNL     1       5.332   5.317  19.201  0.00  0.00    +0.000 C 
BRANCH  10  11
ATOM     11  O   UNL     1       5.264   4.038  18.574  0.00  0.00    +0.000 OA
BRANCH  11  12
ATOM     12  C   UNL     1       4.079   3.375  18.750  0.00  0.00    +0.000 A 
ATOM     13  C   UNL     1       3.376   3.048  17.588  0.00  0.00    +0.000 A 
ATOM     14  C   UNL     1       2.179   2.331  17.667  0.00  0.00    +0.000 A 
ATOM     15  C   UNL     1       1.690   1.926  18.907  0.00  0.00    +0.000 A 
ATOM     16  C   UNL     1       2.399   2.237  20.067  0.00  0.00    +0.000 A 
ATOM     17  C   UNL     1       3.593   2.957  19.989  0.00  0.00    +0.000 A 
ENDBRANCH  11  12
ENDBRANCH  10  11
ENDBRANCH   2  10
BRANCH   7  18
ATOM     18  C   UNL     1       1.203   9.796  17.788  0.00  0.00    +0.000 C 
BRANCH  18  19
ATOM     19  C   UNL     1       0.291  10.688  18.624  0.00  0.00    +0.000 A 
ATOM     20  N   UNL     1       0.863  11.348  19.586  0.00  0.00    +0.000 NA
ATOM     21  N   UNL     1       0.071  12.123  20.371  0.00  0.00    +0.000 N 
ATOM     22  C   UNL     1      -1.284  12.264  20.255  0.00  0.00    +0.000 A 
ATOM     23  O   UNL     1      -1.942  12.937  21.040  0.00  0.00    +0.000 OA
ATOM     24  C   UNL     1      -1.914  11.550  19.116  0.00  0.00    +0.000 A 
ATOM     25  C   UNL     1      -1.171  10.760  18.320  0.00  0.00    +0.000 A 
ATOM     26  C   UNL     1      -1.768   9.986  17.177  0.00  0.00    +0.000 C 
ATOM     27  C   UNL     1      -3.300   9.982  17.169  0.00  0.00    +0.000 C 
ATOM     28  C   UNL     1      -3.858  11.353  17.523  0.00  0.00    +0.000 C 
ATOM     29  C   UNL     1      -3.384  11.785  18.911  0.00  0.00    +0.000 C 
ATOM     30  H   UNL     1       0.525  12.608  21.138  0.00  0.00    +0.000 HD
ENDBRANCH  18  19
ENDBRANCH   7  18
TORSDOF 5
ENDMDL
MODEL 9
REMARK VINA RESULT:      -7.5      3.233      8.998
REMARK  Name = 
REMARK  5 active torsions:
REMARK  status: ('A' for Active; 'I' for Inactive)
REMARK    1  A    between atoms: C_2  and  C_3
REMARK    2  A    between atoms: C_3  and  O_4
REMARK    3  A    between atoms: O_4  and  C_5
REMARK    4  A    between atoms: C_15  and  C_16
REMARK    5  A    between atoms: C_16  and  C_17
REMARK                            x       y       z     vdW  Elec       q    Type
REMARK                         _______ _______ _______ _____ _____    ______ ____
ROOT
ATOM      1  O   UNL     1       0.870  11.237  21.935  0.00  0.00    +0.000 OA
ATOM      2  C   UNL     1       0.852  11.396  20.710  0.00  0.00    +0.000 C 
ATOM      3  N   UNL     1       0.873  10.324  19.831  0.00  0.00    +0.000 N 
ATOM      4  C   UNL     1       0.849  10.401  18.369  0.00  0.00    +0.000 C 
ATOM      5  C   UNL     1       1.993   9.577  17.760  0.00  0.00    +0.000 C 
ATOM      6  N   UNL     1       1.991   8.175  18.217  0.00  0.00    +0.000 NA
ATOM      7  C   UNL     1       2.047   8.126  19.704  0.00  0.00    +0.000 C 
ATOM      8  C   UNL     1       0.909   8.953  20.356  0.00  0.00    +0.000 C 
ATOM      9  H   UNL     1       2.841   7.736  17.854  0.00  0.00    +0.000 HD
ENDROOT
BRANCH   2  10
ATOM     10  C   UNL     1       0.797  12.810  20.130  0.00  0.00    +0.000 C 
BRANCH  10  11
ATOM     11  O   UNL     1       2.123  13.312  19.987  0.00  0.00    +0.000 OA
BRANCH  11  12
ATOM     12  C   UNL     1       2.224  14.469  19.261  0.00  0.00    +0.000 A 
ATOM     13  C   UNL     1       3.281  14.537  18.350  0.00  0.00    +0.000 A 
ATOM     14  C   UNL     1       3.437  15.661  17.534  0.00  0.00    +0.000 A 
ATOM     15  C   UNL     1       2.528  16.713  17.617  0.00  0.00    +0.000 A 
ATOM     16  C   UNL     1       1.463  16.640  18.513  0.00  0.00    +0.000 A 
ATOM     17  C   UNL     1       1.310  15.519  19.332  0.00  0.00    +0.000 A 
ENDBRANCH  11  12
ENDBRANCH  10  11
ENDBRANCH   2  10
BRANCH   7  18
ATOM     18  C   UNL     1       1.973   6.668  20.191  0.00  0.00    +0.000 C 
BRANCH  18  19
ATOM     19  C   UNL     1       2.812   5.749  19.309  0.00  0.00    +0.000 A 
ATOM     20  N   UNL     1       3.927   6.245  18.864  0.00  0.00    +0.000 NA
ATOM     21  N   UNL     1       4.679   5.463  18.047  0.00  0.00    +0.000 N 
ATOM     22  C   UNL     1       4.364   4.199  17.632  0.00  0.00    +0.000 A 
ATOM     23  O   UNL     1       5.066   3.575  16.844  0.00  0.00    +0.000 OA
ATOM     24  C   UNL     1       3.117   3.624  18.195  0.00  0.00    +0.000 A 
ATOM     25  C   UNL     1       2.333   4.367  18.998  0.00  0.00    +0.000 A 
ATOM     26  C   UNL     1       1.041   3.844  19.564  0.00  0.00    +0.000 C 
ATOM     27  C   UNL     1       0.590   2.517  18.945  0.00  0.00    +0.000 C 
ATOM     28  C   UNL     1       1.766   1.570  18.752  0.00  0.00    +0.000 C 
ATOM     29  C   UNL     1       2.817   2.196  17.835  0.00  0.00    +0.000 C 
ATOM     30  H   UNL     1       5.531   5.874  17.681  0.00  0.00    +0.000 HD
ENDBRANCH  18  19
ENDBRANCH   7  18
TORSDOF 5
ENDMDL
