MODEL 1
REMARK VINA RESULT:      -8.7      0.000      0.000
REMARK  Name = 
REMARK  6 active torsions:
REMARK  status: ('A' for Active; 'I' for Inactive)
REMARK    1  A    between atoms: C_1  and  C_2
REMARK    2  A    between atoms: C_2  and  C_3
REMARK    3  A    between atoms: C_2  and  O_4
REMARK    4  A    between atoms: C_2  and  C_5
REMARK    5  A    between atoms: C_5  and  N_6
REMARK    6  A    between atoms: C_5  and  C_26
REMARK                            x       y       z     vdW  Elec       q    Type
REMARK                         _______ _______ _______ _____ _____    ______ ____
ROOT
ATOM      1  N   UNL     1       9.880  10.387  18.868  0.00  0.00    +0.000 N 
ATOM      2  C   UNL     1       8.790   9.658  18.453  0.00  0.00    +0.000 C 
ATOM      3  O   UNL     1       7.806  10.168  17.930  0.00  0.00    +0.000 OA
ATOM      4  N   UNL     1       8.930   8.319  18.725  0.00  0.00    +0.000 N 
ATOM      5  C   UNL     1       7.927   7.392  18.405  0.00  0.00    +0.000 A 
ATOM      6  C   UNL     1       7.344   7.362  17.138  0.00  0.00    +0.000 A 
ATOM      7  C   UNL     1       6.364   6.384  16.962  0.00  0.00    +0.000 A 
ATOM      8  N   UNL     1       5.609   6.026  15.882  0.00  0.00    +0.000 N 
ATOM      9  N   UNL     1       4.727   5.043  16.122  0.00  0.00    +0.000 NA
ATOM     10  C   UNL     1       4.899   4.745  17.413  0.00  0.00    +0.000 A 
ATOM     11  N   UNL     1       4.156   3.821  18.062  0.00  0.00    +0.000 N 
ATOM     12  C   UNL     1       4.222   3.444  19.473  0.00  0.00    +0.000 C 
ATOM     13  C   UNL     1       3.104   2.369  19.539  0.00  0.00    +0.000 C 
ATOM     14  C   UNL     1       2.072   2.930  18.574  0.00  0.00    +0.000 C 
ATOM     15  C   UNL     1       3.095   3.007  17.444  0.00  0.00    +0.000 C 
ATOM     16  C   UNL     1       3.572   1.543  17.442  0.00  0.00    +0.000 C 
ATOM     17  O   UNL     1       3.570   1.170  18.858  0.00  0.00    +0.000 OA
ATOM     18  C   UNL     1       5.954   5.533  17.982  0.00  0.00    +0.000 A 
ATOM     19  C   UNL     1       6.604   5.645  19.216  0.00  0.00    +0.000 A 
ATOM     20  N   UNL     1       7.613   6.539  19.396  0.00  0.00    +0.000 NA
ATOM     21  H   UNL     1      10.757   9.891  18.857  0.00  0.00    +0.000 HD
ATOM     22  H   UNL     1       9.337   8.121  19.629  0.00  0.00    +0.000 HD
ATOM     23  H   UNL     1       5.647   6.414  14.946  0.00  0.00    +0.000 HD
ENDROOT
BRANCH   1  24
ATOM     24  C   UNL     1       9.931  11.858  18.769  0.00  0.00    +0.000 C 
BRANCH  24  25
ATOM     25  C   UNL     1       9.392  12.526  20.054  0.00  0.00    +0.000 A 
ATOM     26  C   UNL     1       9.513  11.852  21.290  0.00  0.00    +0.000 A 
ATOM     27  C   UNL     1       8.991  12.384  22.471  0.00  0.00    +0.000 A 
ATOM     28  C   UNL     1       8.371  13.622  22.445  0.00  0.00    +0.000 A 
ATOM     29  F   UNL     1       7.864  14.137  23.573  0.00  0.00    +0.000 F 
ATOM     30  C   UNL     1       8.277  14.338  21.259  0.00  0.00    +0.000 A 
ATOM     31  C   UNL     1       8.786  13.797  20.071  0.00  0.00    +0.000 A 
ENDBRANCH  24  25
BRANCH  24  33
ATOM     32  C   UNL     1      12.318  12.572  19.525  0.00  0.00    +0.000 C 
ATOM     33  C   UNL     1      11.367  12.393  18.336  0.00  0.00    +0.000 C 
ATOM     34  C   UNL     1      11.273  13.710  17.556  0.00  0.00    +0.000 C 
BRANCH  33  35
ATOM     35  O   UNL     1      12.023  11.428  17.486  0.00  0.00    +0.000 OA
ATOM     36  H   UNL     1      11.756  11.603  16.565  0.00  0.00    +0.000 HD
ENDBRANCH  33  35
ENDBRANCH  24  33
ENDBRANCH   1  24
TORSDOF 4
ENDMDL
MODEL 2
REMARK VINA RESULT:      -8.7      8.345     10.820
REMARK  Name = 
REMARK  6 active torsions:
REMARK  status: ('A' for Active; 'I' for Inactive)
REMARK    1  A    between atoms: C_1  and  C_2
REMARK    2  A    between atoms: C_2  and  C_3
REMARK    3  A    between atoms: C_2  and  O_4
REMARK    4  A    between atoms: C_2  and  C_5
REMARK    5  A    between atoms: C_5  and  N_6
REMARK    6  A    between atoms: C_5  and  C_26
REMARK                            x       y       z     vdW  Elec       q    Type
REMARK                         _______ _______ _______ _____ _____    ______ ____
ROOT
ATOM      1  N   UNL     1       3.033   7.681  17.453  0.00  0.00    +0.000 N 
ATOM      2  C   UNL     1       2.205   8.377  18.304  0.00  0.00    +0.000 C 
ATOM      3  O   UNL     1       2.189   8.196  19.516  0.00  0.00    +0.000 OA
ATOM      4  N   UNL     1       1.392   9.255  17.631  0.00  0.00    +0.000 N 
ATOM      5  C   UNL     1       0.453  10.054  18.300  0.00  0.00    +0.000 A 
ATOM      6  C   UNL     1       0.805  10.802  19.423  0.00  0.00    +0.000 A 
ATOM      7  C   UNL     1      -0.231  11.552  19.982  0.00  0.00    +0.000 A 
ATOM      8  N   UNL     1      -0.271  12.416  21.039  0.00  0.00    +0.000 N 
ATOM      9  N   UNL     1      -1.487  12.921  21.297  0.00  0.00    +0.000 NA
ATOM     10  C   UNL     1      -2.285  12.362  20.381  0.00  0.00    +0.000 A 
ATOM     11  N   UNL     1      -3.618  12.583  20.331  0.00  0.00    +0.000 N 
ATOM     12  C   UNL     1      -4.591  11.999  19.411  0.00  0.00    +0.000 C 
ATOM     13  C   UNL     1      -5.903  12.655  19.919  0.00  0.00    +0.000 C 
ATOM     14  C   UNL     1      -5.667  12.706  21.420  0.00  0.00    +0.000 C 
ATOM     15  C   UNL     1      -4.359  13.474  21.241  0.00  0.00    +0.000 C 
ATOM     16  C   UNL     1      -4.881  14.660  20.409  0.00  0.00    +0.000 C 
ATOM     17  O   UNL     1      -5.896  14.061  19.540  0.00  0.00    +0.000 OA
ATOM     18  C   UNL     1      -1.533  11.522  19.495  0.00  0.00    +0.000 A 
ATOM     19  C   UNL     1      -1.780  10.739  18.362  0.00  0.00    +0.000 A 
ATOM     20  N   UNL     1      -0.776  10.055  17.752  0.00  0.00    +0.000 NA
ATOM     21  H   UNL     1       3.296   8.173  16.614  0.00  0.00    +0.000 HD
ATOM     22  H   UNL     1       1.013   8.890  16.768  0.00  0.00    +0.000 HD
ATOM     23  H   UNL     1       0.501  12.707  21.628  0.00  0.00    +0.000 HD
ENDROOT
BRANCH   1  24
ATOM     24  C   UNL     1       3.936   6.616  17.926  0.00  0.00    +0.000 C 
BRANCH  24  25
ATOM     25  C   UNL     1       3.141   5.381  18.410  0.00  0.00    +0.000 A 
ATOM     26  C   UNL     1       3.496   4.760  19.628  0.00  0.00    +0.000 A 
ATOM     27  C   UNL     1       2.848   3.609  20.081  0.00  0.00    +0.000 A 
ATOM     28  C   UNL     1       1.804   3.078  19.342  0.00  0.00    +0.000 A 
ATOM     29  F   UNL     1       1.182   1.971  19.768  0.00  0.00    +0.000 F 
ATOM     30  C   UNL     1       1.392   3.688  18.165  0.00  0.00    +0.000 A 
ATOM     31  C   UNL     1       2.053   4.835  17.702  0.00  0.00    +0.000 A 
ENDBRANCH  24  25
BRANCH  24  33
ATOM     32  C   UNL     1       5.033   4.791  16.428  0.00  0.00    +0.000 C 
ATOM     33  C   UNL     1       5.070   6.259  16.868  0.00  0.00    +0.000 C 
ATOM     34  C   UNL     1       6.470   6.598  17.395  0.00  0.00    +0.000 C 
BRANCH  33  35
ATOM     35  O   UNL     1       4.869   7.009  15.651  0.00  0.00    +0.000 OA
ATOM     36  H   UNL     1       4.476   6.413  14.987  0.00  0.00    +0.000 HD
ENDBRANCH  33  35
ENDBRANCH  24  33
ENDBRANCH   1  24
TORSDOF 4
ENDMDL
MODEL 3
REMARK VINA RESULT:      -8.5      8.361     10.867
REMARK  Name = 
REMARK  6 active torsions:
REMARK  status: ('A' for Active; 'I' for Inactive)
REMARK    1  A    between atoms: C_1  and  C_2
REMARK    2  A    between atoms: C_2  and  C_3
REMARK    3  A    between atoms: C_2  and  O_4
REMARK    4  A    between atoms: C_2  and  C_5
REMARK    5  A    between atoms: C_5  and  N_6
REMARK    6  A    between atoms: C_5  and  C_26
REMARK                            x       y       z     vdW  Elec       q    Type
REMARK                         _______ _______ _______ _____ _____    ______ ____
ROOT
ATOM      1  N   UNL     1       3.096   7.626  17.758  0.00  0.00    +0.000 N 
ATOM      2  C   UNL     1       2.223   8.305  18.576  0.00  0.00    +0.000 C 
ATOM      3  O   UNL     1       2.107   8.066  19.773  0.00  0.00    +0.000 OA
ATOM      4  N   UNL     1       1.489   9.239  17.887  0.00  0.00    +0.000 N 
ATOM      5  C   UNL     1       0.522  10.033  18.522  0.00  0.00    +0.000 A 
ATOM      6  C   UNL     1       0.805  10.715  19.705  0.00  0.00    +0.000 A 
ATOM      7  C   UNL     1      -0.251  11.469  20.220  0.00  0.00    +0.000 A 
ATOM      8  N   UNL     1      -0.351  12.281  21.313  0.00  0.00    +0.000 N 
ATOM      9  N   UNL     1      -1.569  12.810  21.502  0.00  0.00    +0.000 NA
ATOM     10  C   UNL     1      -2.307  12.322  20.501  0.00  0.00    +0.000 A 
ATOM     11  N   UNL     1      -3.626  12.585  20.359  0.00  0.00    +0.000 N 
ATOM     12  C   UNL     1      -4.540  12.076  19.338  0.00  0.00    +0.000 C 
ATOM     13  C   UNL     1      -5.869  12.747  19.777  0.00  0.00    +0.000 C 
ATOM     14  C   UNL     1      -5.750  12.718  21.292  0.00  0.00    +0.000 C 
ATOM     15  C   UNL     1      -4.412  13.453  21.253  0.00  0.00    +0.000 C 
ATOM     16  C   UNL     1      -4.835  14.693  20.444  0.00  0.00    +0.000 C 
ATOM     17  O   UNL     1      -5.795  14.169  19.471  0.00  0.00    +0.000 OA
ATOM     18  C   UNL     1      -1.511  11.502  19.633  0.00  0.00    +0.000 A 
ATOM     19  C   UNL     1      -1.690  10.783  18.447  0.00  0.00    +0.000 A 
ATOM     20  N   UNL     1      -0.659  10.099  17.882  0.00  0.00    +0.000 NA
ATOM     21  H   UNL     1       3.437   8.150  16.967  0.00  0.00    +0.000 HD
ATOM     22  H   UNL     1       1.169   8.928  16.981  0.00  0.00    +0.000 HD
ATOM     23  H   UNL     1       0.381  12.520  21.973  0.00  0.00    +0.000 HD
ENDROOT
BRANCH   1  24
ATOM     24  C   UNL     1       3.930   6.512  18.244  0.00  0.00    +0.000 C 
BRANCH  24  25
ATOM     25  C   UNL     1       3.063   5.295  18.643  0.00  0.00    +0.000 A 
ATOM     26  C   UNL     1       2.148   4.759  17.709  0.00  0.00    +0.000 A 
ATOM     27  C   UNL     1       1.301   3.698  18.037  0.00  0.00    +0.000 A 
ATOM     28  C   UNL     1       1.381   3.127  19.296  0.00  0.00    +0.000 A 
ATOM     29  F   UNL     1       0.568   2.113  19.619  0.00  0.00    +0.000 F 
ATOM     30  C   UNL     1       2.302   3.593  20.225  0.00  0.00    +0.000 A 
ATOM     31  C   UNL     1       3.141   4.667  19.901  0.00  0.00    +0.000 A 
ENDBRANCH  24  25
BRANCH  24  33
ATOM     32  C   UNL     1       6.475   6.651  17.713  0.00  0.00    +0.000 C 
ATOM     33  C   UNL     1       5.108   6.144  17.238  0.00  0.00    +0.000 C 
ATOM     34  C   UNL     1       4.834   6.667  15.823  0.00  0.00    +0.000 C 
BRANCH  33  35
ATOM     35  O   UNL     1       5.260   4.711  17.152  0.00  0.00    +0.000 OA
ATOM     36  H   UNL     1       4.611   4.300  17.752  0.00  0.00    +0.000 HD
ENDBRANCH  33  35
ENDBRANCH  24  33
ENDBRANCH   1  24
TORSDOF 4
ENDMDL
MODEL 4
REMARK VINA RESULT:      -8.3      6.141      7.519
REMARK  Name = 
REMARK  6 active torsions:
REMARK  status: ('A' for Active; 'I' for Inactive)
REMARK    1  A    between atoms: C_1  and  C_2
REMARK    2  A    between atoms: C_2  and  C_3
REMARK    3  A    between atoms: C_2  and  O_4
REMARK    4  A    between atoms: C_2  and  C_5
REMARK    5  A    between atoms: C_5  and  N_6
REMARK    6  A    between atoms: C_5  and  C_26
REMARK                            x       y       z     vdW  Elec       q    Type
REMARK                         _______ _______ _______ _____ _____    ______ ____
ROOT
ATOM      1  N   UNL     1       0.530  13.730  19.025  0.00  0.00    +0.000 N 
ATOM      2  C   UNL     1       1.036  12.518  19.436  0.00  0.00    +0.000 C 
ATOM      3  O   UNL     1       1.633  12.369  20.495  0.00  0.00    +0.000 OA
ATOM      4  N   UNL     1       0.821  11.527  18.510  0.00  0.00    +0.000 N 
ATOM      5  C   UNL     1       1.272  10.215  18.714  0.00  0.00    +0.000 A 
ATOM      6  C   UNL     1       1.026   9.541  19.909  0.00  0.00    +0.000 A 
ATOM      7  C   UNL     1       1.530   8.241  19.969  0.00  0.00    +0.000 A 
ATOM      8  N   UNL     1       1.465   7.274  20.931  0.00  0.00    +0.000 N 
ATOM      9  N   UNL     1       2.122   6.144  20.629  0.00  0.00    +0.000 NA
ATOM     10  C   UNL     1       2.651   6.374  19.424  0.00  0.00    +0.000 A 
ATOM     11  N   UNL     1       3.437   5.482  18.781  0.00  0.00    +0.000 N 
ATOM     12  C   UNL     1       4.103   5.639  17.489  0.00  0.00    +0.000 C 
ATOM     13  C   UNL     1       4.837   4.276  17.373  0.00  0.00    +0.000 C 
ATOM     14  C   UNL     1       5.234   4.009  18.816  0.00  0.00    +0.000 C 
ATOM     15  C   UNL     1       3.790   4.147  19.293  0.00  0.00    +0.000 C 
ATOM     16  C   UNL     1       3.126   3.105  18.375  0.00  0.00    +0.000 C 
ATOM     17  O   UNL     1       3.850   3.238  17.109  0.00  0.00    +0.000 OA
ATOM     18  C   UNL     1       2.271   7.670  18.939  0.00  0.00    +0.000 A 
ATOM     19  C   UNL     1       2.460   8.431  17.781  0.00  0.00    +0.000 A 
ATOM     20  N   UNL     1       1.918   9.673  17.666  0.00  0.00    +0.000 NA
ATOM     21  H   UNL     1      -0.278  13.676  18.424  0.00  0.00    +0.000 HD
ATOM     22  H   UNL     1       0.962  11.818  17.552  0.00  0.00    +0.000 HD
ATOM     23  H   UNL     1       0.983   7.322  21.822  0.00  0.00    +0.000 HD
ENDROOT
BRANCH   1  24
ATOM     24  C   UNL     1       0.713  14.968  19.805  0.00  0.00    +0.000 C 
BRANCH  24  25
ATOM     25  C   UNL     1       2.064  15.643  19.475  0.00  0.00    +0.000 A 
ATOM     26  C   UNL     1       2.657  15.429  18.211  0.00  0.00    +0.000 A 
ATOM     27  C   UNL     1       3.903  15.968  17.883  0.00  0.00    +0.000 A 
ATOM     28  C   UNL     1       4.563  16.765  18.803  0.00  0.00    +0.000 A 
ATOM     29  F   UNL     1       5.761  17.281  18.497  0.00  0.00    +0.000 F 
ATOM     30  C   UNL     1       3.991  17.040  20.037  0.00  0.00    +0.000 A 
ATOM     31  C   UNL     1       2.748  16.487  20.371  0.00  0.00    +0.000 A 
ENDBRANCH  24  25
BRANCH  24  33
ATOM     32  C   UNL     1      -0.497  16.803  18.410  0.00  0.00    +0.000 C 
ATOM     33  C   UNL     1      -0.530  15.956  19.687  0.00  0.00    +0.000 C 
ATOM     34  C   UNL     1      -0.643  16.878  20.908  0.00  0.00    +0.000 C 
BRANCH  33  35
ATOM     35  O   UNL     1      -1.758  15.203  19.594  0.00  0.00    +0.000 OA
ATOM     36  H   UNL     1      -2.437  15.777  19.195  0.00  0.00    +0.000 HD
ENDBRANCH  33  35
ENDBRANCH  24  33
ENDBRANCH   1  24
TORSDOF 4
ENDMDL
MODEL 5
REMARK VINA RESULT:      -8.2      8.626      9.817
REMARK  Name = 
REMARK  6 active torsions:
REMARK  status: ('A' for Active; 'I' for Inactive)
REMARK    1  A    between atoms: C_1  and  C_2
REMARK    2  A    between atoms: C_2  and  C_3
REMARK    3  A    between atoms: C_2  and  O_4
REMARK    4  A    between atoms: C_2  and  C_5
REMARK    5  A    between atoms: C_5  and  N_6
REMARK    6  A    between atoms: C_5  and  C_26
REMARK                            x       y       z     vdW  Elec       q    Type
REMARK                         _______ _______ _______ _____ _____    ______ ____
ROOT
ATOM      1  N   UNL     1      -1.426  12.177  21.521  0.00  0.00    +0.000 N 
ATOM      2  C   UNL     1      -0.858  11.234  20.696  0.00  0.00    +0.000 C 
ATOM      3  O   UNL     1      -1.233  11.040  19.546  0.00  0.00    +0.000 OA
ATOM      4  N   UNL     1       0.138  10.529  21.327  0.00  0.00    +0.000 N 
ATOM      5  C   UNL     1       0.840   9.502  20.678  0.00  0.00    +0.000 A 
ATOM      6  C   UNL     1       1.387   9.686  19.408  0.00  0.00    +0.000 A 
ATOM      7  C   UNL     1       2.061   8.580  18.889  0.00  0.00    +0.000 A 
ATOM      8  N   UNL     1       2.742   8.386  17.722  0.00  0.00    +0.000 N 
ATOM      9  N   UNL     1       3.228   7.145  17.563  0.00  0.00    +0.000 NA
ATOM     10  C   UNL     1       2.846   6.490  18.663  0.00  0.00    +0.000 A 
ATOM     11  N   UNL     1       3.104   5.179  18.868  0.00  0.00    +0.000 N 
ATOM     12  C   UNL     1       2.701   4.351  20.003  0.00  0.00    +0.000 C 
ATOM     13  C   UNL     1       3.298   2.979  19.589  0.00  0.00    +0.000 C 
ATOM     14  C   UNL     1       3.099   2.992  18.082  0.00  0.00    +0.000 C 
ATOM     15  C   UNL     1       3.853   4.313  17.942  0.00  0.00    +0.000 C 
ATOM     16  C   UNL     1       5.171   3.919  18.634  0.00  0.00    +0.000 C 
ATOM     17  O   UNL     1       4.747   3.042  19.727  0.00  0.00    +0.000 OA
ATOM     18  C   UNL     1       2.142   7.363  19.557  0.00  0.00    +0.000 A 
ATOM     19  C   UNL     1       1.561   7.284  20.827  0.00  0.00    +0.000 A 
ATOM     20  N   UNL     1       0.960   8.367  21.389  0.00  0.00    +0.000 NA
ATOM     21  H   UNL     1      -0.811  12.560  22.221  0.00  0.00    +0.000 HD
ATOM     22  H   UNL     1      -0.073  10.280  22.283  0.00  0.00    +0.000 HD
ATOM     23  H   UNL     1       2.915   9.063  16.988  0.00  0.00    +0.000 HD
ENDROOT
BRANCH   1  24
ATOM     24  C   UNL     1      -2.576  13.000  21.104  0.00  0.00    +0.000 C 
BRANCH  24  25
ATOM     25  C   UNL     1      -3.748  12.873  22.104  0.00  0.00    +0.000 A 
ATOM     26  C   UNL     1      -5.071  12.780  21.616  0.00  0.00    +0.000 A 
ATOM     27  C   UNL     1      -6.169  12.722  22.477  0.00  0.00    +0.000 A 
ATOM     28  C   UNL     1      -5.962  12.716  23.846  0.00  0.00    +0.000 A 
ATOM     29  F   UNL     1      -7.011  12.666  24.678  0.00  0.00    +0.000 F 
ATOM     30  C   UNL     1      -4.675  12.755  24.365  0.00  0.00    +0.000 A 
ATOM     31  C   UNL     1      -3.574  12.830  23.501  0.00  0.00    +0.000 A 
ENDBRANCH  24  25
BRANCH  24  33
ATOM     32  C   UNL     1      -1.100  15.043  21.756  0.00  0.00    +0.000 C 
ATOM     33  C   UNL     1      -2.171  14.509  20.798  0.00  0.00    +0.000 C 
ATOM     34  C   UNL     1      -3.387  15.443  20.822  0.00  0.00    +0.000 C 
BRANCH  33  35
ATOM     35  O   UNL     1      -1.571  14.608  19.488  0.00  0.00    +0.000 OA
ATOM     36  H   UNL     1      -1.880  15.434  19.074  0.00  0.00    +0.000 HD
ENDBRANCH  33  35
ENDBRANCH  24  33
ENDBRANCH   1  24
TORSDOF 4
ENDMDL
MODEL 6
REMARK VINA RESULT:      -8.0      6.654     10.638
REMARK  Name = 
REMARK  6 active torsions:
REMARK  status: ('A' for Active; 'I' for Inactive)
REMARK    1  A    between atoms: C_1  and  C_2
REMARK    2  A    between atoms: C_2  and  C_3
REMARK    3  A    between atoms: C_2  and  O_4
REMARK    4  A    between atoms: C_2  and  C_5
REMARK    5  A    between atoms: C_5  and  N_6
REMARK    6  A    between atoms: C_5  and  C_26
REMARK                            x       y       z     vdW  Elec       q    Type
REMARK                         _______ _______ _______ _____ _____    ______ ____
ROOT
ATOM      1  N   UNL     1       2.238   6.571  18.856  0.00  0.00    +0.000 N 
ATOM      2  C   UNL     1       1.991   7.907  18.640  0.00  0.00    +0.000 C 
ATOM      3  O   UNL     1       2.334   8.493  17.621  0.00  0.00    +0.000 OA
ATOM      4  N   UNL     1       1.355   8.494  19.707  0.00  0.00    +0.000 N 
ATOM      5  C   UNL     1       1.024   9.857  19.711  0.00  0.00    +0.000 A 
ATOM      6  C   UNL     1       0.366  10.447  18.632  0.00  0.00    +0.000 A 
ATOM      7  C   UNL     1       0.097  11.809  18.777  0.00  0.00    +0.000 A 
ATOM      8  N   UNL     1      -0.545  12.708  17.975  0.00  0.00    +0.000 N 
ATOM      9  N   UNL     1      -0.566  13.962  18.452  0.00  0.00    +0.000 NA
ATOM     10  C   UNL     1       0.095  13.892  19.611  0.00  0.00    +0.000 A 
ATOM     11  N   UNL     1       0.335  14.971  20.389  0.00  0.00    +0.000 N 
ATOM     12  C   UNL     1       1.080  15.025  21.646  0.00  0.00    +0.000 C 
ATOM     13  C   UNL     1       0.985  16.539  21.976  0.00  0.00    +0.000 C 
ATOM     14  C   UNL     1       1.067  17.167  20.594  0.00  0.00    +0.000 C 
ATOM     15  C   UNL     1      -0.115  16.342  20.091  0.00  0.00    +0.000 C 
ATOM     16  C   UNL     1      -1.158  16.731  21.155  0.00  0.00    +0.000 C 
ATOM     17  O   UNL     1      -0.379  16.840  22.390  0.00  0.00    +0.000 OA
ATOM     18  C   UNL     1       0.499  12.544  19.887  0.00  0.00    +0.000 A 
ATOM     19  C   UNL     1       1.152  11.855  20.915  0.00  0.00    +0.000 A 
ATOM     20  N   UNL     1       1.362  10.514  20.834  0.00  0.00    +0.000 NA
ATOM     21  H   UNL     1       1.574   6.103  19.452  0.00  0.00    +0.000 HD
ATOM     22  H   UNL     1       1.702   8.199  20.609  0.00  0.00    +0.000 HD
ATOM     23  H   UNL     1      -0.995  12.529  17.084  0.00  0.00    +0.000 HD
ENDROOT
BRANCH   1  24
ATOM     24  C   UNL     1       2.990   5.742  17.896  0.00  0.00    +0.000 C 
BRANCH  24  25
ATOM     25  C   UNL     1       4.515   5.912  18.082  0.00  0.00    +0.000 A 
ATOM     26  C   UNL     1       5.150   5.313  19.192  0.00  0.00    +0.000 A 
ATOM     27  C   UNL     1       6.514   5.483  19.439  0.00  0.00    +0.000 A 
ATOM     28  C   UNL     1       7.278   6.227  18.555  0.00  0.00    +0.000 A 
ATOM     29  F   UNL     1       8.586   6.399  18.788  0.00  0.00    +0.000 F 
ATOM     30  C   UNL     1       6.701   6.790  17.425  0.00  0.00    +0.000 A 
ATOM     31  C   UNL     1       5.329   6.632  17.187  0.00  0.00    +0.000 A 
ENDBRANCH  24  25
BRANCH  24  33
ATOM     32  C   UNL     1       2.314   3.668  19.316  0.00  0.00    +0.000 C 
ATOM     33  C   UNL     1       2.521   4.221  17.901  0.00  0.00    +0.000 C 
ATOM     34  C   UNL     1       3.500   3.319  17.141  0.00  0.00    +0.000 C 
BRANCH  33  35
ATOM     35  O   UNL     1       1.230   4.095  17.268  0.00  0.00    +0.000 OA
ATOM     36  H   UNL     1       1.372   3.853  16.334  0.00  0.00    +0.000 HD
ENDBRANCH  33  35
ENDBRANCH  24  33
ENDBRANCH   1  24
TORSDOF 4
ENDMDL
MODEL 7
REMARK VINA RESULT:      -8.0      7.058      8.627
REMARK  Name = 
REMARK  6 active torsions:
REMARK  status: ('A' for Active; 'I' for Inactive)
REMARK    1  A    between atoms: C_1  and  C_2
REMARK    2  A    between atoms: C_2  and  C_3
REMARK    3  A    between atoms: C_2  and  O_4
REMARK    4  A    between atoms: C_2  and  C_5
REMARK    5  A    between atoms: C_5  and  N_6
REMARK    6  A    between atoms: C_5  and  C_26
REMARK                            x       y       z     vdW  Elec       q    Type
REMARK                         _______ _______ _______ _____ _____    ______ ____
ROOT
ATOM      1  N   UNL     1      -0.611  12.007  20.783  0.00  0.00    +0.000 N 
ATOM      2  C   UNL     1       0.327  11.002  20.727  0.00  0.00    +0.000 C 
ATOM      3  O   UNL     1       1.145  10.801  21.617  0.00  0.00    +0.000 OA
ATOM      4  N   UNL     1       0.253  10.291  19.554  0.00  0.00    +0.000 N 
ATOM      5  C   UNL     1       1.130   9.232  19.276  0.00  0.00    +0.000 A 
ATOM      6  C   UNL     1       1.362   8.218  20.205  0.00  0.00    +0.000 A 
ATOM      7  C   UNL     1       2.254   7.229  19.789  0.00  0.00    +0.000 A 
ATOM      8  N   UNL     1       2.699   6.085  20.387  0.00  0.00    +0.000 N 
ATOM      9  N   UNL     1       3.604   5.400  19.671  0.00  0.00    +0.000 NA
ATOM     10  C   UNL     1       3.773   6.124  18.561  0.00  0.00    +0.000 A 
ATOM     11  N   UNL     1       4.652   5.791  17.589  0.00  0.00    +0.000 N 
ATOM     12  C   UNL     1       4.953   6.523  16.360  0.00  0.00    +0.000 C 
ATOM     13  C   UNL     1       6.042   5.609  15.737  0.00  0.00    +0.000 C 
ATOM     14  C   UNL     1       6.791   5.127  16.968  0.00  0.00    +0.000 C 
ATOM     15  C   UNL     1       5.509   4.592  17.603  0.00  0.00    +0.000 C 
ATOM     16  C   UNL     1       5.036   3.669  16.465  0.00  0.00    +0.000 C 
ATOM     17  O   UNL     1       5.404   4.394  15.247  0.00  0.00    +0.000 OA
ATOM     18  C   UNL     1       2.910   7.269  18.563  0.00  0.00    +0.000 A 
ATOM     19  C   UNL     1       2.604   8.330  17.703  0.00  0.00    +0.000 A 
ATOM     20  N   UNL     1       1.684   9.269  18.051  0.00  0.00    +0.000 NA
ATOM     21  H   UNL     1      -1.464  11.825  20.279  0.00  0.00    +0.000 HD
ATOM     22  H   UNL     1       0.094  10.860  18.735  0.00  0.00    +0.000 HD
ATOM     23  H   UNL     1       2.421   5.710  21.287  0.00  0.00    +0.000 HD
ENDROOT
BRANCH   1  24
ATOM     24  C   UNL     1      -0.674  12.966  21.902  0.00  0.00    +0.000 C 
BRANCH  24  25
ATOM     25  C   UNL     1      -0.377  14.405  21.423  0.00  0.00    +0.000 A 
ATOM     26  C   UNL     1      -1.031  14.904  20.275  0.00  0.00    +0.000 A 
ATOM     27  C   UNL     1      -0.756  16.176  19.766  0.00  0.00    +0.000 A 
ATOM     28  C   UNL     1       0.153  16.989  20.423  0.00  0.00    +0.000 A 
ATOM     29  F   UNL     1       0.425  18.208  19.938  0.00  0.00    +0.000 F 
ATOM     30  C   UNL     1       0.779  16.555  21.583  0.00  0.00    +0.000 A 
ATOM     31  C   UNL     1       0.515  15.273  22.083  0.00  0.00    +0.000 A 
ENDBRANCH  24  25
BRANCH  24  33
ATOM     32  C   UNL     1      -3.273  12.827  21.846  0.00  0.00    +0.000 C 
ATOM     33  C   UNL     1      -2.025  12.846  22.736  0.00  0.00    +0.000 C 
ATOM     34  C   UNL     1      -2.156  13.967  23.774  0.00  0.00    +0.000 C 
BRANCH  33  35
ATOM     35  O   UNL     1      -2.063  11.589  23.444  0.00  0.00    +0.000 OA
ATOM     36  H   UNL     1      -1.914  11.768  24.390  0.00  0.00    +0.000 HD
ENDBRANCH  33  35
ENDBRANCH  24  33
ENDBRANCH   1  24
TORSDOF 4
ENDMDL
MODEL 8
REMARK VINA RESULT:      -7.9      8.306      9.529
REMARK  Name = 
REMARK  6 active torsions:
REMARK  status: ('A' for Active; 'I' for Inactive)
REMARK    1  A    between atoms: C_1  and  C_2
REMARK    2  A    between atoms: C_2  and  C_3
REMARK    3  A    between atoms: C_2  and  O_4
REMARK    4  A    between atoms: C_2  and  C_5
REMARK    5  A    between atoms: C_5  and  N_6
REMARK    6  A    between atoms: C_5  and  C_26
REMARK                            x       y       z     vdW  Elec       q    Type
REMARK                         _______ _______ _______ _____ _____    ______ ____
ROOT
ATOM      1  N   UNL     1      -0.879  12.452  20.822  0.00  0.00    +0.000 N 
ATOM      2  C   UNL     1      -0.429  11.326  20.170  0.00  0.00    +0.000 C 
ATOM      3  O   UNL     1      -0.793  11.018  19.041  0.00  0.00    +0.000 OA
ATOM      4  N   UNL     1       0.434  10.591  20.945  0.00  0.00    +0.000 N 
ATOM      5  C   UNL     1       0.999   9.392  20.486  0.00  0.00    +0.000 A 
ATOM      6  C   UNL     1       1.605   9.307  19.233  0.00  0.00    +0.000 A 
ATOM      7  C   UNL     1       2.127   8.053  18.913  0.00  0.00    +0.000 A 
ATOM      8  N   UNL     1       2.807   7.594  17.822  0.00  0.00    +0.000 N 
ATOM      9  N   UNL     1       3.113   6.288  17.867  0.00  0.00    +0.000 NA
ATOM     10  C   UNL     1       2.606   5.864  19.028  0.00  0.00    +0.000 A 
ATOM     11  N   UNL     1       2.665   4.575  19.431  0.00  0.00    +0.000 N 
ATOM     12  C   UNL     1       2.112   3.989  20.651  0.00  0.00    +0.000 C 
ATOM     13  C   UNL     1       2.516   2.501  20.468  0.00  0.00    +0.000 C 
ATOM     14  C   UNL     1       2.366   2.318  18.966  0.00  0.00    +0.000 C 
ATOM     15  C   UNL     1       3.308   3.485  18.678  0.00  0.00    +0.000 C 
ATOM     16  C   UNL     1       4.533   3.019  19.486  0.00  0.00    +0.000 C 
ATOM     17  O   UNL     1       3.953   2.381  20.669  0.00  0.00    +0.000 OA
ATOM     18  C   UNL     1       2.010   6.950  19.751  0.00  0.00    +0.000 A 
ATOM     19  C   UNL     1       1.385   7.142  20.988  0.00  0.00    +0.000 A 
ATOM     20  N   UNL     1       0.932   8.370  21.358  0.00  0.00    +0.000 NA
ATOM     21  H   UNL     1      -0.236  12.845  21.490  0.00  0.00    +0.000 HD
ATOM     22  H   UNL     1       0.161  10.520  21.915  0.00  0.00    +0.000 HD
ATOM     23  H   UNL     1       3.099   8.124  17.008  0.00  0.00    +0.000 HD
ENDROOT
BRANCH   1  24
ATOM     24  C   UNL     1      -1.884  13.356  20.233  0.00  0.00    +0.000 C 
BRANCH  24  25
ATOM     25  C   UNL     1      -3.298  13.053  20.780  0.00  0.00    +0.000 A 
ATOM     26  C   UNL     1      -4.323  12.675  19.884  0.00  0.00    +0.000 A 
ATOM     27  C   UNL     1      -5.631  12.447  20.317  0.00  0.00    +0.000 A 
ATOM     28  C   UNL     1      -5.930  12.556  21.665  0.00  0.00    +0.000 A 
ATOM     29  F   UNL     1      -7.183  12.344  22.087  0.00  0.00    +0.000 F 
ATOM     30  C   UNL     1      -4.940  12.876  22.584  0.00  0.00    +0.000 A 
ATOM     31  C   UNL     1      -3.631  13.120  22.146  0.00  0.00    +0.000 A 
ENDBRANCH  24  25
BRANCH  24  33
ATOM     32  C   UNL     1      -0.484  15.330  19.273  0.00  0.00    +0.000 C 
ATOM     33  C   UNL     1      -1.476  14.889  20.357  0.00  0.00    +0.000 C 
ATOM     34  C   UNL     1      -0.898  15.216  21.739  0.00  0.00    +0.000 C 
BRANCH  33  35
ATOM     35  O   UNL     1      -2.631  15.731  20.157  0.00  0.00    +0.000 OA
ATOM     36  H   UNL     1      -3.373  15.166  19.871  0.00  0.00    +0.000 HD
ENDBRANCH  33  35
ENDBRANCH  24  33
ENDBRANCH   1  24
TORSDOF 4
ENDMDL
MODEL 9
REMARK VINA RESULT:      -7.9      6.113      7.406
REMARK  Name = 
REMARK  6 active torsions:
REMARK  status: ('A' for Active; 'I' for Inactive)
REMARK    1  A    between atoms: C_1  and  C_2
REMARK    2  A    between atoms: C_2  and  C_3
REMARK    3  A    between atoms: C_2  and  O_4
REMARK    4  A    between atoms: C_2  and  C_5
REMARK    5  A    between atoms: C_5  and  N_6
REMARK    6  A    between atoms: C_5  and  C_26
REMARK                            x       y       z     vdW  Elec       q    Type
REMARK                         _______ _______ _______ _____ _____    ______ ____
ROOT
ATOM      1  N   UNL     1       0.690  13.828  19.079  0.00  0.00    +0.000 N 
ATOM      2  C   UNL     1       1.159  12.599  19.481  0.00  0.00    +0.000 C 
ATOM      3  O   UNL     1       1.770  12.427  20.530  0.00  0.00    +0.000 OA
ATOM      4  N   UNL     1       0.892  11.616  18.559  0.00  0.00    +0.000 N 
ATOM      5  C   UNL     1       1.300  10.289  18.755  0.00  0.00    +0.000 A 
ATOM      6  C   UNL     1       1.050   9.623  19.954  0.00  0.00    +0.000 A 
ATOM      7  C   UNL     1       1.509   8.305  20.005  0.00  0.00    +0.000 A 
ATOM      8  N   UNL     1       1.426   7.342  20.969  0.00  0.00    +0.000 N 
ATOM      9  N   UNL     1       2.037   6.189  20.655  0.00  0.00    +0.000 NA
ATOM     10  C   UNL     1       2.552   6.401  19.440  0.00  0.00    +0.000 A 
ATOM     11  N   UNL     1       3.294   5.481  18.783  0.00  0.00    +0.000 N 
ATOM     12  C   UNL     1       3.942   5.614  17.480  0.00  0.00    +0.000 C 
ATOM     13  C   UNL     1       4.624   4.226  17.350  0.00  0.00    +0.000 C 
ATOM     14  C   UNL     1       5.037   3.944  18.786  0.00  0.00    +0.000 C 
ATOM     15  C   UNL     1       3.608   4.134  19.289  0.00  0.00    +0.000 C 
ATOM     16  C   UNL     1       2.890   3.117  18.383  0.00  0.00    +0.000 C 
ATOM     17  O   UNL     1       3.596   3.224  17.105  0.00  0.00    +0.000 OA
ATOM     18  C   UNL     1       2.210   7.709  18.962  0.00  0.00    +0.000 A 
ATOM     19  C   UNL     1       2.405   8.464  17.801  0.00  0.00    +0.000 A 
ATOM     20  N   UNL     1       1.907   9.725  17.695  0.00  0.00    +0.000 NA
ATOM     21  H   UNL     1      -0.130  13.803  18.493  0.00  0.00    +0.000 HD
ATOM     22  H   UNL     1       1.026  11.903  17.599  0.00  0.00    +0.000 HD
ATOM     23  H   UNL     1       0.962   7.406  21.868  0.00  0.00    +0.000 HD
ENDROOT
BRANCH   1  24
ATOM     24  C   UNL     1       0.931  15.058  19.855  0.00  0.00    +0.000 C 
BRANCH  24  25
ATOM     25  C   UNL     1       2.306  15.676  19.512  0.00  0.00    +0.000 A 
ATOM     26  C   UNL     1       3.137  16.143  20.554  0.00  0.00    +0.000 A 
ATOM     27  C   UNL     1       4.362  16.762  20.296  0.00  0.00    +0.000 A 
ATOM     28  C   UNL     1       4.798  16.891  18.987  0.00  0.00    +0.000 A 
ATOM     29  F   UNL     1       5.969  17.488  18.732  0.00  0.00    +0.000 F 
ATOM     30  C   UNL     1       4.033  16.400  17.938  0.00  0.00    +0.000 A 
ATOM     31  C   UNL     1       2.796  15.793  18.197  0.00  0.00    +0.000 A 
ENDBRANCH  24  25
BRANCH  24  33
ATOM     32  C   UNL     1      -1.590  15.535  20.291  0.00  0.00    +0.000 C 
ATOM     33  C   UNL     1      -0.271  16.096  19.748  0.00  0.00    +0.000 C 
ATOM     34  C   UNL     1      -0.478  16.583  18.309  0.00  0.00    +0.000 C 
BRANCH  33  35
ATOM     35  O   UNL     1      -0.003  17.255  20.567  0.00  0.00    +0.000 OA
ATOM     36  H   UNL     1       0.809  17.680  20.235  0.00  0.00    +0.000 HD
ENDBRANCH  33  35
ENDBRANCH  24  33
ENDBRANCH   1  24
TORSDOF 4
ENDMDL
