MODEL 1
REMARK VINA RESULT:      -7.8      0.000      0.000
REMARK  Name = 
REMARK  8 active torsions:
REMARK  status: ('A' for Active; 'I' for Inactive)
REMARK    1  A    between atoms: C_1  and  C_2
REMARK    2  A    between atoms: C_3  and  C_4
REMARK    3  A    between atoms: C_4  and  N_5
REMARK    4  A    between atoms: C_8  and  C_9
REMARK    5  A    between atoms: N_11  and  C_12
REMARK    6  A    between atoms: N_19  and  C_20
REMARK    7  A    between atoms: C_24  and  N_25
REMARK    8  A    between atoms: C_31  and  C_32
REMARK                            x       y       z     vdW  Elec       q    Type
REMARK                         _______ _______ _______ _____ _____    ______ ____
ROOT
ATOM      1  N   UNL     1       0.745   8.106  21.208  0.00  0.00    +0.000 N 
ATOM      2  C   UNL     1       1.525   8.885  22.018  0.00  0.00    +0.000 A 
ATOM      3  N   UNL     1       1.257  10.166  21.862  0.00  0.00    +0.000 NA
ATOM      4  C   UNL     1       0.234  10.221  20.924  0.00  0.00    +0.000 A 
ATOM      5  C   UNL     1      -0.122   8.935  20.552  0.00  0.00    +0.000 A 
ENDROOT
BRANCH   4   6
ATOM      6  C   UNL     1      -0.341  11.462  20.395  0.00  0.00    +0.000 C 
ATOM      7  O   UNL     1       0.185  12.093  19.480  0.00  0.00    +0.000 OA
ATOM      8  N   UNL     1      -1.499  11.873  21.018  0.00  0.00    +0.000 N 
ATOM      9  H   UNL     1      -1.960  11.198  21.622  0.00  0.00    +0.000 HD
BRANCH   8  10
ATOM     10  C   UNL     1      -2.246  13.002  20.513  0.00  0.00    +0.000 C 
ATOM     11  C   UNL     1      -2.801  13.954  21.656  0.00  0.00    +0.000 C 
ATOM     12  C   UNL     1      -4.370  14.031  21.541  0.00  0.00    +0.000 C 
ATOM     13  C   UNL     1      -4.612  13.140  20.407  0.00  0.00    +0.000 A 
ATOM     14  C   UNL     1      -3.503  12.568  19.861  0.00  0.00    +0.000 A 
ATOM     15  N   UNL     1      -3.809  11.830  18.767  0.00  0.00    +0.000 NA
ATOM     16  C   UNL     1      -5.125  11.959  18.657  0.00  0.00    +0.000 A 
ATOM     17  N   UNL     1      -5.659  12.757  19.645  0.00  0.00    +0.000 N 
ATOM     18  C   UNL     1      -7.036  13.141  19.798  0.00  0.00    +0.000 C 
ENDBRANCH   8  10
ENDBRANCH   4   6
BRANCH   1  19
ATOM     19  C   UNL     1       0.858   6.658  21.038  0.00  0.00    +0.000 C 
BRANCH  19  22
ATOM     20  C   UNL     1       2.168   3.984  21.450  0.00  0.00    +0.000 C 
ATOM     21  C   UNL     1       2.637   4.930  20.362  0.00  0.00    +0.000 A 
ATOM     22  C   UNL     1       2.043   6.204  20.194  0.00  0.00    +0.000 A 
ATOM     23  C   UNL     1       2.591   7.035  19.216  0.00  0.00    +0.000 A 
ATOM     24  C   UNL     1       3.617   6.606  18.367  0.00  0.00    +0.000 A 
ATOM     25  C   UNL     1       4.173   5.321  18.418  0.00  0.00    +0.000 A 
ATOM     26  C   UNL     1       3.710   4.516  19.493  0.00  0.00    +0.000 A 
BRANCH  25  27
ATOM     27  N   UNL     1       5.128   4.922  17.479  0.00  0.00    +0.000 N 
ATOM     28  C   UNL     1       4.824   3.824  16.529  0.00  0.00    +0.000 C 
ATOM     29  C   UNL     1       5.149   4.388  15.177  0.00  0.00    +0.000 C 
ATOM     30  C   UNL     1       6.556   4.490  14.645  0.00  0.00    +0.000 C 
ATOM     31  C   UNL     1       5.926   5.644  15.378  0.00  0.00    +0.000 C 
ATOM     32  C   UNL     1       6.101   5.847  16.854  0.00  0.00    +0.000 C 
ENDBRANCH  25  27
BRANCH  26  33
ATOM     33  C   UNL     1       4.341   3.248  19.783  0.00  0.00    +0.000 C 
ATOM     34  N   UNL     1       4.873   2.244  20.035  0.00  0.00    +0.000 NA
ENDBRANCH  26  33
ENDBRANCH  19  22
ENDBRANCH   1  19
TORSDOF 6
ENDMDL
MODEL 2
REMARK VINA RESULT:      -7.7      3.010      3.977
REMARK  Name = 
REMARK  8 active torsions:
REMARK  status: ('A' for Active; 'I' for Inactive)
REMARK    1  A    between atoms: C_1  and  C_2
REMARK    2  A    between atoms: C_3  and  C_4
REMARK    3  A    between atoms: C_4  and  N_5
REMARK    4  A    between atoms: C_8  and  C_9
REMARK    5  A    between atoms: N_11  and  C_12
REMARK    6  A    between atoms: N_19  and  C_20
REMARK    7  A    between atoms: C_24  and  N_25
REMARK    8  A    between atoms: C_31  and  C_32
REMARK                            x       y       z     vdW  Elec       q    Type
REMARK                         _______ _______ _______ _____ _____    ______ ____
ROOT
ATOM      1  N   UNL     1       1.010   8.315  20.924  0.00  0.00    +0.000 N 
ATOM      2  C   UNL     1       1.279   9.162  21.964  0.00  0.00    +0.000 A 
ATOM      3  N   UNL     1       1.211  10.424  21.592  0.00  0.00    +0.000 NA
ATOM      4  C   UNL     1       0.855  10.398  20.250  0.00  0.00    +0.000 A 
ATOM      5  C   UNL     1       0.679   9.086  19.843  0.00  0.00    +0.000 A 
ENDROOT
BRANCH   4   6
ATOM      6  C   UNL     1       0.726  11.588  19.403  0.00  0.00    +0.000 C 
ATOM      7  O   UNL     1      -0.287  11.822  18.747  0.00  0.00    +0.000 OA
ATOM      8  N   UNL     1       1.836  12.405  19.383  0.00  0.00    +0.000 N 
ATOM      9  H   UNL     1       2.540  12.239  20.096  0.00  0.00    +0.000 HD
BRANCH   8  10
ATOM     10  C   UNL     1       1.800  13.678  18.701  0.00  0.00    +0.000 C 
ATOM     11  C   UNL     1       3.227  14.167  18.203  0.00  0.00    +0.000 C 
ATOM     12  C   UNL     1       3.547  15.563  18.859  0.00  0.00    +0.000 C 
ATOM     13  C   UNL     1       2.352  15.769  19.676  0.00  0.00    +0.000 A 
ATOM     14  C   UNL     1       1.424  14.774  19.623  0.00  0.00    +0.000 A 
ATOM     15  N   UNL     1       0.316  15.086  20.338  0.00  0.00    +0.000 NA
ATOM     16  C   UNL     1       0.586  16.288  20.831  0.00  0.00    +0.000 A 
ATOM     17  N   UNL     1       1.828  16.746  20.448  0.00  0.00    +0.000 N 
ATOM     18  C   UNL     1       2.417  18.019  20.763  0.00  0.00    +0.000 C 
ENDBRANCH   8  10
ENDBRANCH   4   6
BRANCH   1  19
ATOM     19  C   UNL     1       1.110   6.857  20.950  0.00  0.00    +0.000 C 
BRANCH  19  22
ATOM     20  C   UNL     1       2.219   4.106  21.444  0.00  0.00    +0.000 C 
ATOM     21  C   UNL     1       2.734   4.970  20.309  0.00  0.00    +0.000 A 
ATOM     22  C   UNL     1       2.236   6.279  20.101  0.00  0.00    +0.000 A 
ATOM     23  C   UNL     1       2.824   7.026  19.079  0.00  0.00    +0.000 A 
ATOM     24  C   UNL     1       3.793   6.485  18.227  0.00  0.00    +0.000 A 
ATOM     25  C   UNL     1       4.249   5.163  18.319  0.00  0.00    +0.000 A 
ATOM     26  C   UNL     1       3.751   4.439  19.436  0.00  0.00    +0.000 A 
BRANCH  25  27
ATOM     27  N   UNL     1       5.148   4.654  17.377  0.00  0.00    +0.000 N 
ATOM     28  C   UNL     1       4.675   4.286  16.021  0.00  0.00    +0.000 C 
ATOM     29  C   UNL     1       5.606   4.999  15.085  0.00  0.00    +0.000 C 
ATOM     30  C   UNL     1       6.991   4.499  14.763  0.00  0.00    +0.000 C 
ATOM     31  C   UNL     1       6.770   5.485  15.878  0.00  0.00    +0.000 C 
ATOM     32  C   UNL     1       6.571   5.055  17.302  0.00  0.00    +0.000 C 
ENDBRANCH  25  27
BRANCH  26  33
ATOM     33  C   UNL     1       4.288   3.138  19.763  0.00  0.00    +0.000 C 
ATOM     34  N   UNL     1       4.730   2.103  20.058  0.00  0.00    +0.000 NA
ENDBRANCH  26  33
ENDBRANCH  19  22
ENDBRANCH   1  19
TORSDOF 6
ENDMDL
MODEL 3
REMARK VINA RESULT:      -7.7      1.266      1.402
REMARK  Name = 
REMARK  8 active torsions:
REMARK  status: ('A' for Active; 'I' for Inactive)
REMARK    1  A    between atoms: C_1  and  C_2
REMARK    2  A    between atoms: C_3  and  C_4
REMARK    3  A    between atoms: C_4  and  N_5
REMARK    4  A    between atoms: C_8  and  C_9
REMARK    5  A    between atoms: N_11  and  C_12
REMARK    6  A    between atoms: N_19  and  C_20
REMARK    7  A    between atoms: C_24  and  N_25
REMARK    8  A    between atoms: C_31  and  C_32
REMARK                            x       y       z     vdW  Elec       q    Type
REMARK                         _______ _______ _______ _____ _____    ______ ____
ROOT
ATOM      1  N   UNL     1       1.064   8.382  20.625  0.00  0.00    +0.000 N 
ATOM      2  C   UNL     1       1.341   9.111  19.501  0.00  0.00    +0.000 A 
ATOM      3  N   UNL     1       0.981  10.371  19.641  0.00  0.00    +0.000 NA
ATOM      4  C   UNL     1       0.469  10.472  20.927  0.00  0.00    +0.000 A 
ATOM      5  C   UNL     1       0.565   9.245  21.562  0.00  0.00    +0.000 A 
ENDROOT
BRANCH   4   6
ATOM      6  C   UNL     1      -0.115  11.692  21.495  0.00  0.00    +0.000 C 
ATOM      7  O   UNL     1       0.544  12.714  21.676  0.00  0.00    +0.000 OA
ATOM      8  N   UNL     1      -1.448  11.593  21.829  0.00  0.00    +0.000 N 
ATOM      9  H   UNL     1      -1.953  10.788  21.469  0.00  0.00    +0.000 HD
BRANCH   8  10
ATOM     10  C   UNL     1      -2.185  12.754  22.270  0.00  0.00    +0.000 C 
ATOM     11  C   UNL     1      -2.680  12.654  23.776  0.00  0.00    +0.000 C 
ATOM     12  C   UNL     1      -4.249  12.780  23.808  0.00  0.00    +0.000 C 
ATOM     13  C   UNL     1      -4.549  12.914  22.383  0.00  0.00    +0.000 A 
ATOM     14  C   UNL     1      -3.473  12.882  21.550  0.00  0.00    +0.000 A 
ATOM     15  N   UNL     1      -3.832  13.099  20.261  0.00  0.00    +0.000 NA
ATOM     16  C   UNL     1      -5.148  13.261  20.323  0.00  0.00    +0.000 A 
ATOM     17  N   UNL     1      -5.630  13.155  21.610  0.00  0.00    +0.000 N 
ATOM     18  C   UNL     1      -6.992  13.320  22.040  0.00  0.00    +0.000 C 
ENDBRANCH   8  10
ENDBRANCH   4   6
BRANCH   1  19
ATOM     19  C   UNL     1       1.223   6.936  20.775  0.00  0.00    +0.000 C 
BRANCH  19  22
ATOM     20  C   UNL     1       2.323   4.198  21.351  0.00  0.00    +0.000 C 
ATOM     21  C   UNL     1       2.834   5.022  20.185  0.00  0.00    +0.000 A 
ATOM     22  C   UNL     1       2.341   6.326  19.938  0.00  0.00    +0.000 A 
ATOM     23  C   UNL     1       2.925   7.037  18.889  0.00  0.00    +0.000 A 
ATOM     24  C   UNL     1       3.886   6.464  18.049  0.00  0.00    +0.000 A 
ATOM     25  C   UNL     1       4.337   5.144  18.181  0.00  0.00    +0.000 A 
ATOM     26  C   UNL     1       3.843   4.459  19.324  0.00  0.00    +0.000 A 
BRANCH  25  27
ATOM     27  N   UNL     1       5.228   4.601  17.251  0.00  0.00    +0.000 N 
ATOM     28  C   UNL     1       4.715   3.954  16.019  0.00  0.00    +0.000 C 
ATOM     29  C   UNL     1       5.468   4.610  14.900  0.00  0.00    +0.000 C 
ATOM     30  C   UNL     1       6.882   4.241  14.532  0.00  0.00    +0.000 C 
ATOM     31  C   UNL     1       6.607   5.365  15.494  0.00  0.00    +0.000 C 
ATOM     32  C   UNL     1       6.572   5.158  16.980  0.00  0.00    +0.000 C 
ENDBRANCH  25  27
BRANCH  26  33
ATOM     33  C   UNL     1       4.378   3.167  19.690  0.00  0.00    +0.000 C 
ATOM     34  N   UNL     1       4.804   2.117  19.953  0.00  0.00    +0.000 NA
ENDBRANCH  26  33
ENDBRANCH  19  22
ENDBRANCH   1  19
TORSDOF 6
ENDMDL
MODEL 4
REMARK VINA RESULT:      -7.7      1.477      1.922
REMARK  Name = 
REMARK  8 active torsions:
REMARK  status: ('A' for Active; 'I' for Inactive)
REMARK    1  A    between atoms: C_1  and  C_2
REMARK    2  A    between atoms: C_3  and  C_4
REMARK    3  A    between atoms: C_4  and  N_5
REMARK    4  A    between atoms: C_8  and  C_9
REMARK    5  A    between atoms: N_11  and  C_12
REMARK    6  A    between atoms: N_19  and  C_20
REMARK    7  A    between atoms: C_24  and  N_25
REMARK    8  A    between atoms: C_31  and  C_32
REMARK                            x       y       z     vdW  Elec       q    Type
REMARK                         _______ _______ _______ _____ _____    ______ ____
ROOT
ATOM      1  N   UNL     1       0.590   8.392  21.369  0.00  0.00    +0.000 N 
ATOM      2  C   UNL     1       1.478   9.041  22.181  0.00  0.00    +0.000 A 
ATOM      3  N   UNL     1       1.164  10.313  22.325  0.00  0.00    +0.000 NA
ATOM      4  C   UNL     1      -0.001  10.494  21.591  0.00  0.00    +0.000 A 
ATOM      5  C   UNL     1      -0.390   9.287  21.035  0.00  0.00    +0.000 A 
ENDROOT
BRANCH   4   6
ATOM      6  C   UNL     1      -0.679  11.783  21.415  0.00  0.00    +0.000 C 
ATOM      7  O   UNL     1      -0.761  12.339  20.321  0.00  0.00    +0.000 OA
ATOM      8  N   UNL     1      -1.192  12.328  22.572  0.00  0.00    +0.000 N 
ATOM      9  H   UNL     1      -1.249  11.716  23.381  0.00  0.00    +0.000 HD
BRANCH   8  10
ATOM     10  C   UNL     1      -2.001  13.523  22.526  0.00  0.00    +0.000 C 
ATOM     11  C   UNL     1      -2.004  14.336  23.891  0.00  0.00    +0.000 C 
ATOM     12  C   UNL     1      -3.485  14.455  24.412  0.00  0.00    +0.000 C 
ATOM     13  C   UNL     1      -4.207  13.717  23.377  0.00  0.00    +0.000 A 
ATOM     14  C   UNL     1      -3.438  13.198  22.380  0.00  0.00    +0.000 A 
ATOM     15  N   UNL     1      -4.194  12.606  21.423  0.00  0.00    +0.000 NA
ATOM     16  C   UNL     1      -5.438  12.772  21.855  0.00  0.00    +0.000 A 
ATOM     17  N   UNL     1      -5.491  13.450  23.054  0.00  0.00    +0.000 N 
ATOM     18  C   UNL     1      -6.672  13.837  23.778  0.00  0.00    +0.000 C 
ENDBRANCH   8  10
ENDBRANCH   4   6
BRANCH   1  19
ATOM     19  C   UNL     1       0.699   7.011  20.901  0.00  0.00    +0.000 C 
BRANCH  19  22
ATOM     20  C   UNL     1       2.392   4.534  21.093  0.00  0.00    +0.000 C 
ATOM     21  C   UNL     1       2.629   5.567  20.008  0.00  0.00    +0.000 A 
ATOM     22  C   UNL     1       1.855   6.751  19.942  0.00  0.00    +0.000 A 
ATOM     23  C   UNL     1       2.196   7.678  18.956  0.00  0.00    +0.000 A 
ATOM     24  C   UNL     1       3.191   7.420  18.007  0.00  0.00    +0.000 A 
ATOM     25  C   UNL     1       3.919   6.224  17.959  0.00  0.00    +0.000 A 
ATOM     26  C   UNL     1       3.667   5.332  19.036  0.00  0.00    +0.000 A 
BRANCH  25  27
ATOM     27  N   UNL     1       4.832   5.989  16.928  0.00  0.00    +0.000 N 
ATOM     28  C   UNL     1       6.255   6.373  17.093  0.00  0.00    +0.000 C 
ATOM     29  C   UNL     1       7.028   5.134  16.746  0.00  0.00    +0.000 C 
ATOM     30  C   UNL     1       7.287   4.697  15.327  0.00  0.00    +0.000 C 
ATOM     31  C   UNL     1       6.093   4.180  16.085  0.00  0.00    +0.000 C 
ATOM     32  C   UNL     1       4.746   4.836  16.003  0.00  0.00    +0.000 C 
ENDBRANCH  25  27
BRANCH  26  33
ATOM     33  C   UNL     1       4.488   4.156  19.220  0.00  0.00    +0.000 C 
ATOM     34  N   UNL     1       5.153   3.208  19.334  0.00  0.00    +0.000 NA
ENDBRANCH  26  33
ENDBRANCH  19  22
ENDBRANCH   1  19
TORSDOF 6
ENDMDL
MODEL 5
REMARK VINA RESULT:      -7.7      3.004      4.460
REMARK  Name = 
REMARK  8 active torsions:
REMARK  status: ('A' for Active; 'I' for Inactive)
REMARK    1  A    between atoms: C_1  and  C_2
REMARK    2  A    between atoms: C_3  and  C_4
REMARK    3  A    between atoms: C_4  and  N_5
REMARK    4  A    between atoms: C_8  and  C_9
REMARK    5  A    between atoms: N_11  and  C_12
REMARK    6  A    between atoms: N_19  and  C_20
REMARK    7  A    between atoms: C_24  and  N_25
REMARK    8  A    between atoms: C_31  and  C_32
REMARK                            x       y       z     vdW  Elec       q    Type
REMARK                         _______ _______ _______ _____ _____    ______ ____
ROOT
ATOM      1  N   UNL     1       0.867   8.023  21.182  0.00  0.00    +0.000 N 
ATOM      2  C   UNL     1       1.525   8.565  22.252  0.00  0.00    +0.000 A 
ATOM      3  N   UNL     1       1.478   9.881  22.233  0.00  0.00    +0.000 NA
ATOM      4  C   UNL     1       0.729  10.211  21.110  0.00  0.00    +0.000 A 
ATOM      5  C   UNL     1       0.304   9.054  20.480  0.00  0.00    +0.000 A 
ENDROOT
BRANCH   4   6
ATOM      6  C   UNL     1       0.472  11.583  20.658  0.00  0.00    +0.000 C 
ATOM      7  O   UNL     1      -0.617  12.132  20.810  0.00  0.00    +0.000 OA
ATOM      8  N   UNL     1       1.537  12.193  20.032  0.00  0.00    +0.000 N 
ATOM      9  H   UNL     1       2.443  11.743  20.124  0.00  0.00    +0.000 HD
BRANCH   8  10
ATOM     10  C   UNL     1       1.471  13.587  19.657  0.00  0.00    +0.000 C 
ATOM     11  C   UNL     1       2.043  13.878  18.205  0.00  0.00    +0.000 C 
ATOM     12  C   UNL     1       3.228  14.910  18.320  0.00  0.00    +0.000 C 
ATOM     13  C   UNL     1       3.277  15.121  19.765  0.00  0.00    +0.000 A 
ATOM     14  C   UNL     1       2.370  14.414  20.494  0.00  0.00    +0.000 A 
ATOM     15  N   UNL     1       2.429  14.733  21.811  0.00  0.00    +0.000 NA
ATOM     16  C   UNL     1       3.391  15.645  21.872  0.00  0.00    +0.000 A 
ATOM     17  N   UNL     1       3.939  15.913  20.636  0.00  0.00    +0.000 N 
ATOM     18  C   UNL     1       4.965  16.875  20.334  0.00  0.00    +0.000 C 
ENDBRANCH   8  10
ENDBRANCH   4   6
BRANCH   1  19
ATOM     19  C   UNL     1       0.820   6.605  20.826  0.00  0.00    +0.000 C 
BRANCH  19  22
ATOM     20  C   UNL     1       2.104   3.944  21.381  0.00  0.00    +0.000 C 
ATOM     21  C   UNL     1       2.601   4.839  20.262  0.00  0.00    +0.000 A 
ATOM     22  C   UNL     1       2.019   6.108  20.026  0.00  0.00    +0.000 A 
ATOM     23  C   UNL     1       2.592   6.892  19.024  0.00  0.00    +0.000 A 
ATOM     24  C   UNL     1       3.631   6.420  18.215  0.00  0.00    +0.000 A 
ATOM     25  C   UNL     1       4.178   5.135  18.334  0.00  0.00    +0.000 A 
ATOM     26  C   UNL     1       3.688   4.381  19.434  0.00  0.00    +0.000 A 
BRANCH  25  27
ATOM     27  N   UNL     1       5.149   4.690  17.432  0.00  0.00    +0.000 N 
ATOM     28  C   UNL     1       4.754   4.250  16.072  0.00  0.00    +0.000 C 
ATOM     29  C   UNL     1       5.647   5.024  15.146  0.00  0.00    +0.000 C 
ATOM     30  C   UNL     1       7.081   4.646  14.879  0.00  0.00    +0.000 C 
ATOM     31  C   UNL     1       6.736   5.632  15.962  0.00  0.00    +0.000 C 
ATOM     32  C   UNL     1       6.531   5.217  17.389  0.00  0.00    +0.000 C 
ENDBRANCH  25  27
BRANCH  26  33
ATOM     33  C   UNL     1       4.305   3.124  19.792  0.00  0.00    +0.000 C 
ATOM     34  N   UNL     1       4.833   2.125  20.073  0.00  0.00    +0.000 NA
ENDBRANCH  26  33
ENDBRANCH  19  22
ENDBRANCH   1  19
TORSDOF 6
ENDMDL
MODEL 6
REMARK VINA RESULT:      -7.6      0.841      1.112
REMARK  Name = 
REMARK  8 active torsions:
REMARK  status: ('A' for Active; 'I' for Inactive)
REMARK    1  A    between atoms: C_1  and  C_2
REMARK    2  A    between atoms: C_3  and  C_4
REMARK    3  A    between atoms: C_4  and  N_5
REMARK    4  A    between atoms: C_8  and  C_9
REMARK    5  A    between atoms: N_11  and  C_12
REMARK    6  A    between atoms: N_19  and  C_20
REMARK    7  A    between atoms: C_24  and  N_25
REMARK    8  A    between atoms: C_31  and  C_32
REMARK                            x       y       z     vdW  Elec       q    Type
REMARK                         _______ _______ _______ _____ _____    ______ ____
ROOT
ATOM      1  N   UNL     1       0.614   8.569  21.254  0.00  0.00    +0.000 N 
ATOM      2  C   UNL     1       1.280   9.332  22.174  0.00  0.00    +0.000 A 
ATOM      3  N   UNL     1       0.941  10.602  22.086  0.00  0.00    +0.000 NA
ATOM      4  C   UNL     1      -0.011  10.665  21.077  0.00  0.00    +0.000 A 
ATOM      5  C   UNL     1      -0.255   9.391  20.590  0.00  0.00    +0.000 A 
ENDROOT
BRANCH   4   6
ATOM      6  C   UNL     1      -0.625  11.906  20.592  0.00  0.00    +0.000 C 
ATOM      7  O   UNL     1      -0.133  12.572  19.684  0.00  0.00    +0.000 OA
ATOM      8  N   UNL     1      -1.779  12.273  21.249  0.00  0.00    +0.000 N 
ATOM      9  H   UNL     1      -2.212  11.573  21.844  0.00  0.00    +0.000 HD
BRANCH   8  10
ATOM     10  C   UNL     1      -2.562  13.397  20.788  0.00  0.00    +0.000 C 
ATOM     11  C   UNL     1      -2.925  14.428  21.940  0.00  0.00    +0.000 C 
ATOM     12  C   UNL     1      -4.492  14.550  22.042  0.00  0.00    +0.000 C 
ATOM     13  C   UNL     1      -4.915  13.607  21.008  0.00  0.00    +0.000 A 
ATOM     14  C   UNL     1      -3.910  12.970  20.346  0.00  0.00    +0.000 A 
ATOM     15  N   UNL     1      -4.387  12.183  19.351  0.00  0.00    +0.000 NA
ATOM     16  C   UNL     1      -5.701  12.349  19.420  0.00  0.00    +0.000 A 
ATOM     17  N   UNL     1      -6.069  13.218  20.425  0.00  0.00    +0.000 N 
ATOM     18  C   UNL     1      -7.400  13.655  20.747  0.00  0.00    +0.000 C 
ENDBRANCH   8  10
ENDBRANCH   4   6
BRANCH   1  19
ATOM     19  C   UNL     1       0.832   7.147  20.993  0.00  0.00    +0.000 C 
BRANCH  19  22
ATOM     20  C   UNL     1       2.464   4.627  21.152  0.00  0.00    +0.000 C 
ATOM     21  C   UNL     1       2.687   5.640  20.046  0.00  0.00    +0.000 A 
ATOM     22  C   UNL     1       1.943   6.843  19.995  0.00  0.00    +0.000 A 
ATOM     23  C   UNL     1       2.271   7.749  18.985  0.00  0.00    +0.000 A 
ATOM     24  C   UNL     1       3.222   7.453  18.002  0.00  0.00    +0.000 A 
ATOM     25  C   UNL     1       3.915   6.237  17.942  0.00  0.00    +0.000 A 
ATOM     26  C   UNL     1       3.681   5.365  19.039  0.00  0.00    +0.000 A 
BRANCH  25  27
ATOM     27  N   UNL     1       4.782   5.964  16.880  0.00  0.00    +0.000 N 
ATOM     28  C   UNL     1       6.207   6.365  16.962  0.00  0.00    +0.000 C 
ATOM     29  C   UNL     1       6.975   5.119  16.632  0.00  0.00    +0.000 C 
ATOM     30  C   UNL     1       7.171   4.623  15.222  0.00  0.00    +0.000 C 
ATOM     31  C   UNL     1       6.019   4.131  16.057  0.00  0.00    +0.000 C 
ATOM     32  C   UNL     1       4.664   4.772  16.010  0.00  0.00    +0.000 C 
ENDBRANCH  25  27
BRANCH  26  33
ATOM     33  C   UNL     1       4.476   4.169  19.207  0.00  0.00    +0.000 C 
ATOM     34  N   UNL     1       5.116   3.203  19.308  0.00  0.00    +0.000 NA
ENDBRANCH  26  33
ENDBRANCH  19  22
ENDBRANCH   1  19
TORSDOF 6
ENDMDL
MODEL 7
REMARK VINA RESULT:      -7.5      2.369      3.803
REMARK  Name = 
REMARK  8 active torsions:
REMARK  status: ('A' for Active; 'I' for Inactive)
REMARK    1  A    between atoms: C_1  and  C_2
REMARK    2  A    between atoms: C_3  and  C_4
REMARK    3  A    between atoms: C_4  and  N_5
REMARK    4  A    between atoms: C_8  and  C_9
REMARK    5  A    between atoms: N_11  and  C_12
REMARK    6  A    between atoms: N_19  and  C_20
REMARK    7  A    between atoms: C_24  and  N_25
REMARK    8  A    between atoms: C_31  and  C_32
REMARK                            x       y       z     vdW  Elec       q    Type
REMARK                         _______ _______ _______ _____ _____    ______ ____
ROOT
ATOM      1  N   UNL     1      -0.549  10.608  18.686  0.00  0.00    +0.000 N 
ATOM      2  C   UNL     1      -0.967  10.006  17.531  0.00  0.00    +0.000 A 
ATOM      3  N   UNL     1      -2.239  10.251  17.290  0.00  0.00    +0.000 NA
ATOM      4  C   UNL     1      -2.662  11.075  18.325  0.00  0.00    +0.000 A 
ATOM      5  C   UNL     1      -1.598  11.341  19.170  0.00  0.00    +0.000 A 
ENDROOT
BRANCH   4   6
ATOM      6  C   UNL     1      -4.039  11.550  18.498  0.00  0.00    +0.000 C 
ATOM      7  O   UNL     1      -4.925  11.310  17.680  0.00  0.00    +0.000 OA
ATOM      8  N   UNL     1      -4.252  12.301  19.633  0.00  0.00    +0.000 N 
ATOM      9  H   UNL     1      -3.522  12.282  20.340  0.00  0.00    +0.000 HD
BRANCH   8  10
ATOM     10  C   UNL     1      -5.586  12.717  20.001  0.00  0.00    +0.000 C 
ATOM     11  C   UNL     1      -6.001  14.121  19.385  0.00  0.00    +0.000 C 
ATOM     12  C   UNL     1      -6.356  15.109  20.558  0.00  0.00    +0.000 C 
ATOM     13  C   UNL     1      -6.112  14.261  21.724  0.00  0.00    +0.000 A 
ATOM     14  C   UNL     1      -5.684  12.997  21.452  0.00  0.00    +0.000 A 
ATOM     15  N   UNL     1      -5.565  12.256  22.580  0.00  0.00    +0.000 NA
ATOM     16  C   UNL     1      -5.927  13.091  23.546  0.00  0.00    +0.000 A 
ATOM     17  N   UNL     1      -6.271  14.335  23.063  0.00  0.00    +0.000 N 
ATOM     18  C   UNL     1      -6.749  15.458  23.824  0.00  0.00    +0.000 C 
ENDBRANCH   8  10
ENDBRANCH   4   6
BRANCH   1  19
ATOM     19  C   UNL     1       0.763  10.451  19.313  0.00  0.00    +0.000 C 
BRANCH  19  22
ATOM     20  C   UNL     1       0.726   8.147  21.243  0.00  0.00    +0.000 C 
ATOM     21  C   UNL     1       1.416   8.035  19.898  0.00  0.00    +0.000 A 
ATOM     22  C   UNL     1       1.465   9.134  19.006  0.00  0.00    +0.000 A 
ATOM     23  C   UNL     1       2.187   8.961  17.825  0.00  0.00    +0.000 A 
ATOM     24  C   UNL     1       2.760   7.733  17.478  0.00  0.00    +0.000 A 
ATOM     25  C   UNL     1       2.657   6.582  18.272  0.00  0.00    +0.000 A 
ATOM     26  C   UNL     1       2.035   6.785  19.534  0.00  0.00    +0.000 A 
BRANCH  25  27
ATOM     27  N   UNL     1       3.170   5.361  17.825  0.00  0.00    +0.000 N 
ATOM     28  C   UNL     1       4.468   4.866  18.342  0.00  0.00    +0.000 C 
ATOM     29  C   UNL     1       4.186   3.467  18.806  0.00  0.00    +0.000 C 
ATOM     30  C   UNL     1       4.086   2.293  17.867  0.00  0.00    +0.000 C 
ATOM     31  C   UNL     1       2.857   3.064  18.267  0.00  0.00    +0.000 C 
ATOM     32  C   UNL     1       2.326   4.205  17.450  0.00  0.00    +0.000 C 
ENDBRANCH  25  27
BRANCH  26  33
ATOM     33  C   UNL     1       2.040   5.737  20.529  0.00  0.00    +0.000 C 
ATOM     34  N   UNL     1       2.073   4.880  21.316  0.00  0.00    +0.000 NA
ENDBRANCH  26  33
ENDBRANCH  19  22
ENDBRANCH   1  19
TORSDOF 6
ENDMDL
MODEL 8
REMARK VINA RESULT:      -7.5      2.439      3.631
REMARK  Name = 
REMARK  8 active torsions:
REMARK  status: ('A' for Active; 'I' for Inactive)
REMARK    1  A    between atoms: C_1  and  C_2
REMARK    2  A    between atoms: C_3  and  C_4
REMARK    3  A    between atoms: C_4  and  N_5
REMARK    4  A    between atoms: C_8  and  C_9
REMARK    5  A    between atoms: N_11  and  C_12
REMARK    6  A    between atoms: N_19  and  C_20
REMARK    7  A    between atoms: C_24  and  N_25
REMARK    8  A    between atoms: C_31  and  C_32
REMARK                            x       y       z     vdW  Elec       q    Type
REMARK                         _______ _______ _______ _____ _____    ______ ____
ROOT
ATOM      1  N   UNL     1       0.836   7.914  21.396  0.00  0.00    +0.000 N 
ATOM      2  C   UNL     1       1.926   8.413  22.056  0.00  0.00    +0.000 A 
ATOM      3  N   UNL     1       1.765   9.685  22.362  0.00  0.00    +0.000 NA
ATOM      4  C   UNL     1       0.499  10.022  21.903  0.00  0.00    +0.000 A 
ATOM      5  C   UNL     1      -0.103   8.907  21.345  0.00  0.00    +0.000 A 
ENDROOT
BRANCH   4   6
ATOM      6  C   UNL     1      -0.078  11.369  21.974  0.00  0.00    +0.000 C 
ATOM      7  O   UNL     1      -0.667  11.780  22.972  0.00  0.00    +0.000 OA
ATOM      8  N   UNL     1       0.072  12.122  20.830  0.00  0.00    +0.000 N 
ATOM      9  H   UNL     1       0.732  11.779  20.138  0.00  0.00    +0.000 HD
BRANCH   8  10
ATOM     10  C   UNL     1      -0.326  13.511  20.806  0.00  0.00    +0.000 C 
ATOM     11  C   UNL     1      -0.757  14.019  19.365  0.00  0.00    +0.000 C 
ATOM     12  C   UNL     1       0.167  15.225  18.950  0.00  0.00    +0.000 C 
ATOM     13  C   UNL     1       1.047  15.317  20.114  0.00  0.00    +0.000 A 
ATOM     14  C   UNL     1       0.817  14.405  21.099  0.00  0.00    +0.000 A 
ATOM     15  N   UNL     1       1.617  14.616  22.173  0.00  0.00    +0.000 NA
ATOM     16  C   UNL     1       2.342  15.671  21.823  0.00  0.00    +0.000 A 
ATOM     17  N   UNL     1       2.023  16.134  20.565  0.00  0.00    +0.000 N 
ATOM     18  C   UNL     1       2.579  17.280  19.897  0.00  0.00    +0.000 C 
ENDBRANCH   8  10
ENDBRANCH   4   6
BRANCH   1  19
ATOM     19  C   UNL     1       0.722   6.580  20.807  0.00  0.00    +0.000 C 
BRANCH  19  22
ATOM     20  C   UNL     1       2.031   3.933  21.367  0.00  0.00    +0.000 C 
ATOM     21  C   UNL     1       2.548   4.851  20.276  0.00  0.00    +0.000 A 
ATOM     22  C   UNL     1       1.953   6.113  20.039  0.00  0.00    +0.000 A 
ATOM     23  C   UNL     1       2.544   6.920  19.066  0.00  0.00    +0.000 A 
ATOM     24  C   UNL     1       3.616   6.476  18.285  0.00  0.00    +0.000 A 
ATOM     25  C   UNL     1       4.180   5.199  18.403  0.00  0.00    +0.000 A 
ATOM     26  C   UNL     1       3.668   4.422  19.478  0.00  0.00    +0.000 A 
BRANCH  25  27
ATOM     27  N   UNL     1       5.186   4.781  17.527  0.00  0.00    +0.000 N 
ATOM     28  C   UNL     1       4.833   4.074  16.273  0.00  0.00    +0.000 C 
ATOM     29  C   UNL     1       5.553   4.828  15.193  0.00  0.00    +0.000 C 
ATOM     30  C   UNL     1       7.022   4.651  14.907  0.00  0.00    +0.000 C 
ATOM     31  C   UNL     1       6.546   5.727  15.847  0.00  0.00    +0.000 C 
ATOM     32  C   UNL     1       6.456   5.514  17.329  0.00  0.00    +0.000 C 
ENDBRANCH  25  27
BRANCH  26  33
ATOM     33  C   UNL     1       4.294   3.169  19.837  0.00  0.00    +0.000 C 
ATOM     34  N   UNL     1       4.806   2.175  20.158  0.00  0.00    +0.000 NA
ENDBRANCH  26  33
ENDBRANCH  19  22
ENDBRANCH   1  19
TORSDOF 6
ENDMDL
MODEL 9
REMARK VINA RESULT:      -7.5      2.247      3.307
REMARK  Name = 
REMARK  8 active torsions:
REMARK  status: ('A' for Active; 'I' for Inactive)
REMARK    1  A    between atoms: C_1  and  C_2
REMARK    2  A    between atoms: C_3  and  C_4
REMARK    3  A    between atoms: C_4  and  N_5
REMARK    4  A    between atoms: C_8  and  C_9
REMARK    5  A    between atoms: N_11  and  C_12
REMARK    6  A    between atoms: N_19  and  C_20
REMARK    7  A    between atoms: C_24  and  N_25
REMARK    8  A    between atoms: C_31  and  C_32
REMARK                            x       y       z     vdW  Elec       q    Type
REMARK                         _______ _______ _______ _____ _____    ______ ____
ROOT
ATOM      1  N   UNL     1       0.115  10.220  18.666  0.00  0.00    +0.000 N 
ATOM      2  C   UNL     1      -0.653   9.306  17.997  0.00  0.00    +0.000 A 
ATOM      3  N   UNL     1      -1.887   9.737  17.835  0.00  0.00    +0.000 NA
ATOM      4  C   UNL     1      -1.917  11.004  18.403  0.00  0.00    +0.000 A 
ATOM      5  C   UNL     1      -0.657  11.329  18.877  0.00  0.00    +0.000 A 
ENDROOT
BRANCH   4   6
ATOM      6  C   UNL     1      -3.119  11.839  18.507  0.00  0.00    +0.000 C 
ATOM      7  O   UNL     1      -3.945  11.919  17.600  0.00  0.00    +0.000 OA
ATOM      8  N   UNL     1      -3.234  12.539  19.688  0.00  0.00    +0.000 N 
ATOM      9  H   UNL     1      -2.617  12.265  20.447  0.00  0.00    +0.000 HD
BRANCH   8  10
ATOM     10  C   UNL     1      -4.431  13.293  19.983  0.00  0.00    +0.000 C 
ATOM     11  C   UNL     1      -4.269  14.277  21.219  0.00  0.00    +0.000 C 
ATOM     12  C   UNL     1      -5.335  13.901  22.315  0.00  0.00    +0.000 C 
ATOM     13  C   UNL     1      -5.999  12.762  21.683  0.00  0.00    +0.000 A 
ATOM     14  C   UNL     1      -5.522  12.410  20.457  0.00  0.00    +0.000 A 
ATOM     15  N   UNL     1      -6.247  11.404  19.909  0.00  0.00    +0.000 NA
ATOM     16  C   UNL     1      -7.173  11.148  20.824  0.00  0.00    +0.000 A 
ATOM     17  N   UNL     1      -7.057  11.960  21.931  0.00  0.00    +0.000 N 
ATOM     18  C   UNL     1      -7.916  11.982  23.083  0.00  0.00    +0.000 C 
ENDBRANCH   8  10
ENDBRANCH   4   6
BRANCH   1  19
ATOM     19  C   UNL     1       1.492  10.023  19.118  0.00  0.00    +0.000 C 
BRANCH  19  22
ATOM     20  C   UNL     1       0.999   7.809  21.090  0.00  0.00    +0.000 C 
ATOM     21  C   UNL     1       1.777   7.564  19.811  0.00  0.00    +0.000 A 
ATOM     22  C   UNL     1       2.040   8.617  18.902  0.00  0.00    +0.000 A 
ATOM     23  C   UNL     1       2.828   8.314  17.791  0.00  0.00    +0.000 A 
ATOM     24  C   UNL     1       3.264   7.012  17.523  0.00  0.00    +0.000 A 
ATOM     25  C   UNL     1       2.948   5.911  18.332  0.00  0.00    +0.000 A 
ATOM     26  C   UNL     1       2.257   6.235  19.531  0.00  0.00    +0.000 A 
BRANCH  25  27
ATOM     27  N   UNL     1       3.333   4.621  17.958  0.00  0.00    +0.000 N 
ATOM     28  C   UNL     1       4.534   3.998  18.566  0.00  0.00    +0.000 C 
ATOM     29  C   UNL     1       4.062   2.663  19.063  0.00  0.00    +0.000 C 
ATOM     30  C   UNL     1       3.871   1.470  18.162  0.00  0.00    +0.000 C 
ATOM     31  C   UNL     1       2.724   2.397  18.463  0.00  0.00    +0.000 C 
ATOM     32  C   UNL     1       2.377   3.557  17.577  0.00  0.00    +0.000 C 
ENDBRANCH  25  27
BRANCH  26  33
ATOM     33  C   UNL     1       2.045   5.229  20.547  0.00  0.00    +0.000 C 
ATOM     34  N   UNL     1       1.882   4.395  21.342  0.00  0.00    +0.000 NA
ENDBRANCH  26  33
ENDBRANCH  19  22
ENDBRANCH   1  19
TORSDOF 6
ENDMDL
