MODEL 1
REMARK VINA RESULT:      -7.8      0.000      0.000
REMARK  Name = 
REMARK  4 active torsions:
REMARK  status: ('A' for Active; 'I' for Inactive)
REMARK    1  A    between atoms: C_2  and  C_10
REMARK    2  A    between atoms: N_3  and  C_4
REMARK    3  A    between atoms: C_8  and  O_9
REMARK    4  A    between atoms: C_13  and  N_14
REMARK                            x       y       z     vdW  Elec       q    Type
REMARK                         _______ _______ _______ _____ _____    ______ ____
ROOT
ATOM      1  C   UNL     1       6.364   5.858  18.442  0.00  0.00    +0.000 A 
ATOM      2  C   UNL     1       7.616   6.016  19.030  0.00  0.00    +0.000 A 
ATOM      3  C   UNL     1       8.352   7.194  18.814  0.00  0.00    +0.000 A 
ATOM      4  C   UNL     1       7.903   8.243  17.989  0.00  0.00    +0.000 A 
ATOM      5  C   UNL     1       6.647   8.061  17.390  0.00  0.00    +0.000 A 
ATOM      6  C   UNL     1       5.890   6.886  17.617  0.00  0.00    +0.000 A 
ENDROOT
BRANCH   4   7
ATOM      7  N   UNL     1       8.666   9.447  17.750  0.00  0.00    +0.000 N 
ATOM      8  C   UNL     1       9.144  10.264  18.744  0.00  0.00    +0.000 C 
ATOM      9  O   UNL     1       8.964  10.028  19.947  0.00  0.00    +0.000 OA
ATOM     10  N   UNL     1       9.856  11.398  18.444  0.00  0.00    +0.000 N 
ATOM     11  C   UNL     1      10.253  12.152  19.625  0.00  0.00    +0.000 C 
ATOM     12  C   UNL     1      10.991  13.329  19.121  0.00  0.00    +0.000 A 
ATOM     13  C   UNL     1      11.582  14.309  19.894  0.00  0.00    +0.000 A 
ATOM     14  C   UNL     1      12.113  15.419  19.261  0.00  0.00    +0.000 A 
ATOM     15  C   UNL     1      12.027  15.517  17.867  0.00  0.00    +0.000 A 
ATOM     16  C   UNL     1      11.471  14.488  17.076  0.00  0.00    +0.000 A 
ATOM     17  C   UNL     1      10.954  13.366  17.727  0.00  0.00    +0.000 A 
ATOM     18  C   UNL     1      10.322  12.082  17.206  0.00  0.00    +0.000 C 
ATOM     19  H   UNL     1       8.879   9.682  16.792  0.00  0.00    +0.000 HD
ENDBRANCH   4   7
BRANCH   1  21
ATOM     20  O   UNL     1       6.013   3.565  18.894  0.00  0.00    +0.000 OA
ATOM     21  C   UNL     1       5.498   4.661  18.689  0.00  0.00    +0.000 C 
ATOM     22  N   UNL     1       4.134   4.856  18.673  0.00  0.00    +0.000 N 
ATOM     23  H   UNL     1       3.748   5.747  18.391  0.00  0.00    +0.000 HD
BRANCH  22  24
ATOM     24  C   UNL     1       3.170   3.786  18.887  0.00  0.00    +0.000 C 
ATOM     25  C   UNL     1       2.481   3.832  20.264  0.00  0.00    +0.000 C 
ATOM     26  C   UNL     1       1.024   3.404  20.035  0.00  0.00    +0.000 C 
ATOM     27  C   UNL     1       0.901   3.070  18.552  0.00  0.00    +0.000 C 
ATOM     28  C   UNL     1       2.001   3.887  17.894  0.00  0.00    +0.000 C 
BRANCH  28  29
ATOM     29  O   UNL     1       1.582   5.247  17.733  0.00  0.00    +0.000 OA
ATOM     30  H   UNL     1       2.347   5.767  17.428  0.00  0.00    +0.000 HD
ENDBRANCH  28  29
ENDBRANCH  22  24
ENDBRANCH   1  21
TORSDOF 4
ENDMDL
MODEL 2
REMARK VINA RESULT:      -7.7      7.458      9.727
REMARK  Name = 
REMARK  4 active torsions:
REMARK  status: ('A' for Active; 'I' for Inactive)
REMARK    1  A    between atoms: C_2  and  C_10
REMARK    2  A    between atoms: N_3  and  C_4
REMARK    3  A    between atoms: C_8  and  O_9
REMARK    4  A    between atoms: C_13  and  N_14
REMARK                            x       y       z     vdW  Elec       q    Type
REMARK                         _______ _______ _______ _____ _____    ______ ____
ROOT
ATOM      1  C   UNL     1       2.659   7.213  19.039  0.00  0.00    +0.000 A 
ATOM      2  C   UNL     1       2.371   8.227  18.130  0.00  0.00    +0.000 A 
ATOM      3  C   UNL     1       1.454   9.237  18.468  0.00  0.00    +0.000 A 
ATOM      4  C   UNL     1       0.765   9.272  19.696  0.00  0.00    +0.000 A 
ATOM      5  C   UNL     1       1.054   8.234  20.595  0.00  0.00    +0.000 A 
ATOM      6  C   UNL     1       1.989   7.222  20.269  0.00  0.00    +0.000 A 
ENDROOT
BRANCH   4   7
ATOM      7  N   UNL     1      -0.192  10.299  20.039  0.00  0.00    +0.000 N 
ATOM      8  C   UNL     1      -0.205  10.968  21.238  0.00  0.00    +0.000 C 
ATOM      9  O   UNL     1       0.621  10.748  22.134  0.00  0.00    +0.000 OA
ATOM     10  N   UNL     1      -1.149  11.928  21.501  0.00  0.00    +0.000 N 
ATOM     11  C   UNL     1      -1.022  12.506  22.832  0.00  0.00    +0.000 C 
ATOM     12  C   UNL     1      -2.110  13.499  22.945  0.00  0.00    +0.000 A 
ATOM     13  C   UNL     1      -2.355  14.315  24.032  0.00  0.00    +0.000 A 
ATOM     14  C   UNL     1      -3.501  15.091  24.030  0.00  0.00    +0.000 A 
ATOM     15  C   UNL     1      -4.374  15.018  22.938  0.00  0.00    +0.000 A 
ATOM     16  C   UNL     1      -4.092  14.224  21.805  0.00  0.00    +0.000 A 
ATOM     17  C   UNL     1      -2.924  13.460  21.813  0.00  0.00    +0.000 A 
ATOM     18  C   UNL     1      -2.301  12.533  20.777  0.00  0.00    +0.000 C 
ATOM     19  H   UNL     1      -0.875  10.554  19.341  0.00  0.00    +0.000 HD
ENDBRANCH   4   7
BRANCH   1  21
ATOM     20  O   UNL     1       4.095   5.453  19.692  0.00  0.00    +0.000 OA
ATOM     21  C   UNL     1       3.677   6.148  18.770  0.00  0.00    +0.000 C 
ATOM     22  N   UNL     1       4.102   5.996  17.468  0.00  0.00    +0.000 N 
ATOM     23  H   UNL     1       3.818   6.659  16.757  0.00  0.00    +0.000 HD
BRANCH  22  24
ATOM     24  C   UNL     1       5.091   5.011  17.057  0.00  0.00    +0.000 C 
ATOM     25  C   UNL     1       4.876   4.464  15.634  0.00  0.00    +0.000 C 
ATOM     26  C   UNL     1       6.273   4.281  15.022  0.00  0.00    +0.000 C 
ATOM     27  C   UNL     1       7.273   4.672  16.107  0.00  0.00    +0.000 C 
ATOM     28  C   UNL     1       6.498   5.628  17.000  0.00  0.00    +0.000 C 
BRANCH  28  29
ATOM     29  O   UNL     1       6.459   6.935  16.413  0.00  0.00    +0.000 OA
ATOM     30  H   UNL     1       5.560   7.089  16.072  0.00  0.00    +0.000 HD
ENDBRANCH  28  29
ENDBRANCH  22  24
ENDBRANCH   1  21
TORSDOF 4
ENDMDL
MODEL 3
REMARK VINA RESULT:      -7.7      7.563      9.775
REMARK  Name = 
REMARK  4 active torsions:
REMARK  status: ('A' for Active; 'I' for Inactive)
REMARK    1  A    between atoms: C_2  and  C_10
REMARK    2  A    between atoms: N_3  and  C_4
REMARK    3  A    between atoms: C_8  and  O_9
REMARK    4  A    between atoms: C_13  and  N_14
REMARK                            x       y       z     vdW  Elec       q    Type
REMARK                         _______ _______ _______ _____ _____    ______ ____
ROOT
ATOM      1  C   UNL     1       2.508   7.162  19.392  0.00  0.00    +0.000 A 
ATOM      2  C   UNL     1       1.840   7.203  20.612  0.00  0.00    +0.000 A 
ATOM      3  C   UNL     1       0.918   8.230  20.876  0.00  0.00    +0.000 A 
ATOM      4  C   UNL     1       0.641   9.269  19.967  0.00  0.00    +0.000 A 
ATOM      5  C   UNL     1       1.334   9.223  18.748  0.00  0.00    +0.000 A 
ATOM      6  C   UNL     1       2.252   8.182  18.467  0.00  0.00    +0.000 A 
ENDROOT
BRANCH   4   7
ATOM      7  N   UNL     1      -0.294  10.337  20.243  0.00  0.00    +0.000 N 
ATOM      8  C   UNL     1      -0.381  10.990  21.448  0.00  0.00    +0.000 C 
ATOM      9  O   UNL     1       0.352  10.719  22.409  0.00  0.00    +0.000 OA
ATOM     10  N   UNL     1      -1.299  11.991  21.643  0.00  0.00    +0.000 N 
ATOM     11  C   UNL     1      -1.262  12.544  22.990  0.00  0.00    +0.000 C 
ATOM     12  C   UNL     1      -2.309  13.587  23.025  0.00  0.00    +0.000 A 
ATOM     13  C   UNL     1      -2.610  14.400  24.100  0.00  0.00    +0.000 A 
ATOM     14  C   UNL     1      -3.714  15.229  24.011  0.00  0.00    +0.000 A 
ATOM     15  C   UNL     1      -4.490  15.213  22.846  0.00  0.00    +0.000 A 
ATOM     16  C   UNL     1      -4.147  14.421  21.729  0.00  0.00    +0.000 A 
ATOM     17  C   UNL     1      -3.021  13.601  21.825  0.00  0.00    +0.000 A 
ATOM     18  C   UNL     1      -2.353  12.659  20.832  0.00  0.00    +0.000 C 
ATOM     19  H   UNL     1      -0.900  10.632  19.493  0.00  0.00    +0.000 HD
ENDBRANCH   4   7
BRANCH   1  21
ATOM     20  O   UNL     1       3.489   5.033  19.695  0.00  0.00    +0.000 OA
ATOM     21  C   UNL     1       3.450   6.058  19.020  0.00  0.00    +0.000 C 
ATOM     22  N   UNL     1       4.243   6.253  17.909  0.00  0.00    +0.000 N 
ATOM     23  H   UNL     1       4.262   7.152  17.446  0.00  0.00    +0.000 HD
BRANCH  22  24
ATOM     24  C   UNL     1       5.209   5.274  17.433  0.00  0.00    +0.000 C 
ATOM     25  C   UNL     1       4.596   4.161  16.564  0.00  0.00    +0.000 C 
ATOM     26  C   UNL     1       5.620   3.856  15.461  0.00  0.00    +0.000 C 
ATOM     27  C   UNL     1       6.825   4.751  15.733  0.00  0.00    +0.000 C 
ATOM     28  C   UNL     1       6.248   5.926  16.507  0.00  0.00    +0.000 C 
BRANCH  28  29
ATOM     29  O   UNL     1       5.624   6.854  15.611  0.00  0.00    +0.000 OA
ATOM     30  H   UNL     1       6.120   6.846  14.773  0.00  0.00    +0.000 HD
ENDBRANCH  28  29
ENDBRANCH  22  24
ENDBRANCH   1  21
TORSDOF 4
ENDMDL
MODEL 4
REMARK VINA RESULT:      -7.6      7.433      9.748
REMARK  Name = 
REMARK  4 active torsions:
REMARK  status: ('A' for Active; 'I' for Inactive)
REMARK    1  A    between atoms: C_2  and  C_10
REMARK    2  A    between atoms: N_3  and  C_4
REMARK    3  A    between atoms: C_8  and  O_9
REMARK    4  A    between atoms: C_13  and  N_14
REMARK                            x       y       z     vdW  Elec       q    Type
REMARK                         _______ _______ _______ _____ _____    ______ ____
ROOT
ATOM      1  C   UNL     1       2.485   7.096  18.574  0.00  0.00    +0.000 A 
ATOM      2  C   UNL     1       2.211   8.268  17.874  0.00  0.00    +0.000 A 
ATOM      3  C   UNL     1       1.586   9.346  18.523  0.00  0.00    +0.000 A 
ATOM      4  C   UNL     1       1.178   9.303  19.870  0.00  0.00    +0.000 A 
ATOM      5  C   UNL     1       1.447   8.110  20.558  0.00  0.00    +0.000 A 
ATOM      6  C   UNL     1       2.093   7.025  19.917  0.00  0.00    +0.000 A 
ENDROOT
BRANCH   4   7
ATOM      7  N   UNL     1       0.518  10.404  20.534  0.00  0.00    +0.000 N 
ATOM      8  C   UNL     1      -0.694  10.921  20.147  0.00  0.00    +0.000 C 
ATOM      9  O   UNL     1      -1.334  10.473  19.185  0.00  0.00    +0.000 OA
ATOM     10  N   UNL     1      -1.260  11.974  20.819  0.00  0.00    +0.000 N 
ATOM     11  C   UNL     1      -2.529  12.403  20.246  0.00  0.00    +0.000 C 
ATOM     12  C   UNL     1      -2.984  13.536  21.079  0.00  0.00    +0.000 A 
ATOM     13  C   UNL     1      -4.163  14.238  20.920  0.00  0.00    +0.000 A 
ATOM     14  C   UNL     1      -4.370  15.363  21.699  0.00  0.00    +0.000 A 
ATOM     15  C   UNL     1      -3.383  15.756  22.610  0.00  0.00    +0.000 A 
ATOM     16  C   UNL     1      -2.204  15.005  22.807  0.00  0.00    +0.000 A 
ATOM     17  C   UNL     1      -2.015  13.863  22.027  0.00  0.00    +0.000 A 
ATOM     18  C   UNL     1      -0.904  12.821  21.991  0.00  0.00    +0.000 C 
ATOM     19  H   UNL     1       0.968  10.797  21.347  0.00  0.00    +0.000 HD
ENDBRANCH   4   7
BRANCH   1  21
ATOM     20  O   UNL     1       2.696   4.824  17.962  0.00  0.00    +0.000 OA
ATOM     21  C   UNL     1       3.212   5.938  17.963  0.00  0.00    +0.000 C 
ATOM     22  N   UNL     1       4.453   6.188  17.419  0.00  0.00    +0.000 N 
ATOM     23  H   UNL     1       4.891   7.092  17.539  0.00  0.00    +0.000 HD
BRANCH  22  24
ATOM     24  C   UNL     1       5.279   5.161  16.800  0.00  0.00    +0.000 C 
ATOM     25  C   UNL     1       5.060   5.013  15.283  0.00  0.00    +0.000 C 
ATOM     26  C   UNL     1       6.438   4.725  14.671  0.00  0.00    +0.000 C 
ATOM     27  C   UNL     1       7.421   4.658  15.836  0.00  0.00    +0.000 C 
ATOM     28  C   UNL     1       6.772   5.504  16.919  0.00  0.00    +0.000 C 
BRANCH  28  29
ATOM     29  O   UNL     1       6.999   6.896  16.666  0.00  0.00    +0.000 OA
ATOM     30  H   UNL     1       7.647   7.222  17.316  0.00  0.00    +0.000 HD
ENDBRANCH  28  29
ENDBRANCH  22  24
ENDBRANCH   1  21
TORSDOF 4
ENDMDL
MODEL 5
REMARK VINA RESULT:      -7.5      7.377      9.788
REMARK  Name = 
REMARK  4 active torsions:
REMARK  status: ('A' for Active; 'I' for Inactive)
REMARK    1  A    between atoms: C_2  and  C_10
REMARK    2  A    between atoms: N_3  and  C_4
REMARK    3  A    between atoms: C_8  and  O_9
REMARK    4  A    between atoms: C_13  and  N_14
REMARK                            x       y       z     vdW  Elec       q    Type
REMARK                         _______ _______ _______ _____ _____    ______ ____
ROOT
ATOM      1  C   UNL     1       2.481   7.211  18.717  0.00  0.00    +0.000 A 
ATOM      2  C   UNL     1       2.091   7.302  20.050  0.00  0.00    +0.000 A 
ATOM      3  C   UNL     1       1.358   8.415  20.496  0.00  0.00    +0.000 A 
ATOM      4  C   UNL     1       1.010   9.492  19.660  0.00  0.00    +0.000 A 
ATOM      5  C   UNL     1       1.423   9.394  18.322  0.00  0.00    +0.000 A 
ATOM      6  C   UNL     1       2.146   8.267  17.860  0.00  0.00    +0.000 A 
ENDROOT
BRANCH   4   7
ATOM      7  N   UNL     1       0.272  10.648  20.120  0.00  0.00    +0.000 N 
ATOM      8  C   UNL     1      -0.463  10.679  21.279  0.00  0.00    +0.000 C 
ATOM      9  O   UNL     1      -0.548   9.706  22.042  0.00  0.00    +0.000 OA
ATOM     10  N   UNL     1      -1.146  11.808  21.652  0.00  0.00    +0.000 N 
ATOM     11  C   UNL     1      -1.890  11.643  22.893  0.00  0.00    +0.000 C 
ATOM     12  C   UNL     1      -2.564  12.936  23.133  0.00  0.00    +0.000 A 
ATOM     13  C   UNL     1      -3.359  13.248  24.219  0.00  0.00    +0.000 A 
ATOM     14  C   UNL     1      -4.029  14.459  24.220  0.00  0.00    +0.000 A 
ATOM     15  C   UNL     1      -3.888  15.319  23.125  0.00  0.00    +0.000 A 
ATOM     16  C   UNL     1      -3.032  15.020  22.042  0.00  0.00    +0.000 A 
ATOM     17  C   UNL     1      -2.349  13.803  22.062  0.00  0.00    +0.000 A 
ATOM     18  C   UNL     1      -1.345  13.178  21.102  0.00  0.00    +0.000 C 
ATOM     19  H   UNL     1       0.325  11.487  19.563  0.00  0.00    +0.000 HD
ENDBRANCH   4   7
BRANCH   1  21
ATOM     20  O   UNL     1       2.853   4.888  18.486  0.00  0.00    +0.000 OA
ATOM     21  C   UNL     1       3.200   6.020  18.162  0.00  0.00    +0.000 C 
ATOM     22  N   UNL     1       4.242   6.262  17.292  0.00  0.00    +0.000 N 
ATOM     23  H   UNL     1       4.569   7.207  17.136  0.00  0.00    +0.000 HD
BRANCH  22  24
ATOM     24  C   UNL     1       5.037   5.207  16.681  0.00  0.00    +0.000 C 
ATOM     25  C   UNL     1       5.339   5.436  15.189  0.00  0.00    +0.000 C 
ATOM     26  C   UNL     1       6.771   4.933  14.953  0.00  0.00    +0.000 C 
ATOM     27  C   UNL     1       7.258   4.377  16.288  0.00  0.00    +0.000 C 
ATOM     28  C   UNL     1       6.431   5.121  17.324  0.00  0.00    +0.000 C 
BRANCH  28  29
ATOM     29  O   UNL     1       6.973   6.429  17.548  0.00  0.00    +0.000 OA
ATOM     30  H   UNL     1       7.867   6.456  17.163  0.00  0.00    +0.000 HD
ENDBRANCH  28  29
ENDBRANCH  22  24
ENDBRANCH   1  21
TORSDOF 4
ENDMDL
MODEL 6
REMARK VINA RESULT:      -7.5      7.670      9.094
REMARK  Name = 
REMARK  4 active torsions:
REMARK  status: ('A' for Active; 'I' for Inactive)
REMARK    1  A    between atoms: C_2  and  C_10
REMARK    2  A    between atoms: N_3  and  C_4
REMARK    3  A    between atoms: C_8  and  O_9
REMARK    4  A    between atoms: C_13  and  N_14
REMARK                            x       y       z     vdW  Elec       q    Type
REMARK                         _______ _______ _______ _____ _____    ______ ____
ROOT
ATOM      1  C   UNL     1       2.561   7.386  18.812  0.00  0.00    +0.000 A 
ATOM      2  C   UNL     1       1.973   7.534  20.065  0.00  0.00    +0.000 A 
ATOM      3  C   UNL     1       1.149   8.641  20.330  0.00  0.00    +0.000 A 
ATOM      4  C   UNL     1       0.897   9.657  19.389  0.00  0.00    +0.000 A 
ATOM      5  C   UNL     1       1.510   9.503  18.136  0.00  0.00    +0.000 A 
ATOM      6  C   UNL     1       2.327   8.381  17.854  0.00  0.00    +0.000 A 
ENDROOT
BRANCH   4   7
ATOM      7  N   UNL     1       0.064  10.807  19.665  0.00  0.00    +0.000 N 
ATOM      8  C   UNL     1       0.403  11.808  20.542  0.00  0.00    +0.000 C 
ATOM      9  O   UNL     1       1.470  11.812  21.171  0.00  0.00    +0.000 OA
ATOM     10  N   UNL     1      -0.441  12.867  20.762  0.00  0.00    +0.000 N 
ATOM     11  C   UNL     1       0.074  13.812  21.745  0.00  0.00    +0.000 C 
ATOM     12  C   UNL     1      -0.953  14.868  21.863  0.00  0.00    +0.000 A 
ATOM     13  C   UNL     1      -0.874  15.992  22.662  0.00  0.00    +0.000 A 
ATOM     14  C   UNL     1      -1.986  16.810  22.762  0.00  0.00    +0.000 A 
ATOM     15  C   UNL     1      -3.149  16.471  22.061  0.00  0.00    +0.000 A 
ATOM     16  C   UNL     1      -3.208  15.352  21.203  0.00  0.00    +0.000 A 
ATOM     17  C   UNL     1      -2.074  14.544  21.098  0.00  0.00    +0.000 A 
ATOM     18  C   UNL     1      -1.775  13.304  20.266  0.00  0.00    +0.000 C 
ATOM     19  H   UNL     1      -0.806  10.885  19.161  0.00  0.00    +0.000 HD
ENDBRANCH   4   7
BRANCH   1  21
ATOM     20  O   UNL     1       3.258   5.142  19.056  0.00  0.00    +0.000 OA
ATOM     21  C   UNL     1       3.391   6.196  18.442  0.00  0.00    +0.000 C 
ATOM     22  N   UNL     1       4.285   6.349  17.403  0.00  0.00    +0.000 N 
ATOM     23  H   UNL     1       4.445   7.262  16.996  0.00  0.00    +0.000 HD
BRANCH  22  24
ATOM     24  C   UNL     1       5.163   5.285  16.938  0.00  0.00    +0.000 C 
ATOM     25  C   UNL     1       5.097   5.039  15.420  0.00  0.00    +0.000 C 
ATOM     26  C   UNL     1       6.528   4.712  14.970  0.00  0.00    +0.000 C 
ATOM     27  C   UNL     1       7.389   4.723  16.230  0.00  0.00    +0.000 C 
ATOM     28  C   UNL     1       6.639   5.637  17.185  0.00  0.00    +0.000 C 
BRANCH  28  29
ATOM     29  O   UNL     1       6.897   7.010  16.866  0.00  0.00    +0.000 OA
ATOM     30  H   UNL     1       7.862   7.142  16.852  0.00  0.00    +0.000 HD
ENDBRANCH  28  29
ENDBRANCH  22  24
ENDBRANCH   1  21
TORSDOF 4
ENDMDL
MODEL 7
REMARK VINA RESULT:      -7.5      8.493     11.212
REMARK  Name = 
REMARK  4 active torsions:
REMARK  status: ('A' for Active; 'I' for Inactive)
REMARK    1  A    between atoms: C_2  and  C_10
REMARK    2  A    between atoms: N_3  and  C_4
REMARK    3  A    between atoms: C_8  and  O_9
REMARK    4  A    between atoms: C_13  and  N_14
REMARK                            x       y       z     vdW  Elec       q    Type
REMARK                         _______ _______ _______ _____ _____    ______ ____
ROOT
ATOM      1  C   UNL     1      -1.460  11.569  22.453  0.00  0.00    +0.000 A 
ATOM      2  C   UNL     1      -0.663  10.528  22.922  0.00  0.00    +0.000 A 
ATOM      3  C   UNL     1       0.197   9.847  22.044  0.00  0.00    +0.000 A 
ATOM      4  C   UNL     1       0.283  10.139  20.669  0.00  0.00    +0.000 A 
ATOM      5  C   UNL     1      -0.538  11.179  20.208  0.00  0.00    +0.000 A 
ATOM      6  C   UNL     1      -1.394  11.883  21.089  0.00  0.00    +0.000 A 
ENDROOT
BRANCH   4   7
ATOM      7  N   UNL     1       1.152   9.428  19.759  0.00  0.00    +0.000 N 
ATOM      8  C   UNL     1       1.598   8.146  19.967  0.00  0.00    +0.000 C 
ATOM      9  O   UNL     1       1.280   7.481  20.962  0.00  0.00    +0.000 OA
ATOM     10  N   UNL     1       2.430   7.534  19.064  0.00  0.00    +0.000 N 
ATOM     11  C   UNL     1       2.820   6.189  19.467  0.00  0.00    +0.000 C 
ATOM     12  C   UNL     1       3.711   5.691  18.398  0.00  0.00    +0.000 A 
ATOM     13  C   UNL     1       4.297   4.442  18.346  0.00  0.00    +0.000 A 
ATOM     14  C   UNL     1       5.217   4.186  17.344  0.00  0.00    +0.000 A 
ATOM     15  C   UNL     1       5.530   5.197  16.429  0.00  0.00    +0.000 A 
ATOM     16  C   UNL     1       4.889   6.455  16.453  0.00  0.00    +0.000 A 
ATOM     17  C   UNL     1       3.950   6.694  17.458  0.00  0.00    +0.000 A 
ATOM     18  C   UNL     1       3.064   7.894  17.766  0.00  0.00    +0.000 C 
ATOM     19  H   UNL     1       1.425   9.899  18.910  0.00  0.00    +0.000 HD
ENDBRANCH   4   7
BRANCH   1  21
ATOM     20  O   UNL     1      -3.394  11.903  23.768  0.00  0.00    +0.000 OA
ATOM     21  C   UNL     1      -2.344  12.381  23.348  0.00  0.00    +0.000 C 
ATOM     22  N   UNL     1      -1.922  13.654  23.665  0.00  0.00    +0.000 N 
ATOM     23  H   UNL     1      -1.108  14.051  23.212  0.00  0.00    +0.000 HD
BRANCH  22  24
ATOM     24  C   UNL     1      -2.679  14.561  24.515  0.00  0.00    +0.000 C 
ATOM     25  C   UNL     1      -1.807  15.394  25.473  0.00  0.00    +0.000 C 
ATOM     26  C   UNL     1      -2.451  16.786  25.547  0.00  0.00    +0.000 C 
ATOM     27  C   UNL     1      -3.706  16.727  24.680  0.00  0.00    +0.000 C 
ATOM     28  C   UNL     1      -3.414  15.621  23.679  0.00  0.00    +0.000 C 
BRANCH  28  29
ATOM     29  O   UNL     1      -2.577  16.112  22.625  0.00  0.00    +0.000 OA
ATOM     30  H   UNL     1      -2.146  16.928  22.935  0.00  0.00    +0.000 HD
ENDBRANCH  28  29
ENDBRANCH  22  24
ENDBRANCH   1  21
TORSDOF 4
ENDMDL
MODEL 8
REMARK VINA RESULT:      -7.5      7.768     10.737
REMARK  Name = 
REMARK  4 active torsions:
REMARK  status: ('A' for Active; 'I' for Inactive)
REMARK    1  A    between atoms: C_2  and  C_10
REMARK    2  A    between atoms: N_3  and  C_4
REMARK    3  A    between atoms: C_8  and  O_9
REMARK    4  A    between atoms: C_13  and  N_14
REMARK                            x       y       z     vdW  Elec       q    Type
REMARK                         _______ _______ _______ _____ _____    ______ ____
ROOT
ATOM      1  C   UNL     1      -0.920  11.171  22.070  0.00  0.00    +0.000 A 
ATOM      2  C   UNL     1      -0.282  10.216  22.858  0.00  0.00    +0.000 A 
ATOM      3  C   UNL     1       0.470   9.193  22.255  0.00  0.00    +0.000 A 
ATOM      4  C   UNL     1       0.597   9.051  20.860  0.00  0.00    +0.000 A 
ATOM      5  C   UNL     1      -0.065  10.011  20.079  0.00  0.00    +0.000 A 
ATOM      6  C   UNL     1      -0.810  11.056  20.679  0.00  0.00    +0.000 A 
ENDROOT
BRANCH   4   7
ATOM      7  N   UNL     1       1.354   7.989  20.236  0.00  0.00    +0.000 N 
ATOM      8  C   UNL     1       2.166   8.163  19.143  0.00  0.00    +0.000 C 
ATOM      9  O   UNL     1       2.325   9.265  18.599  0.00  0.00    +0.000 OA
ATOM     10  N   UNL     1       2.850   7.107  18.597  0.00  0.00    +0.000 N 
ATOM     11  C   UNL     1       3.636   7.479  17.427  0.00  0.00    +0.000 C 
ATOM     12  C   UNL     1       4.289   6.235  16.969  0.00  0.00    +0.000 A 
ATOM     13  C   UNL     1       5.158   6.120  15.902  0.00  0.00    +0.000 A 
ATOM     14  C   UNL     1       5.571   4.855  15.522  0.00  0.00    +0.000 A 
ATOM     15  C   UNL     1       5.091   3.740  16.219  0.00  0.00    +0.000 A 
ATOM     16  C   UNL     1       4.246   3.866  17.343  0.00  0.00    +0.000 A 
ATOM     17  C   UNL     1       3.851   5.148  17.727  0.00  0.00    +0.000 A 
ATOM     18  C   UNL     1       2.990   5.652  18.879  0.00  0.00    +0.000 C 
ATOM     19  H   UNL     1       1.297   7.070  20.650  0.00  0.00    +0.000 HD
ENDBRANCH   4   7
BRANCH   1  21
ATOM     20  O   UNL     1      -1.124  13.083  23.443  0.00  0.00    +0.000 OA
ATOM     21  C   UNL     1      -1.676  12.326  22.650  0.00  0.00    +0.000 C 
ATOM     22  N   UNL     1      -2.986  12.485  22.253  0.00  0.00    +0.000 N 
ATOM     23  H   UNL     1      -3.438  11.779  21.687  0.00  0.00    +0.000 HD
BRANCH  22  24
ATOM     24  C   UNL     1      -3.847  13.554  22.738  0.00  0.00    +0.000 C 
ATOM     25  C   UNL     1      -4.052  14.698  21.729  0.00  0.00    +0.000 C 
ATOM     26  C   UNL     1      -5.511  15.153  21.877  0.00  0.00    +0.000 C 
ATOM     27  C   UNL     1      -6.114  14.309  22.996  0.00  0.00    +0.000 C 
ATOM     28  C   UNL     1      -5.272  13.042  23.001  0.00  0.00    +0.000 C 
BRANCH  28  29
ATOM     29  O   UNL     1      -5.699  12.158  21.957  0.00  0.00    +0.000 OA
ATOM     30  H   UNL     1      -6.598  11.849  22.169  0.00  0.00    +0.000 HD
ENDBRANCH  28  29
ENDBRANCH  22  24
ENDBRANCH   1  21
TORSDOF 4
ENDMDL
MODEL 9
REMARK VINA RESULT:      -7.5      8.089      9.561
REMARK  Name = 
REMARK  4 active torsions:
REMARK  status: ('A' for Active; 'I' for Inactive)
REMARK    1  A    between atoms: C_2  and  C_10
REMARK    2  A    between atoms: N_3  and  C_4
REMARK    3  A    between atoms: C_8  and  O_9
REMARK    4  A    between atoms: C_13  and  N_14
REMARK                            x       y       z     vdW  Elec       q    Type
REMARK                         _______ _______ _______ _____ _____    ______ ____
ROOT
ATOM      1  C   UNL     1       1.903   7.791  19.502  0.00  0.00    +0.000 A 
ATOM      2  C   UNL     1       1.466   8.933  18.836  0.00  0.00    +0.000 A 
ATOM      3  C   UNL     1       0.678   9.883  19.508  0.00  0.00    +0.000 A 
ATOM      4  C   UNL     1       0.263   9.732  20.845  0.00  0.00    +0.000 A 
ATOM      5  C   UNL     1       0.697   8.568  21.498  0.00  0.00    +0.000 A 
ATOM      6  C   UNL     1       1.506   7.615  20.833  0.00  0.00    +0.000 A 
ENDROOT
BRANCH   4   7
ATOM      7  N   UNL     1      -0.564  10.698  21.533  0.00  0.00    +0.000 N 
ATOM      8  C   UNL     1      -0.178  11.988  21.801  0.00  0.00    +0.000 C 
ATOM      9  O   UNL     1       0.925  12.439  21.462  0.00  0.00    +0.000 OA
ATOM     10  N   UNL     1      -1.011  12.850  22.467  0.00  0.00    +0.000 N 
ATOM     11  C   UNL     1      -0.419  14.163  22.685  0.00  0.00    +0.000 C 
ATOM     12  C   UNL     1      -1.437  14.948  23.414  0.00  0.00    +0.000 A 
ATOM     13  C   UNL     1      -1.319  16.267  23.805  0.00  0.00    +0.000 A 
ATOM     14  C   UNL     1      -2.311  16.810  24.603  0.00  0.00    +0.000 A 
ATOM     15  C   UNL     1      -3.390  16.008  24.994  0.00  0.00    +0.000 A 
ATOM     16  C   UNL     1      -3.534  14.676  24.547  0.00  0.00    +0.000 A 
ATOM     17  C   UNL     1      -2.535  14.147  23.728  0.00  0.00    +0.000 A 
ATOM     18  C   UNL     1      -2.379  12.791  23.052  0.00  0.00    +0.000 C 
ATOM     19  H   UNL     1      -1.490  10.408  21.809  0.00  0.00    +0.000 HD
ENDBRANCH   4   7
BRANCH   1  21
ATOM     20  O   UNL     1       3.613   7.126  18.013  0.00  0.00    +0.000 OA
ATOM     21  C   UNL     1       2.802   6.776  18.866  0.00  0.00    +0.000 C 
ATOM     22  N   UNL     1       2.672   5.469  19.283  0.00  0.00    +0.000 N 
ATOM     23  H   UNL     1       1.919   5.203  19.905  0.00  0.00    +0.000 HD
BRANCH  22  24
ATOM     24  C   UNL     1       3.471   4.375  18.750  0.00  0.00    +0.000 C 
ATOM     25  C   UNL     1       3.655   3.201  19.729  0.00  0.00    +0.000 C 
ATOM     26  C   UNL     1       3.606   1.919  18.885  0.00  0.00    +0.000 C 
ATOM     27  C   UNL     1       3.447   2.364  17.434  0.00  0.00    +0.000 C 
ATOM     28  C   UNL     1       2.785   3.729  17.535  0.00  0.00    +0.000 C 
BRANCH  28  29
ATOM     29  O   UNL     1       1.377   3.585  17.759  0.00  0.00    +0.000 OA
ATOM     30  H   UNL     1       0.981   4.474  17.783  0.00  0.00    +0.000 HD
ENDBRANCH  28  29
ENDBRANCH  22  24
ENDBRANCH   1  21
TORSDOF 4
ENDMDL
