MODEL 1
REMARK VINA RESULT:      -6.1      0.000      0.000
REMARK  Name = 
REMARK  4 active torsions:
REMARK  status: ('A' for Active; 'I' for Inactive)
REMARK    1  A    between atoms: C_2  and  O_3
REMARK    2  A    between atoms: C_2  and  C_4
REMARK    3  A    between atoms: C_8  and  S_9
REMARK    4  A    between atoms: S_9  and  O_12
REMARK                            x       y       z     vdW  Elec       q    Type
REMARK                         _______ _______ _______ _____ _____    ______ ____
ROOT
ATOM      1  C   UNL     1       3.445   3.901  17.966  0.00  0.00    +0.000 A 
ATOM      2  C   UNL     1       3.488   4.668  19.124  0.00  0.00    +0.000 A 
ATOM      3  N   UNL     1       4.572   5.393  19.506  0.00  0.00    +0.000 NA
ATOM      4  C   UNL     1       5.654   5.365  18.691  0.00  0.00    +0.000 A 
ATOM      5  C   UNL     1       5.677   4.643  17.513  0.00  0.00    +0.000 A 
ATOM      6  C   UNL     1       4.557   3.908  17.125  0.00  0.00    +0.000 A 
ENDROOT
BRANCH   5   7
ATOM      7  S   UNL     1       7.096   4.698  16.489  0.00  0.00    +0.000 S 
ATOM      8  O   UNL     1       8.217   4.178  17.236  0.00  0.00    +0.000 OA
ATOM      9  O   UNL     1       6.705   4.182  15.198  0.00  0.00    +0.000 OA
BRANCH   7  10
ATOM     10  O   UNL     1       7.392   6.280  16.329  0.00  0.00    +0.000 OA
ATOM     11  H   UNL     1       8.334   6.432  16.558  0.00  0.00    +0.000 HD
ENDBRANCH   7  10
ENDBRANCH   5   7
BRANCH   1  13
ATOM     12  O   UNL     1       1.148   3.711  17.441  0.00  0.00    +0.000 OA
ATOM     13  C   UNL     1       2.212   3.156  17.653  0.00  0.00    +0.000 C 
BRANCH  13  14
ATOM     14  O   UNL     1       2.368   1.818  17.645  0.00  0.00    +0.000 OA
ATOM     15  H   UNL     1       1.841   1.321  16.993  0.00  0.00    +0.000 HD
ENDBRANCH  13  14
ENDBRANCH   1  13
TORSDOF 4
ENDMDL
MODEL 2
REMARK VINA RESULT:      -6.1      2.003      4.647
REMARK  Name = 
REMARK  4 active torsions:
REMARK  status: ('A' for Active; 'I' for Inactive)
REMARK    1  A    between atoms: C_2  and  O_3
REMARK    2  A    between atoms: C_2  and  C_4
REMARK    3  A    between atoms: C_8  and  S_9
REMARK    4  A    between atoms: S_9  and  O_12
REMARK                            x       y       z     vdW  Elec       q    Type
REMARK                         _______ _______ _______ _____ _____    ______ ____
ROOT
ATOM      1  C   UNL     1       6.021   4.313  16.557  0.00  0.00    +0.000 A 
ATOM      2  C   UNL     1       6.740   4.609  17.709  0.00  0.00    +0.000 A 
ATOM      3  N   UNL     1       6.226   4.506  18.963  0.00  0.00    +0.000 NA
ATOM      4  C   UNL     1       4.947   4.075  19.074  0.00  0.00    +0.000 A 
ATOM      5  C   UNL     1       4.178   3.743  17.975  0.00  0.00    +0.000 A 
ATOM      6  C   UNL     1       4.716   3.843  16.693  0.00  0.00    +0.000 A 
ENDROOT
BRANCH   5   7
ATOM      7  S   UNL     1       2.548   3.146  18.206  0.00  0.00    +0.000 S 
ATOM      8  O   UNL     1       2.262   3.140  19.622  0.00  0.00    +0.000 OA
ATOM      9  O   UNL     1       1.712   3.817  17.238  0.00  0.00    +0.000 OA
BRANCH   7  10
ATOM     10  O   UNL     1       2.648   1.587  17.788  0.00  0.00    +0.000 OA
ATOM     11  H   UNL     1       2.148   1.066  18.454  0.00  0.00    +0.000 HD
ENDBRANCH   7  10
ENDBRANCH   5   7
BRANCH   1  13
ATOM     12  O   UNL     1       7.475   5.358  15.014  0.00  0.00    +0.000 OA
ATOM     13  C   UNL     1       6.684   4.462  15.249  0.00  0.00    +0.000 C 
BRANCH  13  14
ATOM     14  O   UNL     1       6.318   3.536  14.341  0.00  0.00    +0.000 OA
ATOM     15  H   UNL     1       6.984   3.297  13.669  0.00  0.00    +0.000 HD
ENDBRANCH  13  14
ENDBRANCH   1  13
TORSDOF 4
ENDMDL
MODEL 3
REMARK VINA RESULT:      -6.0      1.069      1.251
REMARK  Name = 
REMARK  4 active torsions:
REMARK  status: ('A' for Active; 'I' for Inactive)
REMARK    1  A    between atoms: C_2  and  O_3
REMARK    2  A    between atoms: C_2  and  C_4
REMARK    3  A    between atoms: C_8  and  S_9
REMARK    4  A    between atoms: S_9  and  O_12
REMARK                            x       y       z     vdW  Elec       q    Type
REMARK                         _______ _______ _______ _____ _____    ______ ____
ROOT
ATOM      1  C   UNL     1       3.739   3.553  17.830  0.00  0.00    +0.000 A 
ATOM      2  C   UNL     1       4.350   3.473  19.075  0.00  0.00    +0.000 A 
ATOM      3  N   UNL     1       5.584   3.979  19.342  0.00  0.00    +0.000 NA
ATOM      4  C   UNL     1       6.228   4.603  18.328  0.00  0.00    +0.000 A 
ATOM      5  C   UNL     1       5.676   4.740  17.068  0.00  0.00    +0.000 A 
ATOM      6  C   UNL     1       4.406   4.226  16.806  0.00  0.00    +0.000 A 
ENDROOT
BRANCH   5   7
ATOM      7  S   UNL     1       6.553   5.605  15.824  0.00  0.00    +0.000 S 
ATOM      8  O   UNL     1       7.434   4.675  15.158  0.00  0.00    +0.000 OA
ATOM      9  O   UNL     1       5.591   6.419  15.119  0.00  0.00    +0.000 OA
BRANCH   7  10
ATOM     10  O   UNL     1       7.528   6.589  16.658  0.00  0.00    +0.000 OA
ATOM     11  H   UNL     1       7.024   6.926  17.430  0.00  0.00    +0.000 HD
ENDBRANCH   7  10
ENDBRANCH   5   7
BRANCH   1  13
ATOM     12  O   UNL     1       1.411   3.649  17.437  0.00  0.00    +0.000 OA
ATOM     13  C   UNL     1       2.397   2.969  17.658  0.00  0.00    +0.000 C 
BRANCH  13  14
ATOM     14  O   UNL     1       2.362   1.628  17.791  0.00  0.00    +0.000 OA
ATOM     15  H   UNL     1       3.221   1.176  17.886  0.00  0.00    +0.000 HD
ENDBRANCH  13  14
ENDBRANCH   1  13
TORSDOF 4
ENDMDL
MODEL 4
REMARK VINA RESULT:      -6.0      1.050      1.245
REMARK  Name = 
REMARK  4 active torsions:
REMARK  status: ('A' for Active; 'I' for Inactive)
REMARK    1  A    between atoms: C_2  and  O_3
REMARK    2  A    between atoms: C_2  and  C_4
REMARK    3  A    between atoms: C_8  and  S_9
REMARK    4  A    between atoms: S_9  and  O_12
REMARK                            x       y       z     vdW  Elec       q    Type
REMARK                         _______ _______ _______ _____ _____    ______ ____
ROOT
ATOM      1  C   UNL     1       3.776   3.614  17.806  0.00  0.00    +0.000 A 
ATOM      2  C   UNL     1       4.321   3.503  19.080  0.00  0.00    +0.000 A 
ATOM      3  N   UNL     1       5.553   3.971  19.414  0.00  0.00    +0.000 NA
ATOM      4  C   UNL     1       6.265   4.587  18.441  0.00  0.00    +0.000 A 
ATOM      5  C   UNL     1       5.781   4.752  17.157  0.00  0.00    +0.000 A 
ATOM      6  C   UNL     1       4.512   4.278  16.826  0.00  0.00    +0.000 A 
ENDROOT
BRANCH   5   7
ATOM      7  S   UNL     1       6.744   5.606  15.969  0.00  0.00    +0.000 S 
ATOM      8  O   UNL     1       7.502   6.630  16.649  0.00  0.00    +0.000 OA
ATOM      9  O   UNL     1       7.354   4.606  15.125  0.00  0.00    +0.000 OA
BRANCH   7  10
ATOM     10  O   UNL     1       5.647   6.405  15.090  0.00  0.00    +0.000 OA
ATOM     11  H   UNL     1       6.125   6.879  14.375  0.00  0.00    +0.000 HD
ENDBRANCH   7  10
ENDBRANCH   5   7
BRANCH   1  13
ATOM     12  O   UNL     1       1.473   3.780  17.304  0.00  0.00    +0.000 OA
ATOM     13  C   UNL     1       2.428   3.070  17.561  0.00  0.00    +0.000 C 
BRANCH  13  14
ATOM     14  O   UNL     1       2.351   1.729  17.668  0.00  0.00    +0.000 OA
ATOM     15  H   UNL     1       2.927   1.310  18.333  0.00  0.00    +0.000 HD
ENDBRANCH  13  14
ENDBRANCH   1  13
TORSDOF 4
ENDMDL
MODEL 5
REMARK VINA RESULT:      -5.9      2.385      4.521
REMARK  Name = 
REMARK  4 active torsions:
REMARK  status: ('A' for Active; 'I' for Inactive)
REMARK    1  A    between atoms: C_2  and  O_3
REMARK    2  A    between atoms: C_2  and  C_4
REMARK    3  A    between atoms: C_8  and  S_9
REMARK    4  A    between atoms: S_9  and  O_12
REMARK                            x       y       z     vdW  Elec       q    Type
REMARK                         _______ _______ _______ _____ _____    ______ ____
ROOT
ATOM      1  C   UNL     1       5.727   4.870  15.690  0.00  0.00    +0.000 A 
ATOM      2  C   UNL     1       5.308   6.174  15.928  0.00  0.00    +0.000 A 
ATOM      3  N   UNL     1       4.445   6.517  16.920  0.00  0.00    +0.000 NA
ATOM      4  C   UNL     1       3.993   5.521  17.718  0.00  0.00    +0.000 A 
ATOM      5  C   UNL     1       4.381   4.204  17.556  0.00  0.00    +0.000 A 
ATOM      6  C   UNL     1       5.274   3.863  16.541  0.00  0.00    +0.000 A 
ENDROOT
BRANCH   5   7
ATOM      7  S   UNL     1       3.790   2.982  18.661  0.00  0.00    +0.000 S 
ATOM      8  O   UNL     1       2.885   3.612  19.594  0.00  0.00    +0.000 OA
ATOM      9  O   UNL     1       3.424   1.834  17.865  0.00  0.00    +0.000 OA
BRANCH   7  10
ATOM     10  O   UNL     1       5.094   2.593  19.535  0.00  0.00    +0.000 OA
ATOM     11  H   UNL     1       5.380   3.397  20.020  0.00  0.00    +0.000 HD
ENDBRANCH   7  10
ENDBRANCH   5   7
BRANCH   1  13
ATOM     12  O   UNL     1       7.598   5.364  14.333  0.00  0.00    +0.000 OA
ATOM     13  C   UNL     1       6.668   4.618  14.584  0.00  0.00    +0.000 C 
BRANCH  13  14
ATOM     14  O   UNL     1       6.391   3.508  13.871  0.00  0.00    +0.000 OA
ATOM     15  H   UNL     1       5.805   2.854  14.293  0.00  0.00    +0.000 HD
ENDBRANCH  13  14
ENDBRANCH   1  13
TORSDOF 4
ENDMDL
MODEL 6
REMARK VINA RESULT:      -5.9      2.131      4.643
REMARK  Name = 
REMARK  4 active torsions:
REMARK  status: ('A' for Active; 'I' for Inactive)
REMARK    1  A    between atoms: C_2  and  O_3
REMARK    2  A    between atoms: C_2  and  C_4
REMARK    3  A    between atoms: C_8  and  S_9
REMARK    4  A    between atoms: S_9  and  O_12
REMARK                            x       y       z     vdW  Elec       q    Type
REMARK                         _______ _______ _______ _____ _____    ______ ____
ROOT
ATOM      1  C   UNL     1       6.244   4.400  16.330  0.00  0.00    +0.000 A 
ATOM      2  C   UNL     1       7.058   4.619  17.435  0.00  0.00    +0.000 A 
ATOM      3  N   UNL     1       6.614   4.565  18.718  0.00  0.00    +0.000 NA
ATOM      4  C   UNL     1       5.307   4.266  18.909  0.00  0.00    +0.000 A 
ATOM      5  C   UNL     1       4.442   4.015  17.861  0.00  0.00    +0.000 A 
ATOM      6  C   UNL     1       4.908   4.064  16.548  0.00  0.00    +0.000 A 
ENDROOT
BRANCH   5   7
ATOM      7  S   UNL     1       2.778   3.586  18.193  0.00  0.00    +0.000 S 
ATOM      8  O   UNL     1       2.165   3.151  16.959  0.00  0.00    +0.000 OA
ATOM      9  O   UNL     1       2.780   2.784  19.394  0.00  0.00    +0.000 OA
BRANCH   7  10
ATOM     10  O   UNL     1       2.078   5.002  18.536  0.00  0.00    +0.000 OA
ATOM     11  H   UNL     1       1.811   4.983  19.481  0.00  0.00    +0.000 HD
ENDBRANCH   7  10
ENDBRANCH   5   7
BRANCH   1  13
ATOM     12  O   UNL     1       7.641   5.345  14.675  0.00  0.00    +0.000 OA
ATOM     13  C   UNL     1       6.837   4.483  14.983  0.00  0.00    +0.000 C 
BRANCH  13  14
ATOM     14  O   UNL     1       6.393   3.540  14.130  0.00  0.00    +0.000 OA
ATOM     15  H   UNL     1       7.046   3.174  13.505  0.00  0.00    +0.000 HD
ENDBRANCH  13  14
ENDBRANCH   1  13
TORSDOF 4
ENDMDL
MODEL 7
REMARK VINA RESULT:      -5.9      2.058      4.764
REMARK  Name = 
REMARK  4 active torsions:
REMARK  status: ('A' for Active; 'I' for Inactive)
REMARK    1  A    between atoms: C_2  and  O_3
REMARK    2  A    between atoms: C_2  and  C_4
REMARK    3  A    between atoms: C_8  and  S_9
REMARK    4  A    between atoms: S_9  and  O_12
REMARK                            x       y       z     vdW  Elec       q    Type
REMARK                         _______ _______ _______ _____ _____    ______ ____
ROOT
ATOM      1  C   UNL     1       5.378   5.166  17.216  0.00  0.00    +0.000 A 
ATOM      2  C   UNL     1       6.214   4.739  18.240  0.00  0.00    +0.000 A 
ATOM      3  N   UNL     1       5.800   3.959  19.273  0.00  0.00    +0.000 NA
ATOM      4  C   UNL     1       4.501   3.577  19.278  0.00  0.00    +0.000 A 
ATOM      5  C   UNL     1       3.615   3.945  18.283  0.00  0.00    +0.000 A 
ATOM      6  C   UNL     1       4.051   4.738  17.222  0.00  0.00    +0.000 A 
ENDROOT
BRANCH   5   7
ATOM      7  S   UNL     1       1.963   3.367  18.335  0.00  0.00    +0.000 S 
ATOM      8  O   UNL     1       1.513   3.398  19.707  0.00  0.00    +0.000 OA
ATOM      9  O   UNL     1       1.253   4.022  17.261  0.00  0.00    +0.000 OA
BRANCH   7  10
ATOM     10  O   UNL     1       2.094   1.798  17.968  0.00  0.00    +0.000 OA
ATOM     11  H   UNL     1       2.142   1.723  16.990  0.00  0.00    +0.000 HD
ENDBRANCH   7  10
ENDBRANCH   5   7
BRANCH   1  13
ATOM     12  O   UNL     1       5.238   6.611  15.351  0.00  0.00    +0.000 OA
ATOM     13  C   UNL     1       5.939   6.010  16.146  0.00  0.00    +0.000 C 
BRANCH  13  14
ATOM     14  O   UNL     1       7.286   6.035  16.118  0.00  0.00    +0.000 OA
ATOM     15  H   UNL     1       7.712   6.875  16.370  0.00  0.00    +0.000 HD
ENDBRANCH  13  14
ENDBRANCH   1  13
TORSDOF 4
ENDMDL
MODEL 8
REMARK VINA RESULT:      -5.8      0.998      1.788
REMARK  Name = 
REMARK  4 active torsions:
REMARK  status: ('A' for Active; 'I' for Inactive)
REMARK    1  A    between atoms: C_2  and  O_3
REMARK    2  A    between atoms: C_2  and  C_4
REMARK    3  A    between atoms: C_8  and  S_9
REMARK    4  A    between atoms: S_9  and  O_12
REMARK                            x       y       z     vdW  Elec       q    Type
REMARK                         _______ _______ _______ _____ _____    ______ ____
ROOT
ATOM      1  C   UNL     1       3.467   3.986  17.578  0.00  0.00    +0.000 A 
ATOM      2  C   UNL     1       2.994   5.231  17.974  0.00  0.00    +0.000 A 
ATOM      3  N   UNL     1       3.701   6.383  17.833  0.00  0.00    +0.000 NA
ATOM      4  C   UNL     1       4.926   6.291  17.262  0.00  0.00    +0.000 A 
ATOM      5  C   UNL     1       5.454   5.091  16.825  0.00  0.00    +0.000 A 
ATOM      6  C   UNL     1       4.717   3.915  16.965  0.00  0.00    +0.000 A 
ENDROOT
BRANCH   5   7
ATOM      7  S   UNL     1       7.024   5.064  16.051  0.00  0.00    +0.000 S 
ATOM      8  O   UNL     1       6.912   4.313  14.822  0.00  0.00    +0.000 OA
ATOM      9  O   UNL     1       7.544   6.410  16.104  0.00  0.00    +0.000 OA
BRANCH   7  10
ATOM     10  O   UNL     1       7.919   4.140  17.031  0.00  0.00    +0.000 OA
ATOM     11  H   UNL     1       8.692   3.820  16.517  0.00  0.00    +0.000 HD
ENDBRANCH   7  10
ENDBRANCH   5   7
BRANCH   1  13
ATOM     12  O   UNL     1       3.063   1.681  17.915  0.00  0.00    +0.000 OA
ATOM     13  C   UNL     1       2.609   2.804  17.780  0.00  0.00    +0.000 C 
BRANCH  13  14
ATOM     14  O   UNL     1       1.290   3.077  17.777  0.00  0.00    +0.000 OA
ATOM     15  H   UNL     1       0.727   2.518  18.343  0.00  0.00    +0.000 HD
ENDBRANCH  13  14
ENDBRANCH   1  13
TORSDOF 4
ENDMDL
MODEL 9
REMARK VINA RESULT:      -5.8      1.255      1.861
REMARK  Name = 
REMARK  4 active torsions:
REMARK  status: ('A' for Active; 'I' for Inactive)
REMARK    1  A    between atoms: C_2  and  O_3
REMARK    2  A    between atoms: C_2  and  C_4
REMARK    3  A    between atoms: C_8  and  S_9
REMARK    4  A    between atoms: S_9  and  O_12
REMARK                            x       y       z     vdW  Elec       q    Type
REMARK                         _______ _______ _______ _____ _____    ______ ____
ROOT
ATOM      1  C   UNL     1       3.540   3.534  18.105  0.00  0.00    +0.000 A 
ATOM      2  C   UNL     1       4.397   3.553  19.200  0.00  0.00    +0.000 A 
ATOM      3  N   UNL     1       5.656   4.064  19.160  0.00  0.00    +0.000 NA
ATOM      4  C   UNL     1       6.072   4.591  17.984  0.00  0.00    +0.000 A 
ATOM      5  C   UNL     1       5.270   4.627  16.859  0.00  0.00    +0.000 A 
ATOM      6  C   UNL     1       3.976   4.108  16.912  0.00  0.00    +0.000 A 
ENDROOT
BRANCH   5   7
ATOM      7  S   UNL     1       5.865   5.371  15.391  0.00  0.00    +0.000 S 
ATOM      8  O   UNL     1       5.841   4.383  14.338  0.00  0.00    +0.000 OA
ATOM      9  O   UNL     1       5.216   6.656  15.276  0.00  0.00    +0.000 OA
BRANCH   7  10
ATOM     10  O   UNL     1       7.432   5.625  15.698  0.00  0.00    +0.000 OA
ATOM     11  H   UNL     1       7.575   5.483  16.659  0.00  0.00    +0.000 HD
ENDBRANCH   7  10
ENDBRANCH   5   7
BRANCH   1  13
ATOM     12  O   UNL     1       1.990   1.949  18.925  0.00  0.00    +0.000 OA
ATOM     13  C   UNL     1       2.195   2.954  18.267  0.00  0.00    +0.000 C 
BRANCH  13  14
ATOM     14  O   UNL     1       1.227   3.622  17.608  0.00  0.00    +0.000 OA
ATOM     15  H   UNL     1       1.460   4.506  17.270  0.00  0.00    +0.000 HD
ENDBRANCH  13  14
ENDBRANCH   1  13
TORSDOF 4
ENDMDL
