MODEL 1
REMARK VINA RESULT:      -7.2      0.000      0.000
REMARK  Name = 
REMARK  4 active torsions:
REMARK  status: ('A' for Active; 'I' for Inactive)
REMARK    1  A    between atoms: C_1  and  C_2
REMARK    2  A    between atoms: N_17  and  C_18
REMARK    3  A    between atoms: C_18  and  C_19
REMARK    4  A    between atoms: C_18  and  C_20
REMARK                            x       y       z     vdW  Elec       q    Type
REMARK                         _______ _______ _______ _____ _____    ______ ____
ROOT
ATOM      1  C   UNL     1       2.219   5.462  20.906  0.00  0.00    +0.000 C 
ATOM      2  C   UNL     1       2.608   6.218  19.669  0.00  0.00    +0.000 A 
ATOM      3  N   UNL     1       3.482   5.590  18.851  0.00  0.00    +0.000 NA
ATOM      4  C   UNL     1       3.900   6.225  17.746  0.00  0.00    +0.000 A 
ATOM      5  N   UNL     1       4.837   5.621  16.961  0.00  0.00    +0.000 N 
ATOM      6  C   UNL     1       5.389   6.227  15.771  0.00  0.00    +0.000 C 
ATOM      7  C   UNL     1       5.639   5.028  14.863  0.00  0.00    +0.000 C 
ATOM      8  C   UNL     1       5.990   3.910  15.837  0.00  0.00    +0.000 C 
ATOM      9  C   UNL     1       5.145   4.209  17.079  0.00  0.00    +0.000 C 
ATOM     10  N   UNL     1       3.436   7.431  17.393  0.00  0.00    +0.000 NA
ATOM     11  C   UNL     1       2.535   8.033  18.200  0.00  0.00    +0.000 A 
ATOM     12  C   UNL     1       2.108   7.481  19.397  0.00  0.00    +0.000 A 
ATOM     13  C   UNL     1       1.148   8.197  20.307  0.00  0.00    +0.000 C 
ATOM     14  N   UNL     1       0.930   9.595  19.922  0.00  0.00    +0.000 N 
ATOM     15  C   UNL     1       0.917  10.548  20.920  0.00  0.00    +0.000 C 
ATOM     16  O   UNL     1       1.025  10.257  22.113  0.00  0.00    +0.000 OA
ATOM     17  N   UNL     1       0.840  11.856  20.515  0.00  0.00    +0.000 N 
ATOM     18  C   UNL     1       0.773   9.798  18.482  0.00  0.00    +0.000 C 
ATOM     19  C   UNL     1       2.046   9.385  17.752  0.00  0.00    +0.000 C 
ATOM     20  H   UNL     1       0.389  12.044  19.636  0.00  0.00    +0.000 HD
ENDROOT
BRANCH  17  21
ATOM     21  C   UNL     1       0.816  12.955  21.479  0.00  0.00    +0.000 C 
ATOM     22  C   UNL     1       1.537  14.169  20.899  0.00  0.00    +0.000 C 
ATOM     23  C   UNL     1      -0.615  13.319  21.869  0.00  0.00    +0.000 C 
ENDBRANCH  17  21
TORSDOF 1
ENDMDL
MODEL 2
REMARK VINA RESULT:      -6.9      5.344      6.618
REMARK  Name = 
REMARK  4 active torsions:
REMARK  status: ('A' for Active; 'I' for Inactive)
REMARK    1  A    between atoms: C_1  and  C_2
REMARK    2  A    between atoms: N_17  and  C_18
REMARK    3  A    between atoms: C_18  and  C_19
REMARK    4  A    between atoms: C_18  and  C_20
REMARK                            x       y       z     vdW  Elec       q    Type
REMARK                         _______ _______ _______ _____ _____    ______ ____
ROOT
ATOM      1  C   UNL     1       4.857   6.602  15.235  0.00  0.00    +0.000 C 
ATOM      2  C   UNL     1       5.021   6.039  16.617  0.00  0.00    +0.000 A 
ATOM      3  N   UNL     1       4.065   5.167  17.010  0.00  0.00    +0.000 NA
ATOM      4  C   UNL     1       4.130   4.655  18.248  0.00  0.00    +0.000 A 
ATOM      5  N   UNL     1       3.126   3.833  18.668  0.00  0.00    +0.000 N 
ATOM      6  C   UNL     1       3.072   3.257  19.992  0.00  0.00    +0.000 C 
ATOM      7  C   UNL     1       2.410   1.905  19.747  0.00  0.00    +0.000 C 
ATOM      8  C   UNL     1       1.462   2.177  18.585  0.00  0.00    +0.000 C 
ATOM      9  C   UNL     1       2.188   3.231  17.743  0.00  0.00    +0.000 C 
ATOM     10  N   UNL     1       5.141   4.927  19.085  0.00  0.00    +0.000 NA
ATOM     11  C   UNL     1       6.110   5.772  18.667  0.00  0.00    +0.000 A 
ATOM     12  C   UNL     1       6.079   6.403  17.434  0.00  0.00    +0.000 A 
ATOM     13  C   UNL     1       7.139   7.384  17.015  0.00  0.00    +0.000 C 
ATOM     14  N   UNL     1       8.026   7.773  18.115  0.00  0.00    +0.000 N 
ATOM     15  C   UNL     1       8.355   9.107  18.245  0.00  0.00    +0.000 C 
ATOM     16  O   UNL     1       7.976   9.960  17.440  0.00  0.00    +0.000 OA
ATOM     17  N   UNL     1       9.079   9.453  19.355  0.00  0.00    +0.000 N 
ATOM     18  C   UNL     1       8.438   6.658  18.970  0.00  0.00    +0.000 C 
ATOM     19  C   UNL     1       7.221   6.039  19.647  0.00  0.00    +0.000 C 
ATOM     20  H   UNL     1       9.672   8.749  19.762  0.00  0.00    +0.000 HD
ENDROOT
BRANCH  17  21
ATOM     21  C   UNL     1       9.489  10.835  19.602  0.00  0.00    +0.000 C 
ATOM     22  C   UNL     1       9.398  11.145  21.093  0.00  0.00    +0.000 C 
ATOM     23  C   UNL     1      10.904  11.093  19.088  0.00  0.00    +0.000 C 
ENDBRANCH  17  21
TORSDOF 1
ENDMDL
MODEL 3
REMARK VINA RESULT:      -6.8      2.984      8.122
REMARK  Name = 
REMARK  4 active torsions:
REMARK  status: ('A' for Active; 'I' for Inactive)
REMARK    1  A    between atoms: C_1  and  C_2
REMARK    2  A    between atoms: N_17  and  C_18
REMARK    3  A    between atoms: C_18  and  C_19
REMARK    4  A    between atoms: C_18  and  C_20
REMARK                            x       y       z     vdW  Elec       q    Type
REMARK                         _______ _______ _______ _____ _____    ______ ____
ROOT
ATOM      1  C   UNL     1       3.618   3.847  20.096  0.00  0.00    +0.000 C 
ATOM      2  C   UNL     1       3.501   5.164  19.387  0.00  0.00    +0.000 A 
ATOM      3  N   UNL     1       2.624   6.042  19.925  0.00  0.00    +0.000 NA
ATOM      4  C   UNL     1       2.443   7.225  19.319  0.00  0.00    +0.000 A 
ATOM      5  N   UNL     1       1.506   8.079  19.821  0.00  0.00    +0.000 N 
ATOM      6  C   UNL     1       1.198   9.360  19.227  0.00  0.00    +0.000 C 
ATOM      7  C   UNL     1       0.844  10.218  20.437  0.00  0.00    +0.000 C 
ATOM      8  C   UNL     1       0.202   9.228  21.401  0.00  0.00    +0.000 C 
ATOM      9  C   UNL     1       0.948   7.914  21.148  0.00  0.00    +0.000 C 
ATOM     10  N   UNL     1       3.145   7.592  18.238  0.00  0.00    +0.000 NA
ATOM     11  C   UNL     1       4.044   6.720  17.731  0.00  0.00    +0.000 A 
ATOM     12  C   UNL     1       4.239   5.450  18.250  0.00  0.00    +0.000 A 
ATOM     13  C   UNL     1       5.204   4.477  17.632  0.00  0.00    +0.000 C 
ATOM     14  N   UNL     1       5.701   4.915  16.324  0.00  0.00    +0.000 N 
ATOM     15  C   UNL     1       5.771   3.982  15.310  0.00  0.00    +0.000 C 
ATOM     16  O   UNL     1       5.487   2.795  15.485  0.00  0.00    +0.000 OA
ATOM     17  N   UNL     1       6.117   4.452  14.070  0.00  0.00    +0.000 N 
ATOM     18  C   UNL     1       6.045   6.336  16.264  0.00  0.00    +0.000 C 
ATOM     19  C   UNL     1       4.806   7.186  16.518  0.00  0.00    +0.000 C 
ATOM     20  H   UNL     1       6.685   5.281  14.028  0.00  0.00    +0.000 HD
ENDROOT
BRANCH  17  21
ATOM     21  C   UNL     1       6.226   3.560  12.916  0.00  0.00    +0.000 C 
ATOM     22  C   UNL     1       4.868   3.423  12.235  0.00  0.00    +0.000 C 
ATOM     23  C   UNL     1       7.274   4.063  11.924  0.00  0.00    +0.000 C 
ENDBRANCH  17  21
TORSDOF 1
ENDMDL
MODEL 4
REMARK VINA RESULT:      -6.2      2.524      3.937
REMARK  Name = 
REMARK  4 active torsions:
REMARK  status: ('A' for Active; 'I' for Inactive)
REMARK    1  A    between atoms: C_1  and  C_2
REMARK    2  A    between atoms: N_17  and  C_18
REMARK    3  A    between atoms: C_18  and  C_19
REMARK    4  A    between atoms: C_18  and  C_20
REMARK                            x       y       z     vdW  Elec       q    Type
REMARK                         _______ _______ _______ _____ _____    ______ ____
ROOT
ATOM      1  C   UNL     1       3.205   8.187  17.397  0.00  0.00    +0.000 C 
ATOM      2  C   UNL     1       2.532   7.647  18.625  0.00  0.00    +0.000 A 
ATOM      3  N   UNL     1       2.731   6.331  18.869  0.00  0.00    +0.000 NA
ATOM      4  C   UNL     1       2.128   5.775  19.930  0.00  0.00    +0.000 A 
ATOM      5  N   UNL     1       2.269   4.434  20.133  0.00  0.00    +0.000 N 
ATOM      6  C   UNL     1       1.633   3.723  21.218  0.00  0.00    +0.000 C 
ATOM      7  C   UNL     1       2.647   2.633  21.549  0.00  0.00    +0.000 C 
ATOM      8  C   UNL     1       3.286   2.318  20.202  0.00  0.00    +0.000 C 
ATOM      9  C   UNL     1       3.295   3.660  19.464  0.00  0.00    +0.000 C 
ATOM     10  N   UNL     1       1.387   6.489  20.790  0.00  0.00    +0.000 NA
ATOM     11  C   UNL     1       1.226   7.810  20.555  0.00  0.00    +0.000 A 
ATOM     12  C   UNL     1       1.752   8.447  19.443  0.00  0.00    +0.000 A 
ATOM     13  C   UNL     1       1.510   9.907  19.173  0.00  0.00    +0.000 C 
ATOM     14  N   UNL     1       0.486  10.488  20.046  0.00  0.00    +0.000 N 
ATOM     15  C   UNL     1      -0.453  11.326  19.479  0.00  0.00    +0.000 C 
ATOM     16  O   UNL     1      -0.421  11.641  18.288  0.00  0.00    +0.000 OA
ATOM     17  N   UNL     1      -1.469  11.748  20.296  0.00  0.00    +0.000 N 
ATOM     18  C   UNL     1       0.588  10.068  21.445  0.00  0.00    +0.000 C 
ATOM     19  C   UNL     1       0.388   8.562  21.555  0.00  0.00    +0.000 C 
ATOM     20  H   UNL     1      -1.280  11.802  21.283  0.00  0.00    +0.000 HD
ENDROOT
BRANCH  17  21
ATOM     21  C   UNL     1      -2.521  12.640  19.810  0.00  0.00    +0.000 C 
ATOM     22  C   UNL     1      -3.572  11.836  19.050  0.00  0.00    +0.000 C 
ATOM     23  C   UNL     1      -3.167  13.412  20.959  0.00  0.00    +0.000 C 
ENDBRANCH  17  21
TORSDOF 1
ENDMDL
MODEL 5
REMARK VINA RESULT:      -6.2      2.410      3.783
REMARK  Name = 
REMARK  4 active torsions:
REMARK  status: ('A' for Active; 'I' for Inactive)
REMARK    1  A    between atoms: C_1  and  C_2
REMARK    2  A    between atoms: N_17  and  C_18
REMARK    3  A    between atoms: C_18  and  C_19
REMARK    4  A    between atoms: C_18  and  C_20
REMARK                            x       y       z     vdW  Elec       q    Type
REMARK                         _______ _______ _______ _____ _____    ______ ____
ROOT
ATOM      1  C   UNL     1       0.096   9.256  23.055  0.00  0.00    +0.000 C 
ATOM      2  C   UNL     1       0.649   9.160  21.664  0.00  0.00    +0.000 A 
ATOM      3  N   UNL     1       1.092   7.937  21.294  0.00  0.00    +0.000 NA
ATOM      4  C   UNL     1       1.632   7.788  20.076  0.00  0.00    +0.000 A 
ATOM      5  N   UNL     1       2.145   6.573  19.732  0.00  0.00    +0.000 N 
ATOM      6  C   UNL     1       2.786   6.309  18.464  0.00  0.00    +0.000 C 
ATOM      7  C   UNL     1       2.416   4.855  18.192  0.00  0.00    +0.000 C 
ATOM      8  C   UNL     1       2.350   4.237  19.583  0.00  0.00    +0.000 C 
ATOM      9  C   UNL     1       1.834   5.369  20.477  0.00  0.00    +0.000 C 
ATOM     10  N   UNL     1       1.693   8.793  19.190  0.00  0.00    +0.000 NA
ATOM     11  C   UNL     1       1.214  10.002  19.559  0.00  0.00    +0.000 A 
ATOM     12  C   UNL     1       0.709  10.259  20.823  0.00  0.00    +0.000 A 
ATOM     13  C   UNL     1       0.235  11.628  21.228  0.00  0.00    +0.000 C 
ATOM     14  N   UNL     1       0.596  12.668  20.260  0.00  0.00    +0.000 N 
ATOM     15  C   UNL     1       1.084  13.865  20.744  0.00  0.00    +0.000 C 
ATOM     16  O   UNL     1       1.171  14.103  21.950  0.00  0.00    +0.000 OA
ATOM     17  N   UNL     1       1.530  14.764  19.811  0.00  0.00    +0.000 N 
ATOM     18  C   UNL     1       0.403  12.273  18.864  0.00  0.00    +0.000 C 
ATOM     19  C   UNL     1       1.304  11.092  18.524  0.00  0.00    +0.000 C 
ATOM     20  H   UNL     1       1.121  14.725  18.892  0.00  0.00    +0.000 HD
ENDROOT
BRANCH  17  21
ATOM     21  C   UNL     1       2.068  16.068  20.200  0.00  0.00    +0.000 C 
ATOM     22  C   UNL     1       3.513  16.195  19.728  0.00  0.00    +0.000 C 
ATOM     23  C   UNL     1       1.220  17.207  19.637  0.00  0.00    +0.000 C 
ENDBRANCH  17  21
TORSDOF 1
ENDMDL
MODEL 6
REMARK VINA RESULT:      -6.2      2.563      3.626
REMARK  Name = 
REMARK  4 active torsions:
REMARK  status: ('A' for Active; 'I' for Inactive)
REMARK    1  A    between atoms: C_1  and  C_2
REMARK    2  A    between atoms: N_17  and  C_18
REMARK    3  A    between atoms: C_18  and  C_19
REMARK    4  A    between atoms: C_18  and  C_20
REMARK                            x       y       z     vdW  Elec       q    Type
REMARK                         _______ _______ _______ _____ _____    ______ ____
ROOT
ATOM      1  C   UNL     1      -0.005   8.744  22.367  0.00  0.00    +0.000 C 
ATOM      2  C   UNL     1       0.805   8.319  21.178  0.00  0.00    +0.000 A 
ATOM      3  N   UNL     1       1.182   7.020  21.162  0.00  0.00    +0.000 NA
ATOM      4  C   UNL     1       1.939   6.582  20.145  0.00  0.00    +0.000 A 
ATOM      5  N   UNL     1       2.379   5.292  20.167  0.00  0.00    +0.000 N 
ATOM      6  C   UNL     1       3.232   4.724  19.148  0.00  0.00    +0.000 C 
ATOM      7  C   UNL     1       2.773   3.271  19.091  0.00  0.00    +0.000 C 
ATOM      8  C   UNL     1       2.362   2.970  20.528  0.00  0.00    +0.000 C 
ATOM      9  C   UNL     1       1.798   4.297  21.046  0.00  0.00    +0.000 C 
ATOM     10  N   UNL     1       2.283   7.369  19.116  0.00  0.00    +0.000 NA
ATOM     11  C   UNL     1       1.870   8.655  19.126  0.00  0.00    +0.000 A 
ATOM     12  C   UNL     1       1.150   9.207  20.173  0.00  0.00    +0.000 A 
ATOM     13  C   UNL     1       0.752  10.658  20.187  0.00  0.00    +0.000 C 
ATOM     14  N   UNL     1       1.408  11.442  19.138  0.00  0.00    +0.000 N 
ATOM     15  C   UNL     1       1.912  12.683  19.474  0.00  0.00    +0.000 C 
ATOM     16  O   UNL     1       1.778  13.167  20.599  0.00  0.00    +0.000 OA
ATOM     17  N   UNL     1       2.631  13.333  18.504  0.00  0.00    +0.000 N 
ATOM     18  C   UNL     1       1.462  10.771  17.839  0.00  0.00    +0.000 C 
ATOM     19  C   UNL     1       2.283   9.491  17.944  0.00  0.00    +0.000 C 
ATOM     20  H   UNL     1       2.414  13.123  17.544  0.00  0.00    +0.000 HD
ENDROOT
BRANCH  17  21
ATOM     21  C   UNL     1       3.213  14.653  18.739  0.00  0.00    +0.000 C 
ATOM     22  C   UNL     1       4.539  14.776  17.994  0.00  0.00    +0.000 C 
ATOM     23  C   UNL     1       2.256  15.765  18.313  0.00  0.00    +0.000 C 
ENDBRANCH  17  21
TORSDOF 1
ENDMDL
MODEL 7
REMARK VINA RESULT:      -6.1      3.712      8.603
REMARK  Name = 
REMARK  4 active torsions:
REMARK  status: ('A' for Active; 'I' for Inactive)
REMARK    1  A    between atoms: C_1  and  C_2
REMARK    2  A    between atoms: N_17  and  C_18
REMARK    3  A    between atoms: C_18  and  C_19
REMARK    4  A    between atoms: C_18  and  C_20
REMARK                            x       y       z     vdW  Elec       q    Type
REMARK                         _______ _______ _______ _____ _____    ______ ____
ROOT
ATOM      1  C   UNL     1      -1.588  12.528  22.145  0.00  0.00    +0.000 C 
ATOM      2  C   UNL     1      -1.965  12.017  20.785  0.00  0.00    +0.000 A 
ATOM      3  N   UNL     1      -3.182  12.399  20.335  0.00  0.00    +0.000 NA
ATOM      4  C   UNL     1      -3.597  11.948  19.142  0.00  0.00    +0.000 A 
ATOM      5  N   UNL     1      -4.853  12.274  18.722  0.00  0.00    +0.000 N 
ATOM      6  C   UNL     1      -5.420  11.812  17.475  0.00  0.00    +0.000 C 
ATOM      7  C   UNL     1      -6.308  12.978  17.054  0.00  0.00    +0.000 C 
ATOM      8  C   UNL     1      -6.792  13.555  18.378  0.00  0.00    +0.000 C 
ATOM      9  C   UNL     1      -5.617  13.341  19.337  0.00  0.00    +0.000 C 
ATOM     10  N   UNL     1      -2.826  11.186  18.354  0.00  0.00    +0.000 NA
ATOM     11  C   UNL     1      -1.598  10.841  18.800  0.00  0.00    +0.000 A 
ATOM     12  C   UNL     1      -1.121  11.201  20.051  0.00  0.00    +0.000 A 
ATOM     13  C   UNL     1       0.227  10.756  20.547  0.00  0.00    +0.000 C 
ATOM     14  N   UNL     1       0.840   9.730  19.698  0.00  0.00    +0.000 N 
ATOM     15  C   UNL     1       1.447   8.654  20.314  0.00  0.00    +0.000 C 
ATOM     16  O   UNL     1       1.538   8.562  21.539  0.00  0.00    +0.000 OA
ATOM     17  N   UNL     1       1.896   7.653  19.493  0.00  0.00    +0.000 N 
ATOM     18  C   UNL     1       0.699   9.983  18.263  0.00  0.00    +0.000 C 
ATOM     19  C   UNL     1      -0.774   9.986  17.874  0.00  0.00    +0.000 C 
ATOM     20  H   UNL     1       2.152   7.902  18.552  0.00  0.00    +0.000 HD
ENDROOT
BRANCH  17  21
ATOM     21  C   UNL     1       2.558   6.464  20.027  0.00  0.00    +0.000 C 
ATOM     22  C   UNL     1       1.514   5.432  20.443  0.00  0.00    +0.000 C 
ATOM     23  C   UNL     1       3.525   5.864  19.009  0.00  0.00    +0.000 C 
ENDBRANCH  17  21
TORSDOF 1
ENDMDL
MODEL 8
REMARK VINA RESULT:      -6.1      2.601      4.281
REMARK  Name = 
REMARK  4 active torsions:
REMARK  status: ('A' for Active; 'I' for Inactive)
REMARK    1  A    between atoms: C_1  and  C_2
REMARK    2  A    between atoms: N_17  and  C_18
REMARK    3  A    between atoms: C_18  and  C_19
REMARK    4  A    between atoms: C_18  and  C_20
REMARK                            x       y       z     vdW  Elec       q    Type
REMARK                         _______ _______ _______ _____ _____    ______ ____
ROOT
ATOM      1  C   UNL     1      -0.075   9.638  23.194  0.00  0.00    +0.000 C 
ATOM      2  C   UNL     1       0.200   9.631  21.719  0.00  0.00    +0.000 A 
ATOM      3  N   UNL     1       0.983   8.621  21.276  0.00  0.00    +0.000 NA
ATOM      4  C   UNL     1       1.300   8.575  19.974  0.00  0.00    +0.000 A 
ATOM      5  N   UNL     1       2.148   7.600  19.542  0.00  0.00    +0.000 N 
ATOM      6  C   UNL     1       2.589   7.478  18.171  0.00  0.00    +0.000 C 
ATOM      7  C   UNL     1       2.735   5.971  17.993  0.00  0.00    +0.000 C 
ATOM      8  C   UNL     1       3.166   5.489  19.373  0.00  0.00    +0.000 C 
ATOM      9  C   UNL     1       2.448   6.431  20.345  0.00  0.00    +0.000 C 
ATOM     10  N   UNL     1       0.818   9.457  19.087  0.00  0.00    +0.000 NA
ATOM     11  C   UNL     1       0.007  10.441  19.537  0.00  0.00    +0.000 A 
ATOM     12  C   UNL     1      -0.308  10.604  20.876  0.00  0.00    +0.000 A 
ATOM     13  C   UNL     1      -1.166  11.742  21.358  0.00  0.00    +0.000 C 
ATOM     14  N   UNL     1      -1.404  12.757  20.328  0.00  0.00    +0.000 N 
ATOM     15  C   UNL     1      -1.308  14.085  20.690  0.00  0.00    +0.000 C 
ATOM     16  O   UNL     1      -1.088  14.438  21.851  0.00  0.00    +0.000 OA
ATOM     17  N   UNL     1      -1.408  15.004  19.678  0.00  0.00    +0.000 N 
ATOM     18  C   UNL     1      -1.698  12.204  19.005  0.00  0.00    +0.000 C 
ATOM     19  C   UNL     1      -0.507  11.401  18.496  0.00  0.00    +0.000 C 
ATOM     20  H   UNL     1      -1.940  14.743  18.865  0.00  0.00    +0.000 HD
ENDROOT
BRANCH  17  21
ATOM     21  C   UNL     1      -1.325  16.441  19.937  0.00  0.00    +0.000 C 
ATOM     22  C   UNL     1      -0.670  17.144  18.752  0.00  0.00    +0.000 C 
ATOM     23  C   UNL     1      -2.704  17.035  20.216  0.00  0.00    +0.000 C 
ENDBRANCH  17  21
TORSDOF 1
ENDMDL
MODEL 9
REMARK VINA RESULT:      -6.1      2.514      3.981
REMARK  Name = 
REMARK  4 active torsions:
REMARK  status: ('A' for Active; 'I' for Inactive)
REMARK    1  A    between atoms: C_1  and  C_2
REMARK    2  A    between atoms: N_17  and  C_18
REMARK    3  A    between atoms: C_18  and  C_19
REMARK    4  A    between atoms: C_18  and  C_20
REMARK                            x       y       z     vdW  Elec       q    Type
REMARK                         _______ _______ _______ _____ _____    ______ ____
ROOT
ATOM      1  C   UNL     1       0.051   9.521  23.182  0.00  0.00    +0.000 C 
ATOM      2  C   UNL     1       0.450   9.392  21.741  0.00  0.00    +0.000 A 
ATOM      3  N   UNL     1       1.095   8.248  21.414  0.00  0.00    +0.000 NA
ATOM      4  C   UNL     1       1.512   8.084  20.150  0.00  0.00    +0.000 A 
ATOM      5  N   UNL     1       2.226   6.965  19.839  0.00  0.00    +0.000 N 
ATOM      6  C   UNL     1       2.760   6.702  18.522  0.00  0.00    +0.000 C 
ATOM      7  C   UNL     1       2.675   5.183  18.418  0.00  0.00    +0.000 C 
ATOM      8  C   UNL     1       2.899   4.714  19.850  0.00  0.00    +0.000 C 
ATOM      9  C   UNL     1       2.261   5.808  20.711  0.00  0.00    +0.000 C 
ATOM     10  N   UNL     1       1.259   8.982  19.188  0.00  0.00    +0.000 NA
ATOM     11  C   UNL     1       0.583  10.104  19.520  0.00  0.00    +0.000 A 
ATOM     12  C   UNL     1       0.182  10.387  20.816  0.00  0.00    +0.000 A 
ATOM     13  C   UNL     1      -0.519  11.669  21.170  0.00  0.00    +0.000 C 
ATOM     14  N   UNL     1      -0.498  12.653  20.083  0.00  0.00    +0.000 N 
ATOM     15  C   UNL     1      -0.220  13.967  20.402  0.00  0.00    +0.000 C 
ATOM     16  O   UNL     1      -0.048  14.342  21.563  0.00  0.00    +0.000 OA
ATOM     17  N   UNL     1      -0.081  14.834  19.350  0.00  0.00    +0.000 N 
ATOM     18  C   UNL     1      -0.760  12.084  18.761  0.00  0.00    +0.000 C 
ATOM     19  C   UNL     1       0.324  11.076  18.399  0.00  0.00    +0.000 C 
ATOM     20  H   UNL     1      -0.574  14.618  18.500  0.00  0.00    +0.000 HD
ENDROOT
BRANCH  17  21
ATOM     21  C   UNL     1       0.212  16.251  19.560  0.00  0.00    +0.000 C 
ATOM     22  C   UNL     1       1.656  16.547  19.164  0.00  0.00    +0.000 C 
ATOM     23  C   UNL     1      -0.750  17.138  18.772  0.00  0.00    +0.000 C 
ENDBRANCH  17  21
TORSDOF 1
ENDMDL
