MODEL 1
REMARK VINA RESULT:      -7.8      0.000      0.000
REMARK  Name = 
REMARK  3 active torsions:
REMARK  status: ('A' for Active; 'I' for Inactive)
REMARK    1  A    between atoms: C_7  and  C_8
REMARK    2  A    between atoms: C_11  and  C_12
REMARK    3  A    between atoms: C_12  and  C_13
REMARK                            x       y       z     vdW  Elec       q    Type
REMARK                         _______ _______ _______ _____ _____    ______ ____
ROOT
ATOM      1  C   UNL     1       4.673   4.372  18.441  0.00  0.00    +0.000 C 
ATOM      2  N   UNL     1       5.903   4.218  18.799  0.00  0.00    +0.000 NA
ATOM      3  O   UNL     1       6.672   4.534  17.665  0.00  0.00    +0.000 OA
ATOM      4  C   UNL     1       5.736   4.751  16.603  0.00  0.00    +0.000 C 
ATOM      5  O   UNL     1       4.437   4.758  17.171  0.00  0.00    +0.000 OA
ENDROOT
BRANCH   1  12
ATOM      6 CL   UNL     1       3.399   1.479  18.522  0.00  0.00    +0.000 Cl
ATOM      7  C   UNL     1       2.806   2.912  19.282  0.00  0.00    +0.000 A 
ATOM      8  C   UNL     1       1.611   2.784  20.004  0.00  0.00    +0.000 A 
ATOM      9  C   UNL     1       1.072   3.875  20.689  0.00  0.00    +0.000 A 
ATOM     10  C   UNL     1       1.731   5.099  20.668  0.00  0.00    +0.000 A 
ATOM     11  C   UNL     1       2.922   5.236  19.951  0.00  0.00    +0.000 A 
ATOM     12  C   UNL     1       3.463   4.147  19.242  0.00  0.00    +0.000 A 
ENDBRANCH   1  12
BRANCH   4  13
ATOM     13  C   UNL     1       5.874   3.608  15.592  0.00  0.00    +0.000 C 
BRANCH  13  14
ATOM     14  C   UNL     1       6.437   4.048  14.260  0.00  0.00    +0.000 A 
ATOM     15  C   UNL     1       6.058   3.405  13.074  0.00  0.00    +0.000 A 
ATOM     16  C   UNL     1       6.615   3.788  11.853  0.00  0.00    +0.000 A 
ATOM     17  C   UNL     1       7.542   4.827  11.803  0.00  0.00    +0.000 A 
ATOM     18  C   UNL     1       7.906   5.491  12.972  0.00  0.00    +0.000 A 
ATOM     19  C   UNL     1       7.357   5.104  14.195  0.00  0.00    +0.000 A 
ENDBRANCH  13  14
ENDBRANCH   4  13
TORSDOF 3
ENDMDL
MODEL 2
REMARK VINA RESULT:      -7.6      1.270      1.671
REMARK  Name = 
REMARK  3 active torsions:
REMARK  status: ('A' for Active; 'I' for Inactive)
REMARK    1  A    between atoms: C_7  and  C_8
REMARK    2  A    between atoms: C_11  and  C_12
REMARK    3  A    between atoms: C_12  and  C_13
REMARK                            x       y       z     vdW  Elec       q    Type
REMARK                         _______ _______ _______ _____ _____    ______ ____
ROOT
ATOM      1  C   UNL     1       4.470   4.323  18.449  0.00  0.00    +0.000 C 
ATOM      2  N   UNL     1       5.696   4.248  18.842  0.00  0.00    +0.000 NA
ATOM      3  O   UNL     1       6.477   4.584  17.721  0.00  0.00    +0.000 OA
ATOM      4  C   UNL     1       5.559   4.723  16.630  0.00  0.00    +0.000 C 
ATOM      5  O   UNL     1       4.246   4.667  17.165  0.00  0.00    +0.000 OA
ENDROOT
BRANCH   1  12
ATOM      6 CL   UNL     1       2.723   6.745  19.488  0.00  0.00    +0.000 Cl
ATOM      7  C   UNL     1       2.461   5.061  19.768  0.00  0.00    +0.000 A 
ATOM      8  C   UNL     1       1.354   4.729  20.563  0.00  0.00    +0.000 A 
ATOM      9  C   UNL     1       1.033   3.393  20.814  0.00  0.00    +0.000 A 
ATOM     10  C   UNL     1       1.807   2.379  20.259  0.00  0.00    +0.000 A 
ATOM     11  C   UNL     1       2.910   2.701  19.466  0.00  0.00    +0.000 A 
ATOM     12  C   UNL     1       3.254   4.045  19.223  0.00  0.00    +0.000 A 
ENDBRANCH   1  12
BRANCH   4  13
ATOM     13  C   UNL     1       5.789   3.569  15.650  0.00  0.00    +0.000 C 
BRANCH  13  14
ATOM     14  C   UNL     1       6.364   4.011  14.324  0.00  0.00    +0.000 A 
ATOM     15  C   UNL     1       5.966   3.398  13.129  0.00  0.00    +0.000 A 
ATOM     16  C   UNL     1       6.533   3.783  11.913  0.00  0.00    +0.000 A 
ATOM     17  C   UNL     1       7.491   4.794  11.878  0.00  0.00    +0.000 A 
ATOM     18  C   UNL     1       7.876   5.429  13.056  0.00  0.00    +0.000 A 
ATOM     19  C   UNL     1       7.316   5.040  14.274  0.00  0.00    +0.000 A 
ENDBRANCH  13  14
ENDBRANCH   4  13
TORSDOF 3
ENDMDL
MODEL 3
REMARK VINA RESULT:      -7.5      0.910      1.415
REMARK  Name = 
REMARK  3 active torsions:
REMARK  status: ('A' for Active; 'I' for Inactive)
REMARK    1  A    between atoms: C_7  and  C_8
REMARK    2  A    between atoms: C_11  and  C_12
REMARK    3  A    between atoms: C_12  and  C_13
REMARK                            x       y       z     vdW  Elec       q    Type
REMARK                         _______ _______ _______ _____ _____    ______ ____
ROOT
ATOM      1  C   UNL     1       3.925   5.002  18.115  0.00  0.00    +0.000 C 
ATOM      2  N   UNL     1       4.815   5.858  18.486  0.00  0.00    +0.000 NA
ATOM      3  O   UNL     1       5.541   6.180  17.325  0.00  0.00    +0.000 OA
ATOM      4  C   UNL     1       5.046   5.312  16.299  0.00  0.00    +0.000 C 
ATOM      5  O   UNL     1       3.908   4.642  16.816  0.00  0.00    +0.000 OA
ENDROOT
BRANCH   1  12
ATOM      6 CL   UNL     1       3.661   1.856  17.948  0.00  0.00    +0.000 Cl
ATOM      7  C   UNL     1       2.702   2.943  18.885  0.00  0.00    +0.000 A 
ATOM      8  C   UNL     1       1.675   2.368  19.647  0.00  0.00    +0.000 A 
ATOM      9  C   UNL     1       0.870   3.159  20.470  0.00  0.00    +0.000 A 
ATOM     10  C   UNL     1       1.096   4.529  20.548  0.00  0.00    +0.000 A 
ATOM     11  C   UNL     1       2.117   5.110  19.793  0.00  0.00    +0.000 A 
ATOM     12  C   UNL     1       2.921   4.324  18.945  0.00  0.00    +0.000 A 
ENDBRANCH   1  12
BRANCH   4  13
ATOM     13  C   UNL     1       6.144   4.307  15.939  0.00  0.00    +0.000 C 
BRANCH  13  14
ATOM     14  C   UNL     1       6.524   4.327  14.477  0.00  0.00    +0.000 A 
ATOM     15  C   UNL     1       7.541   5.170  14.011  0.00  0.00    +0.000 A 
ATOM     16  C   UNL     1       7.856   5.215  12.652  0.00  0.00    +0.000 A 
ATOM     17  C   UNL     1       7.170   4.406  11.749  0.00  0.00    +0.000 A 
ATOM     18  C   UNL     1       6.175   3.545  12.203  0.00  0.00    +0.000 A 
ATOM     19  C   UNL     1       5.852   3.505  13.560  0.00  0.00    +0.000 A 
ENDBRANCH  13  14
ENDBRANCH   4  13
TORSDOF 3
ENDMDL
MODEL 4
REMARK VINA RESULT:      -7.4      0.720      1.318
REMARK  Name = 
REMARK  3 active torsions:
REMARK  status: ('A' for Active; 'I' for Inactive)
REMARK    1  A    between atoms: C_7  and  C_8
REMARK    2  A    between atoms: C_11  and  C_12
REMARK    3  A    between atoms: C_12  and  C_13
REMARK                            x       y       z     vdW  Elec       q    Type
REMARK                         _______ _______ _______ _____ _____    ______ ____
ROOT
ATOM      1  C   UNL     1       4.520   4.485  18.618  0.00  0.00    +0.000 C 
ATOM      2  N   UNL     1       5.774   4.618  18.889  0.00  0.00    +0.000 NA
ATOM      3  O   UNL     1       6.395   4.942  17.669  0.00  0.00    +0.000 OA
ATOM      4  C   UNL     1       5.373   4.843  16.670  0.00  0.00    +0.000 C 
ATOM      5  O   UNL     1       4.135   4.664  17.338  0.00  0.00    +0.000 OA
ENDROOT
BRANCH   1  12
ATOM      6 CL   UNL     1       4.679   1.750  20.196  0.00  0.00    +0.000 Cl
ATOM      7  C   UNL     1       3.397   2.907  20.222  0.00  0.00    +0.000 A 
ATOM      8  C   UNL     1       2.290   2.590  21.022  0.00  0.00    +0.000 A 
ATOM      9  C   UNL     1       1.220   3.480  21.143  0.00  0.00    +0.000 A 
ATOM     10  C   UNL     1       1.256   4.700  20.475  0.00  0.00    +0.000 A 
ATOM     11  C   UNL     1       2.356   5.024  19.677  0.00  0.00    +0.000 A 
ATOM     12  C   UNL     1       3.430   4.125  19.534  0.00  0.00    +0.000 A 
ENDBRANCH   1  12
BRANCH   4  13
ATOM     13  C   UNL     1       5.681   3.638  15.776  0.00  0.00    +0.000 C 
BRANCH  13  14
ATOM     14  C   UNL     1       6.304   4.014  14.452  0.00  0.00    +0.000 A 
ATOM     15  C   UNL     1       7.329   4.967  14.386  0.00  0.00    +0.000 A 
ATOM     16  C   UNL     1       7.870   5.340  13.154  0.00  0.00    +0.000 A 
ATOM     17  C   UNL     1       7.403   4.754  11.980  0.00  0.00    +0.000 A 
ATOM     18  C   UNL     1       6.403   3.786  12.035  0.00  0.00    +0.000 A 
ATOM     19  C   UNL     1       5.855   3.418  13.264  0.00  0.00    +0.000 A 
ENDBRANCH  13  14
ENDBRANCH   4  13
TORSDOF 3
ENDMDL
MODEL 5
REMARK VINA RESULT:      -7.4      1.312      2.033
REMARK  Name = 
REMARK  3 active torsions:
REMARK  status: ('A' for Active; 'I' for Inactive)
REMARK    1  A    between atoms: C_7  and  C_8
REMARK    2  A    between atoms: C_11  and  C_12
REMARK    3  A    between atoms: C_12  and  C_13
REMARK                            x       y       z     vdW  Elec       q    Type
REMARK                         _______ _______ _______ _____ _____    ______ ____
ROOT
ATOM      1  C   UNL     1       4.298   4.477  18.307  0.00  0.00    +0.000 C 
ATOM      2  N   UNL     1       5.521   4.602  18.697  0.00  0.00    +0.000 NA
ATOM      3  O   UNL     1       6.256   4.936  17.545  0.00  0.00    +0.000 OA
ATOM      4  C   UNL     1       5.334   4.853  16.453  0.00  0.00    +0.000 C 
ATOM      5  O   UNL     1       4.038   4.671  16.999  0.00  0.00    +0.000 OA
ENDROOT
BRANCH   1  12
ATOM      6 CL   UNL     1       2.543   6.768  19.597  0.00  0.00    +0.000 Cl
ATOM      7  C   UNL     1       2.334   5.062  19.764  0.00  0.00    +0.000 A 
ATOM      8  C   UNL     1       1.273   4.643  20.580  0.00  0.00    +0.000 A 
ATOM      9  C   UNL     1       0.996   3.284  20.745  0.00  0.00    +0.000 A 
ATOM     10  C   UNL     1       1.768   2.335  20.084  0.00  0.00    +0.000 A 
ATOM     11  C   UNL     1       2.826   2.744  19.269  0.00  0.00    +0.000 A 
ATOM     12  C   UNL     1       3.126   4.111  19.111  0.00  0.00    +0.000 A 
ENDBRANCH   1  12
BRANCH   4  13
ATOM     13  C   UNL     1       5.721   3.657  15.578  0.00  0.00    +0.000 C 
BRANCH  13  14
ATOM     14  C   UNL     1       6.380   4.051  14.276  0.00  0.00    +0.000 A 
ATOM     15  C   UNL     1       7.325   5.083  14.234  0.00  0.00    +0.000 A 
ATOM     16  C   UNL     1       7.897   5.470  13.021  0.00  0.00    +0.000 A 
ATOM     17  C   UNL     1       7.541   4.818  11.842  0.00  0.00    +0.000 A 
ATOM     18  C   UNL     1       6.622   3.773  11.875  0.00  0.00    +0.000 A 
ATOM     19  C   UNL     1       6.043   3.390  13.086  0.00  0.00    +0.000 A 
ENDBRANCH  13  14
ENDBRANCH   4  13
TORSDOF 3
ENDMDL
MODEL 6
REMARK VINA RESULT:      -7.2      1.343      1.464
REMARK  Name = 
REMARK  3 active torsions:
REMARK  status: ('A' for Active; 'I' for Inactive)
REMARK    1  A    between atoms: C_7  and  C_8
REMARK    2  A    between atoms: C_11  and  C_12
REMARK    3  A    between atoms: C_12  and  C_13
REMARK                            x       y       z     vdW  Elec       q    Type
REMARK                         _______ _______ _______ _____ _____    ______ ____
ROOT
ATOM      1  C   UNL     1       4.138   4.674  18.368  0.00  0.00    +0.000 C 
ATOM      2  N   UNL     1       5.078   5.473  18.745  0.00  0.00    +0.000 NA
ATOM      3  O   UNL     1       5.745   5.860  17.569  0.00  0.00    +0.000 OA
ATOM      4  C   UNL     1       5.160   5.089  16.513  0.00  0.00    +0.000 C 
ATOM      5  O   UNL     1       4.032   4.415  17.049  0.00  0.00    +0.000 OA
ENDROOT
BRANCH   1  12
ATOM      6 CL   UNL     1       1.095   4.665  17.510  0.00  0.00    +0.000 Cl
ATOM      7  C   UNL     1       1.791   3.965  18.927  0.00  0.00    +0.000 A 
ATOM      8  C   UNL     1       0.902   3.334  19.809  0.00  0.00    +0.000 A 
ATOM      9  C   UNL     1       1.373   2.702  20.962  0.00  0.00    +0.000 A 
ATOM     10  C   UNL     1       2.736   2.683  21.234  0.00  0.00    +0.000 A 
ATOM     11  C   UNL     1       3.629   3.309  20.360  0.00  0.00    +0.000 A 
ATOM     12  C   UNL     1       3.163   3.966  19.205  0.00  0.00    +0.000 A 
ENDBRANCH   1  12
BRANCH   4  13
ATOM     13  C   UNL     1       6.200   4.081  16.013  0.00  0.00    +0.000 C 
BRANCH  13  14
ATOM     14  C   UNL     1       6.504   4.211  14.539  0.00  0.00    +0.000 A 
ATOM     15  C   UNL     1       5.820   3.436  13.593  0.00  0.00    +0.000 A 
ATOM     16  C   UNL     1       6.136   3.531  12.238  0.00  0.00    +0.000 A 
ATOM     17  C   UNL     1       7.127   4.413  11.812  0.00  0.00    +0.000 A 
ATOM     18  C   UNL     1       7.796   5.208  12.739  0.00  0.00    +0.000 A 
ATOM     19  C   UNL     1       7.487   5.108  14.096  0.00  0.00    +0.000 A 
ENDBRANCH  13  14
ENDBRANCH   4  13
TORSDOF 3
ENDMDL
MODEL 7
REMARK VINA RESULT:      -7.1      3.005      3.890
REMARK  Name = 
REMARK  3 active torsions:
REMARK  status: ('A' for Active; 'I' for Inactive)
REMARK    1  A    between atoms: C_7  and  C_8
REMARK    2  A    between atoms: C_11  and  C_12
REMARK    3  A    between atoms: C_12  and  C_13
REMARK                            x       y       z     vdW  Elec       q    Type
REMARK                         _______ _______ _______ _____ _____    ______ ____
ROOT
ATOM      1  C   UNL     1       2.590   4.708  18.242  0.00  0.00    +0.000 C 
ATOM      2  N   UNL     1       1.881   4.172  17.307  0.00  0.00    +0.000 NA
ATOM      3  O   UNL     1       2.659   3.116  16.798  0.00  0.00    +0.000 OA
ATOM      4  C   UNL     1       3.926   3.207  17.459  0.00  0.00    +0.000 C 
ATOM      5  O   UNL     1       3.807   4.180  18.483  0.00  0.00    +0.000 OA
ENDROOT
BRANCH   1  12
ATOM      6 CL   UNL     1       1.699   4.231  21.238  0.00  0.00    +0.000 Cl
ATOM      7  C   UNL     1       1.795   5.736  20.395  0.00  0.00    +0.000 A 
ATOM      8  C   UNL     1       1.418   6.877  21.117  0.00  0.00    +0.000 A 
ATOM      9  C   UNL     1       1.500   8.145  20.537  0.00  0.00    +0.000 A 
ATOM     10  C   UNL     1       1.973   8.283  19.237  0.00  0.00    +0.000 A 
ATOM     11  C   UNL     1       2.352   7.151  18.511  0.00  0.00    +0.000 A 
ATOM     12  C   UNL     1       2.254   5.866  19.080  0.00  0.00    +0.000 A 
ENDBRANCH   1  12
BRANCH   4  13
ATOM     13  C   UNL     1       4.980   3.634  16.432  0.00  0.00    +0.000 C 
BRANCH  13  14
ATOM     14  C   UNL     1       5.854   4.772  16.905  0.00  0.00    +0.000 A 
ATOM     15  C   UNL     1       6.957   4.533  17.736  0.00  0.00    +0.000 A 
ATOM     16  C   UNL     1       7.734   5.594  18.203  0.00  0.00    +0.000 A 
ATOM     17  C   UNL     1       7.427   6.902  17.832  0.00  0.00    +0.000 A 
ATOM     18  C   UNL     1       6.349   7.150  16.986  0.00  0.00    +0.000 A 
ATOM     19  C   UNL     1       5.566   6.091  16.525  0.00  0.00    +0.000 A 
ENDBRANCH  13  14
ENDBRANCH   4  13
TORSDOF 3
ENDMDL
MODEL 8
REMARK VINA RESULT:      -7.1      3.023      3.867
REMARK  Name = 
REMARK  3 active torsions:
REMARK  status: ('A' for Active; 'I' for Inactive)
REMARK    1  A    between atoms: C_7  and  C_8
REMARK    2  A    between atoms: C_11  and  C_12
REMARK    3  A    between atoms: C_12  and  C_13
REMARK                            x       y       z     vdW  Elec       q    Type
REMARK                         _______ _______ _______ _____ _____    ______ ____
ROOT
ATOM      1  C   UNL     1       2.545   4.687  18.253  0.00  0.00    +0.000 C 
ATOM      2  N   UNL     1       1.837   4.176  17.304  0.00  0.00    +0.000 NA
ATOM      3  O   UNL     1       2.605   3.120  16.782  0.00  0.00    +0.000 OA
ATOM      4  C   UNL     1       3.868   3.182  17.454  0.00  0.00    +0.000 C 
ATOM      5  O   UNL     1       3.753   4.139  18.494  0.00  0.00    +0.000 OA
ENDROOT
BRANCH   1  12
ATOM      6 CL   UNL     1       1.644   4.170  21.239  0.00  0.00    +0.000 Cl
ATOM      7  C   UNL     1       1.754   5.687  20.421  0.00  0.00    +0.000 A 
ATOM      8  C   UNL     1       1.386   6.820  21.160  0.00  0.00    +0.000 A 
ATOM      9  C   UNL     1       1.480   8.096  20.601  0.00  0.00    +0.000 A 
ATOM     10  C   UNL     1       1.957   8.250  19.304  0.00  0.00    +0.000 A 
ATOM     11  C   UNL     1       2.328   7.127  18.561  0.00  0.00    +0.000 A 
ATOM     12  C   UNL     1       2.218   5.834  19.109  0.00  0.00    +0.000 A 
ENDBRANCH   1  12
BRANCH   4  13
ATOM     13  C   UNL     1       4.936   3.613  16.443  0.00  0.00    +0.000 C 
BRANCH  13  14
ATOM     14  C   UNL     1       5.788   4.765  16.923  0.00  0.00    +0.000 A 
ATOM     15  C   UNL     1       5.500   6.081  16.537  0.00  0.00    +0.000 A 
ATOM     16  C   UNL     1       6.317   7.134  16.949  0.00  0.00    +0.000 A 
ATOM     17  C   UNL     1       7.421   6.885  17.763  0.00  0.00    +0.000 A 
ATOM     18  C   UNL     1       7.702   5.585  18.174  0.00  0.00    +0.000 A 
ATOM     19  C   UNL     1       6.891   4.529  17.756  0.00  0.00    +0.000 A 
ENDBRANCH  13  14
ENDBRANCH   4  13
TORSDOF 3
ENDMDL
MODEL 9
REMARK VINA RESULT:      -7.1      1.362      1.476
REMARK  Name = 
REMARK  3 active torsions:
REMARK  status: ('A' for Active; 'I' for Inactive)
REMARK    1  A    between atoms: C_7  and  C_8
REMARK    2  A    between atoms: C_11  and  C_12
REMARK    3  A    between atoms: C_12  and  C_13
REMARK                            x       y       z     vdW  Elec       q    Type
REMARK                         _______ _______ _______ _____ _____    ______ ____
ROOT
ATOM      1  C   UNL     1       4.357   4.910  18.051  0.00  0.00    +0.000 C 
ATOM      2  N   UNL     1       5.191   5.485  18.851  0.00  0.00    +0.000 NA
ATOM      3  O   UNL     1       6.137   6.117  18.024  0.00  0.00    +0.000 OA
ATOM      4  C   UNL     1       5.816   5.722  16.685  0.00  0.00    +0.000 C 
ATOM      5  O   UNL     1       4.576   5.034  16.727  0.00  0.00    +0.000 OA
ENDROOT
BRANCH   1  12
ATOM      6 CL   UNL     1       4.739   2.418  19.960  0.00  0.00    +0.000 Cl
ATOM      7  C   UNL     1       3.285   2.939  19.188  0.00  0.00    +0.000 A 
ATOM      8  C   UNL     1       2.144   2.158  19.420  0.00  0.00    +0.000 A 
ATOM      9  C   UNL     1       0.910   2.520  18.874  0.00  0.00    +0.000 A 
ATOM     10  C   UNL     1       0.805   3.673  18.105  0.00  0.00    +0.000 A 
ATOM     11  C   UNL     1       1.937   4.458  17.869  0.00  0.00    +0.000 A 
ATOM     12  C   UNL     1       3.189   4.091  18.399  0.00  0.00    +0.000 A 
ENDBRANCH   1  12
BRANCH   4  13
ATOM     13  C   UNL     1       6.925   4.799  16.171  0.00  0.00    +0.000 C 
BRANCH  13  14
ATOM     14  C   UNL     1       6.904   4.610  14.672  0.00  0.00    +0.000 A 
ATOM     15  C   UNL     1       6.048   3.673  14.078  0.00  0.00    +0.000 A 
ATOM     16  C   UNL     1       6.065   3.474  12.697  0.00  0.00    +0.000 A 
ATOM     17  C   UNL     1       6.926   4.220  11.894  0.00  0.00    +0.000 A 
ATOM     18  C   UNL     1       7.763   5.173  12.470  0.00  0.00    +0.000 A 
ATOM     19  C   UNL     1       7.753   5.368  13.851  0.00  0.00    +0.000 A 
ENDBRANCH  13  14
ENDBRANCH   4  13
TORSDOF 3
ENDMDL
