MODEL 1
REMARK VINA RESULT:      -7.6      0.000      0.000
REMARK  Name = 
REMARK  10 active torsions:
REMARK  status: ('A' for Active; 'I' for Inactive)
REMARK    1  A    between atoms: C_1  and  C_2
REMARK    2  A    between atoms: C_2  and  C_3
REMARK    3  A    between atoms: C_6  and  N_7
REMARK    4  A    between atoms: C_8  and  C_10
REMARK    5  A    between atoms: C_12  and  O_13
REMARK    6  A    between atoms: O_13  and  C_14
REMARK    7  A    between atoms: C_17  and  C_18
REMARK    8  A    between atoms: N_20  and  C_21
REMARK    9  A    between atoms: N_20  and  C_22
REMARK   10  A    between atoms: C_27  and  C_28
REMARK                            x       y       z     vdW  Elec       q    Type
REMARK                         _______ _______ _______ _____ _____    ______ ____
ROOT
ATOM      1  C   UNL     1       8.992   9.997  18.696  0.00  0.00    +0.000 A 
ATOM      2  C   UNL     1       9.191  10.421  20.022  0.00  0.00    +0.000 A 
ATOM      3  C   UNL     1       9.770  11.667  20.309  0.00  0.00    +0.000 A 
ATOM      4  C   UNL     1      10.178  12.484  19.232  0.00  0.00    +0.000 A 
ATOM      5  C   UNL     1      10.842  13.732  19.075  0.00  0.00    +0.000 A 
ATOM      6  C   UNL     1      10.842  14.019  17.731  0.00  0.00    +0.000 A 
ATOM      7  C   UNL     1      11.299  15.189  16.960  0.00  0.00    +0.000 C 
ATOM      8  O   UNL     1      10.292  12.990  17.029  0.00  0.00    +0.000 OA
ATOM      9  C   UNL     1       9.901  12.055  17.938  0.00  0.00    +0.000 A 
ATOM     10  C   UNL     1       9.312  10.834  17.617  0.00  0.00    +0.000 A 
ENDROOT
BRANCH   1  12
ATOM     11  N   UNL     1       7.516   8.535  17.440  0.00  0.00    +0.000 N 
ATOM     12  C   UNL     1       8.424   8.635  18.478  0.00  0.00    +0.000 C 
ATOM     13  O   UNL     1       8.830   7.736  19.202  0.00  0.00    +0.000 OA
ATOM     14  H   UNL     1       7.308   9.349  16.884  0.00  0.00    +0.000 HD
BRANCH  11  18
ATOM     15  C   UNL     1       5.545   5.062  16.436  0.00  0.00    +0.000 A 
ATOM     16  C   UNL     1       6.844   5.308  16.004  0.00  0.00    +0.000 A 
ATOM     17  N   UNL     1       7.516   6.434  16.305  0.00  0.00    +0.000 NA
ATOM     18  C   UNL     1       6.874   7.344  17.061  0.00  0.00    +0.000 A 
ATOM     19  C   UNL     1       5.567   7.103  17.480  0.00  0.00    +0.000 A 
ATOM     20  N   UNL     1       4.878   5.971  17.189  0.00  0.00    +0.000 NA
BRANCH  15  22
ATOM     21  C   UNL     1       3.639   3.561  16.994  0.00  0.00    +0.000 C 
ATOM     22  C   UNL     1       4.875   3.757  16.129  0.00  0.00    +0.000 C 
ENDBRANCH  15  22
ENDBRANCH  11  18
ENDBRANCH   1  12
BRANCH   3  23
ATOM     23  O   UNL     1       9.996  11.951  21.654  0.00  0.00    +0.000 OA
BRANCH  23  24
ATOM     24  C   UNL     1       8.931  12.421  22.406  0.00  0.00    +0.000 A 
ATOM     25  C   UNL     1       8.810  13.796  22.571  0.00  0.00    +0.000 A 
ATOM     26  N   UNL     1       7.838  14.371  23.331  0.00  0.00    +0.000 NA
ATOM     27  C   UNL     1       6.994  13.499  23.944  0.00  0.00    +0.000 A 
ATOM     28  C   UNL     1       7.088  12.127  23.739  0.00  0.00    +0.000 A 
ATOM     29  N   UNL     1       8.072  11.559  22.995  0.00  0.00    +0.000 NA
BRANCH  27  30
ATOM     30  C   UNL     1       5.945  13.983  24.885  0.00  0.00    +0.000 C 
ATOM     31  O   UNL     1       4.839  14.229  24.399  0.00  0.00    +0.000 OA
ATOM     32  N   UNL     1       6.179  14.087  26.266  0.00  0.00    +0.000 N 
ATOM     33  C   UNL     1       7.425  13.804  26.967  0.00  0.00    +0.000 C 
ATOM     34  C   UNL     1       5.083  14.519  27.122  0.00  0.00    +0.000 C 
ENDBRANCH  27  30
ENDBRANCH  23  24
ENDBRANCH   3  23
TORSDOF 6
ENDMDL
MODEL 2
REMARK VINA RESULT:      -7.4      6.077      8.253
REMARK  Name = 
REMARK  10 active torsions:
REMARK  status: ('A' for Active; 'I' for Inactive)
REMARK    1  A    between atoms: C_1  and  C_2
REMARK    2  A    between atoms: C_2  and  C_3
REMARK    3  A    between atoms: C_6  and  N_7
REMARK    4  A    between atoms: C_8  and  C_10
REMARK    5  A    between atoms: C_12  and  O_13
REMARK    6  A    between atoms: O_13  and  C_14
REMARK    7  A    between atoms: C_17  and  C_18
REMARK    8  A    between atoms: N_20  and  C_21
REMARK    9  A    between atoms: N_20  and  C_22
REMARK   10  A    between atoms: C_27  and  C_28
REMARK                            x       y       z     vdW  Elec       q    Type
REMARK                         _______ _______ _______ _____ _____    ______ ____
ROOT
ATOM      1  C   UNL     1       1.023   9.065  20.165  0.00  0.00    +0.000 A 
ATOM      2  C   UNL     1       0.969  10.110  19.226  0.00  0.00    +0.000 A 
ATOM      3  C   UNL     1       0.215  11.269  19.469  0.00  0.00    +0.000 A 
ATOM      4  C   UNL     1      -0.517  11.355  20.674  0.00  0.00    +0.000 A 
ATOM      5  C   UNL     1      -1.427  12.274  21.266  0.00  0.00    +0.000 A 
ATOM      6  C   UNL     1      -1.706  11.803  22.527  0.00  0.00    +0.000 A 
ATOM      7  C   UNL     1      -2.503  12.346  23.642  0.00  0.00    +0.000 C 
ATOM      8  O   UNL     1      -1.091  10.606  22.731  0.00  0.00    +0.000 OA
ATOM      9  C   UNL     1      -0.380  10.329  21.602  0.00  0.00    +0.000 A 
ATOM     10  C   UNL     1       0.373   9.174  21.403  0.00  0.00    +0.000 A 
ENDROOT
BRANCH   1  12
ATOM     11  N   UNL     1       2.311   7.828  18.520  0.00  0.00    +0.000 N 
ATOM     12  C   UNL     1       1.801   7.844  19.804  0.00  0.00    +0.000 C 
ATOM     13  O   UNL     1       1.946   6.995  20.674  0.00  0.00    +0.000 OA
ATOM     14  H   UNL     1       2.161   8.622  17.917  0.00  0.00    +0.000 HD
BRANCH  11  18
ATOM     15  C   UNL     1       4.633   4.852  16.875  0.00  0.00    +0.000 A 
ATOM     16  C   UNL     1       3.415   4.568  17.482  0.00  0.00    +0.000 A 
ATOM     17  N   UNL     1       2.633   5.511  18.037  0.00  0.00    +0.000 NA
ATOM     18  C   UNL     1       3.079   6.780  17.985  0.00  0.00    +0.000 A 
ATOM     19  C   UNL     1       4.308   7.063  17.391  0.00  0.00    +0.000 A 
ATOM     20  N   UNL     1       5.105   6.122  16.822  0.00  0.00    +0.000 NA
BRANCH  15  22
ATOM     21  C   UNL     1       6.512   4.351  15.320  0.00  0.00    +0.000 C 
ATOM     22  C   UNL     1       5.425   3.767  16.210  0.00  0.00    +0.000 C 
ENDBRANCH  15  22
ENDBRANCH  11  18
ENDBRANCH   1  12
BRANCH   3  23
ATOM     23  O   UNL     1       0.164  12.203  18.438  0.00  0.00    +0.000 OA
BRANCH  23  24
ATOM     24  C   UNL     1       1.011  13.298  18.511  0.00  0.00    +0.000 A 
ATOM     25  C   UNL     1       2.342  13.114  18.158  0.00  0.00    +0.000 A 
ATOM     26  N   UNL     1       3.277  14.100  18.241  0.00  0.00    +0.000 NA
ATOM     27  C   UNL     1       2.821  15.289  18.718  0.00  0.00    +0.000 A 
ATOM     28  C   UNL     1       1.479  15.484  19.024  0.00  0.00    +0.000 A 
ATOM     29  N   UNL     1       0.555  14.491  18.958  0.00  0.00    +0.000 NA
BRANCH  27  30
ATOM     30  C   UNL     1       3.754  16.427  18.955  0.00  0.00    +0.000 C 
ATOM     31  O   UNL     1       3.838  17.267  18.057  0.00  0.00    +0.000 OA
ATOM     32  N   UNL     1       4.447  16.576  20.168  0.00  0.00    +0.000 N 
ATOM     33  C   UNL     1       4.414  15.674  21.311  0.00  0.00    +0.000 C 
ATOM     34  C   UNL     1       5.298  17.746  20.337  0.00  0.00    +0.000 C 
ENDBRANCH  27  30
ENDBRANCH  23  24
ENDBRANCH   3  23
TORSDOF 6
ENDMDL
MODEL 3
REMARK VINA RESULT:      -7.3      6.052      8.336
REMARK  Name = 
REMARK  10 active torsions:
REMARK  status: ('A' for Active; 'I' for Inactive)
REMARK    1  A    between atoms: C_1  and  C_2
REMARK    2  A    between atoms: C_2  and  C_3
REMARK    3  A    between atoms: C_6  and  N_7
REMARK    4  A    between atoms: C_8  and  C_10
REMARK    5  A    between atoms: C_12  and  O_13
REMARK    6  A    between atoms: O_13  and  C_14
REMARK    7  A    between atoms: C_17  and  C_18
REMARK    8  A    between atoms: N_20  and  C_21
REMARK    9  A    between atoms: N_20  and  C_22
REMARK   10  A    between atoms: C_27  and  C_28
REMARK                            x       y       z     vdW  Elec       q    Type
REMARK                         _______ _______ _______ _____ _____    ______ ____
ROOT
ATOM      1  C   UNL     1       0.852   9.239  20.424  0.00  0.00    +0.000 A 
ATOM      2  C   UNL     1       0.882  10.335  19.542  0.00  0.00    +0.000 A 
ATOM      3  C   UNL     1       0.138  11.497  19.798  0.00  0.00    +0.000 A 
ATOM      4  C   UNL     1      -0.671  11.537  20.956  0.00  0.00    +0.000 A 
ATOM      5  C   UNL     1      -1.599  12.444  21.537  0.00  0.00    +0.000 A 
ATOM      6  C   UNL     1      -1.971  11.914  22.749  0.00  0.00    +0.000 A 
ATOM      7  C   UNL     1      -2.829  12.417  23.837  0.00  0.00    +0.000 C 
ATOM      8  O   UNL     1      -1.396  10.693  22.926  0.00  0.00    +0.000 OA
ATOM      9  C   UNL     1      -0.618  10.459  21.833  0.00  0.00    +0.000 A 
ATOM     10  C   UNL     1       0.122   9.298  21.620  0.00  0.00    +0.000 A 
ENDROOT
BRANCH   1  12
ATOM     11  N   UNL     1       2.076   7.988  18.742  0.00  0.00    +0.000 N 
ATOM     12  C   UNL     1       1.626   8.021  20.049  0.00  0.00    +0.000 C 
ATOM     13  O   UNL     1       1.821   7.189  20.925  0.00  0.00    +0.000 OA
ATOM     14  H   UNL     1       1.890   8.770  18.134  0.00  0.00    +0.000 HD
BRANCH  11  18
ATOM     15  C   UNL     1       4.353   5.009  17.041  0.00  0.00    +0.000 A 
ATOM     16  C   UNL     1       3.182   4.720  17.731  0.00  0.00    +0.000 A 
ATOM     17  N   UNL     1       2.417   5.665  18.307  0.00  0.00    +0.000 NA
ATOM     18  C   UNL     1       2.832   6.939  18.191  0.00  0.00    +0.000 A 
ATOM     19  C   UNL     1       4.014   7.227  17.512  0.00  0.00    +0.000 A 
ATOM     20  N   UNL     1       4.794   6.286  16.921  0.00  0.00    +0.000 NA
BRANCH  15  22
ATOM     21  C   UNL     1       5.700   4.404  15.036  0.00  0.00    +0.000 C 
ATOM     22  C   UNL     1       5.124   3.920  16.359  0.00  0.00    +0.000 C 
ENDBRANCH  15  22
ENDBRANCH  11  18
ENDBRANCH   1  12
BRANCH   3  23
ATOM     23  O   UNL     1       0.175  12.486  18.819  0.00  0.00    +0.000 OA
BRANCH  23  24
ATOM     24  C   UNL     1       1.233  13.382  18.840  0.00  0.00    +0.000 A 
ATOM     25  C   UNL     1       1.115  14.505  19.650  0.00  0.00    +0.000 A 
ATOM     26  N   UNL     1       2.064  15.479  19.712  0.00  0.00    +0.000 NA
ATOM     27  C   UNL     1       3.141  15.289  18.904  0.00  0.00    +0.000 A 
ATOM     28  C   UNL     1       3.278  14.140  18.133  0.00  0.00    +0.000 A 
ATOM     29  N   UNL     1       2.319  13.182  18.060  0.00  0.00    +0.000 NA
BRANCH  27  30
ATOM     30  C   UNL     1       4.209  16.322  18.796  0.00  0.00    +0.000 C 
ATOM     31  O   UNL     1       3.970  17.287  18.067  0.00  0.00    +0.000 OA
ATOM     32  N   UNL     1       5.398  16.239  19.540  0.00  0.00    +0.000 N 
ATOM     33  C   UNL     1       5.788  15.171  20.450  0.00  0.00    +0.000 C 
ATOM     34  C   UNL     1       6.367  17.319  19.414  0.00  0.00    +0.000 C 
ENDBRANCH  27  30
ENDBRANCH  23  24
ENDBRANCH   3  23
TORSDOF 6
ENDMDL
MODEL 4
REMARK VINA RESULT:      -7.3      4.013      8.737
REMARK  Name = 
REMARK  10 active torsions:
REMARK  status: ('A' for Active; 'I' for Inactive)
REMARK    1  A    between atoms: C_1  and  C_2
REMARK    2  A    between atoms: C_2  and  C_3
REMARK    3  A    between atoms: C_6  and  N_7
REMARK    4  A    between atoms: C_8  and  C_10
REMARK    5  A    between atoms: C_12  and  O_13
REMARK    6  A    between atoms: O_13  and  C_14
REMARK    7  A    between atoms: C_17  and  C_18
REMARK    8  A    between atoms: N_20  and  C_21
REMARK    9  A    between atoms: N_20  and  C_22
REMARK   10  A    between atoms: C_27  and  C_28
REMARK                            x       y       z     vdW  Elec       q    Type
REMARK                         _______ _______ _______ _____ _____    ______ ____
ROOT
ATOM      1  C   UNL     1       7.107   6.898  17.362  0.00  0.00    +0.000 A 
ATOM      2  C   UNL     1       5.804   6.650  17.831  0.00  0.00    +0.000 A 
ATOM      3  C   UNL     1       4.915   5.834  17.113  0.00  0.00    +0.000 A 
ATOM      4  C   UNL     1       5.348   5.283  15.887  0.00  0.00    +0.000 A 
ATOM      5  C   UNL     1       4.777   4.495  14.850  0.00  0.00    +0.000 A 
ATOM      6  C   UNL     1       5.787   4.210  13.962  0.00  0.00    +0.000 A 
ATOM      7  C   UNL     1       5.843   3.378  12.747  0.00  0.00    +0.000 C 
ATOM      8  O   UNL     1       6.935   4.838  14.336  0.00  0.00    +0.000 OA
ATOM      9  C   UNL     1       6.665   5.498  15.497  0.00  0.00    +0.000 A 
ATOM     10  C   UNL     1       7.579   6.287  16.192  0.00  0.00    +0.000 A 
ENDROOT
BRANCH   1  12
ATOM     11  N   UNL     1       7.916   9.150  17.773  0.00  0.00    +0.000 N 
ATOM     12  C   UNL     1       7.968   7.822  18.155  0.00  0.00    +0.000 C 
ATOM     13  O   UNL     1       8.606   7.338  19.080  0.00  0.00    +0.000 OA
ATOM     14  H   UNL     1       7.303   9.425  17.022  0.00  0.00    +0.000 HD
BRANCH  11  18
ATOM     15  C   UNL     1      10.049  12.237  19.468  0.00  0.00    +0.000 A 
ATOM     16  C   UNL     1       9.906  11.015  20.116  0.00  0.00    +0.000 A 
ATOM     17  N   UNL     1       9.210   9.987  19.597  0.00  0.00    +0.000 NA
ATOM     18  C   UNL     1       8.639  10.182  18.395  0.00  0.00    +0.000 A 
ATOM     19  C   UNL     1       8.770  11.412  17.753  0.00  0.00    +0.000 A 
ATOM     20  N   UNL     1       9.473  12.457  18.261  0.00  0.00    +0.000 NA
BRANCH  15  22
ATOM     21  C   UNL     1      11.538  14.171  18.977  0.00  0.00    +0.000 C 
ATOM     22  C   UNL     1      10.897  13.319  20.063  0.00  0.00    +0.000 C 
ENDBRANCH  15  22
ENDBRANCH  11  18
ENDBRANCH   1  12
BRANCH   3  23
ATOM     23  O   UNL     1       3.624   5.724  17.624  0.00  0.00    +0.000 OA
BRANCH  23  24
ATOM     24  C   UNL     1       2.997   6.881  18.059  0.00  0.00    +0.000 A 
ATOM     25  C   UNL     1       2.473   6.890  19.346  0.00  0.00    +0.000 A 
ATOM     26  N   UNL     1       1.790   7.947  19.864  0.00  0.00    +0.000 NA
ATOM     27  C   UNL     1       1.634   9.002  19.020  0.00  0.00    +0.000 A 
ATOM     28  C   UNL     1       2.201   9.009  17.751  0.00  0.00    +0.000 A 
ATOM     29  N   UNL     1       2.864   7.943  17.233  0.00  0.00    +0.000 NA
BRANCH  27  30
ATOM     30  C   UNL     1       0.823  10.187  19.418  0.00  0.00    +0.000 C 
ATOM     31  O   UNL     1       1.282  10.892  20.320  0.00  0.00    +0.000 OA
ATOM     32  N   UNL     1      -0.367  10.527  18.754  0.00  0.00    +0.000 N 
ATOM     33  C   UNL     1      -1.000   9.798  17.663  0.00  0.00    +0.000 C 
ATOM     34  C   UNL     1      -1.071  11.732  19.172  0.00  0.00    +0.000 C 
ENDBRANCH  27  30
ENDBRANCH  23  24
ENDBRANCH   3  23
TORSDOF 6
ENDMDL
MODEL 5
REMARK VINA RESULT:      -7.2      4.065      8.650
REMARK  Name = 
REMARK  10 active torsions:
REMARK  status: ('A' for Active; 'I' for Inactive)
REMARK    1  A    between atoms: C_1  and  C_2
REMARK    2  A    between atoms: C_2  and  C_3
REMARK    3  A    between atoms: C_6  and  N_7
REMARK    4  A    between atoms: C_8  and  C_10
REMARK    5  A    between atoms: C_12  and  O_13
REMARK    6  A    between atoms: O_13  and  C_14
REMARK    7  A    between atoms: C_17  and  C_18
REMARK    8  A    between atoms: N_20  and  C_21
REMARK    9  A    between atoms: N_20  and  C_22
REMARK   10  A    between atoms: C_27  and  C_28
REMARK                            x       y       z     vdW  Elec       q    Type
REMARK                         _______ _______ _______ _____ _____    ______ ____
ROOT
ATOM      1  C   UNL     1       7.153   6.515  17.302  0.00  0.00    +0.000 A 
ATOM      2  C   UNL     1       5.965   5.984  17.834  0.00  0.00    +0.000 A 
ATOM      3  C   UNL     1       5.169   5.095  17.095  0.00  0.00    +0.000 A 
ATOM      4  C   UNL     1       5.574   4.761  15.783  0.00  0.00    +0.000 A 
ATOM      5  C   UNL     1       5.055   3.991  14.706  0.00  0.00    +0.000 A 
ATOM      6  C   UNL     1       6.010   3.990  13.718  0.00  0.00    +0.000 A 
ATOM      7  C   UNL     1       6.096   3.311  12.413  0.00  0.00    +0.000 C 
ATOM      8  O   UNL     1       7.060   4.779  14.077  0.00  0.00    +0.000 OA
ATOM      9  C   UNL     1       6.790   5.256  15.324  0.00  0.00    +0.000 A 
ATOM     10  C   UNL     1       7.613   6.125  16.036  0.00  0.00    +0.000 A 
ENDROOT
BRANCH   1  12
ATOM     11  N   UNL     1       7.881   8.801  17.675  0.00  0.00    +0.000 N 
ATOM     12  C   UNL     1       7.910   7.497  18.132  0.00  0.00    +0.000 C 
ATOM     13  O   UNL     1       8.451   7.075  19.145  0.00  0.00    +0.000 OA
ATOM     14  H   UNL     1       7.348   9.025  16.848  0.00  0.00    +0.000 HD
BRANCH  11  18
ATOM     15  C   UNL     1       9.749  12.028  19.421  0.00  0.00    +0.000 A 
ATOM     16  C   UNL     1       9.749  10.777  20.027  0.00  0.00    +0.000 A 
ATOM     17  N   UNL     1       9.143   9.702  19.490  0.00  0.00    +0.000 NA
ATOM     18  C   UNL     1       8.517   9.880  18.313  0.00  0.00    +0.000 A 
ATOM     19  C   UNL     1       8.503  11.138  17.714  0.00  0.00    +0.000 A 
ATOM     20  N   UNL     1       9.115  12.230  18.240  0.00  0.00    +0.000 NA
BRANCH  15  22
ATOM     21  C   UNL     1      11.736  13.513  19.207  0.00  0.00    +0.000 C 
ATOM     22  C   UNL     1      10.504  13.170  20.032  0.00  0.00    +0.000 C 
ENDBRANCH  15  22
ENDBRANCH  11  18
ENDBRANCH   1  12
BRANCH   3  23
ATOM     23  O   UNL     1       3.972   4.696  17.684  0.00  0.00    +0.000 OA
BRANCH  23  24
ATOM     24  C   UNL     1       3.251   5.643  18.395  0.00  0.00    +0.000 A 
ATOM     25  C   UNL     1       3.057   6.887  17.808  0.00  0.00    +0.000 A 
ATOM     26  N   UNL     1       2.413   7.911  18.431  0.00  0.00    +0.000 NA
ATOM     27  C   UNL     1       1.983   7.640  19.692  0.00  0.00    +0.000 A 
ATOM     28  C   UNL     1       2.135   6.380  20.258  0.00  0.00    +0.000 A 
ATOM     29  N   UNL     1       2.797   5.368  19.639  0.00  0.00    +0.000 NA
BRANCH  27  30
ATOM     30  C   UNL     1       1.350   8.698  20.529  0.00  0.00    +0.000 C 
ATOM     31  O   UNL     1       1.530   8.620  21.746  0.00  0.00    +0.000 OA
ATOM     32  N   UNL     1       0.645   9.771  19.958  0.00  0.00    +0.000 N 
ATOM     33  C   UNL     1       0.384   9.993  18.542  0.00  0.00    +0.000 C 
ATOM     34  C   UNL     1       0.103  10.790  20.846  0.00  0.00    +0.000 C 
ENDBRANCH  27  30
ENDBRANCH  23  24
ENDBRANCH   3  23
TORSDOF 6
ENDMDL
MODEL 6
REMARK VINA RESULT:      -7.2      6.792     11.478
REMARK  Name = 
REMARK  10 active torsions:
REMARK  status: ('A' for Active; 'I' for Inactive)
REMARK    1  A    between atoms: C_1  and  C_2
REMARK    2  A    between atoms: C_2  and  C_3
REMARK    3  A    between atoms: C_6  and  N_7
REMARK    4  A    between atoms: C_8  and  C_10
REMARK    5  A    between atoms: C_12  and  O_13
REMARK    6  A    between atoms: O_13  and  C_14
REMARK    7  A    between atoms: C_17  and  C_18
REMARK    8  A    between atoms: N_20  and  C_21
REMARK    9  A    between atoms: N_20  and  C_22
REMARK   10  A    between atoms: C_27  and  C_28
REMARK                            x       y       z     vdW  Elec       q    Type
REMARK                         _______ _______ _______ _____ _____    ______ ____
ROOT
ATOM      1  C   UNL     1       2.310   7.494  18.982  0.00  0.00    +0.000 A 
ATOM      2  C   UNL     1       3.621   7.054  18.726  0.00  0.00    +0.000 A 
ATOM      3  C   UNL     1       4.072   5.807  19.185  0.00  0.00    +0.000 A 
ATOM      4  C   UNL     1       3.186   5.006  19.939  0.00  0.00    +0.000 A 
ATOM      5  C   UNL     1       3.248   3.763  20.627  0.00  0.00    +0.000 A 
ATOM      6  C   UNL     1       1.979   3.493  21.082  0.00  0.00    +0.000 A 
ATOM      7  C   UNL     1       1.395   2.336  21.782  0.00  0.00    +0.000 C 
ATOM      8  O   UNL     1       1.145   4.529  20.792  0.00  0.00    +0.000 OA
ATOM      9  C   UNL     1       1.879   5.451  20.110  0.00  0.00    +0.000 A 
ATOM     10  C   UNL     1       1.392   6.673  19.653  0.00  0.00    +0.000 A 
ENDROOT
BRANCH   1  12
ATOM     11  N   UNL     1       1.311   9.657  19.452  0.00  0.00    +0.000 N 
ATOM     12  C   UNL     1       1.928   8.856  18.509  0.00  0.00    +0.000 C 
ATOM     13  O   UNL     1       2.220   9.151  17.358  0.00  0.00    +0.000 OA
ATOM     14  H   UNL     1       1.177   9.307  20.387  0.00  0.00    +0.000 HD
BRANCH  11  18
ATOM     15  C   UNL     1       0.144  13.561  18.862  0.00  0.00    +0.000 A 
ATOM     16  C   UNL     1      -0.631  12.498  18.412  0.00  0.00    +0.000 A 
ATOM     17  N   UNL     1      -0.278  11.211  18.579  0.00  0.00    +0.000 NA
ATOM     18  C   UNL     1       0.884  10.975  19.216  0.00  0.00    +0.000 A 
ATOM     19  C   UNL     1       1.667  12.041  19.653  0.00  0.00    +0.000 A 
ATOM     20  N   UNL     1       1.322  13.344  19.497  0.00  0.00    +0.000 NA
BRANCH  15  22
ATOM     21  C   UNL     1      -0.124  15.763  19.994  0.00  0.00    +0.000 C 
ATOM     22  C   UNL     1      -0.338  14.972  18.711  0.00  0.00    +0.000 C 
ENDBRANCH  15  22
ENDBRANCH  11  18
ENDBRANCH   1  12
BRANCH   3  23
ATOM     23  O   UNL     1       5.411   5.506  18.949  0.00  0.00    +0.000 OA
BRANCH  23  24
ATOM     24  C   UNL     1       5.816   5.337  17.634  0.00  0.00    +0.000 A 
ATOM     25  C   UNL     1       7.028   4.697  17.406  0.00  0.00    +0.000 A 
ATOM     26  N   UNL     1       7.554   4.521  16.163  0.00  0.00    +0.000 NA
ATOM     27  C   UNL     1       6.815   5.038  15.145  0.00  0.00    +0.000 A 
ATOM     28  C   UNL     1       5.580   5.634  15.372  0.00  0.00    +0.000 A 
ATOM     29  N   UNL     1       5.070   5.824  16.617  0.00  0.00    +0.000 NA
BRANCH  27  30
ATOM     30  C   UNL     1       7.316   5.006  13.742  0.00  0.00    +0.000 C 
ATOM     31  O   UNL     1       8.301   5.705  13.493  0.00  0.00    +0.000 OA
ATOM     32  N   UNL     1       6.743   4.170  12.770  0.00  0.00    +0.000 N 
ATOM     33  C   UNL     1       5.600   3.283  12.942  0.00  0.00    +0.000 C 
ATOM     34  C   UNL     1       7.327   4.162  11.436  0.00  0.00    +0.000 C 
ENDBRANCH  27  30
ENDBRANCH  23  24
ENDBRANCH   3  23
TORSDOF 6
ENDMDL
MODEL 7
REMARK VINA RESULT:      -7.1      3.745      8.645
REMARK  Name = 
REMARK  10 active torsions:
REMARK  status: ('A' for Active; 'I' for Inactive)
REMARK    1  A    between atoms: C_1  and  C_2
REMARK    2  A    between atoms: C_2  and  C_3
REMARK    3  A    between atoms: C_6  and  N_7
REMARK    4  A    between atoms: C_8  and  C_10
REMARK    5  A    between atoms: C_12  and  O_13
REMARK    6  A    between atoms: O_13  and  C_14
REMARK    7  A    between atoms: C_17  and  C_18
REMARK    8  A    between atoms: N_20  and  C_21
REMARK    9  A    between atoms: N_20  and  C_22
REMARK   10  A    between atoms: C_27  and  C_28
REMARK                            x       y       z     vdW  Elec       q    Type
REMARK                         _______ _______ _______ _____ _____    ______ ____
ROOT
ATOM      1  C   UNL     1       7.079   6.551  17.185  0.00  0.00    +0.000 A 
ATOM      2  C   UNL     1       5.793   6.192  17.626  0.00  0.00    +0.000 A 
ATOM      3  C   UNL     1       4.964   5.363  16.855  0.00  0.00    +0.000 A 
ATOM      4  C   UNL     1       5.439   4.912  15.603  0.00  0.00    +0.000 A 
ATOM      5  C   UNL     1       4.926   4.150  14.518  0.00  0.00    +0.000 A 
ATOM      6  C   UNL     1       5.957   3.984  13.624  0.00  0.00    +0.000 A 
ATOM      7  C   UNL     1       6.074   3.230  12.363  0.00  0.00    +0.000 C 
ATOM      8  O   UNL     1       7.059   4.664  14.044  0.00  0.00    +0.000 OA
ATOM      9  C   UNL     1       6.741   5.236  15.238  0.00  0.00    +0.000 A 
ATOM     10  C   UNL     1       7.597   6.041  15.985  0.00  0.00    +0.000 A 
ENDROOT
BRANCH   1  12
ATOM     11  N   UNL     1       7.837   8.810  17.653  0.00  0.00    +0.000 N 
ATOM     12  C   UNL     1       7.874   7.482  18.037  0.00  0.00    +0.000 C 
ATOM     13  O   UNL     1       8.449   7.002  19.005  0.00  0.00    +0.000 OA
ATOM     14  H   UNL     1       7.276   9.081  16.861  0.00  0.00    +0.000 HD
BRANCH  11  18
ATOM     15  C   UNL     1       9.806  11.919  19.498  0.00  0.00    +0.000 A 
ATOM     16  C   UNL     1       9.715  10.666  20.093  0.00  0.00    +0.000 A 
ATOM     17  N   UNL     1       9.074   9.629  19.525  0.00  0.00    +0.000 NA
ATOM     18  C   UNL     1       8.505   9.848  18.325  0.00  0.00    +0.000 A 
ATOM     19  C   UNL     1       8.582  11.109  17.737  0.00  0.00    +0.000 A 
ATOM     20  N   UNL     1       9.230  12.163  18.295  0.00  0.00    +0.000 NA
BRANCH  15  22
ATOM     21  C   UNL     1       9.868  13.568  21.364  0.00  0.00    +0.000 C 
ATOM     22  C   UNL     1      10.597  13.015  20.148  0.00  0.00    +0.000 C 
ENDBRANCH  15  22
ENDBRANCH  11  18
ENDBRANCH   1  12
BRANCH   3  23
ATOM     23  O   UNL     1       3.681   5.138  17.347  0.00  0.00    +0.000 OA
BRANCH  23  24
ATOM     24  C   UNL     1       3.116   6.111  18.157  0.00  0.00    +0.000 A 
ATOM     25  C   UNL     1       2.829   5.773  19.474  0.00  0.00    +0.000 A 
ATOM     26  N   UNL     1       2.227   6.626  20.347  0.00  0.00    +0.000 NA
ATOM     27  C   UNL     1       1.902   7.842  19.833  0.00  0.00    +0.000 A 
ATOM     28  C   UNL     1       2.234   8.195  18.530  0.00  0.00    +0.000 A 
ATOM     29  N   UNL     1       2.817   7.332  17.659  0.00  0.00    +0.000 NA
BRANCH  27  30
ATOM     30  C   UNL     1       1.149   8.840  20.645  0.00  0.00    +0.000 C 
ATOM     31  O   UNL     1       1.258   8.748  21.870  0.00  0.00    +0.000 OA
ATOM     32  N   UNL     1       0.412   9.876  20.049  0.00  0.00    +0.000 N 
ATOM     33  C   UNL     1       0.227  10.110  18.623  0.00  0.00    +0.000 C 
ATOM     34  C   UNL     1      -0.250  10.840  20.917  0.00  0.00    +0.000 C 
ENDBRANCH  27  30
ENDBRANCH  23  24
ENDBRANCH   3  23
TORSDOF 6
ENDMDL
MODEL 8
REMARK VINA RESULT:      -7.1      6.093      8.304
REMARK  Name = 
REMARK  10 active torsions:
REMARK  status: ('A' for Active; 'I' for Inactive)
REMARK    1  A    between atoms: C_1  and  C_2
REMARK    2  A    between atoms: C_2  and  C_3
REMARK    3  A    between atoms: C_6  and  N_7
REMARK    4  A    between atoms: C_8  and  C_10
REMARK    5  A    between atoms: C_12  and  O_13
REMARK    6  A    between atoms: O_13  and  C_14
REMARK    7  A    between atoms: C_17  and  C_18
REMARK    8  A    between atoms: N_20  and  C_21
REMARK    9  A    between atoms: N_20  and  C_22
REMARK   10  A    between atoms: C_27  and  C_28
REMARK                            x       y       z     vdW  Elec       q    Type
REMARK                         _______ _______ _______ _____ _____    ______ ____
ROOT
ATOM      1  C   UNL     1       1.018   9.220  20.004  0.00  0.00    +0.000 A 
ATOM      2  C   UNL     1       1.062  10.329  19.141  0.00  0.00    +0.000 A 
ATOM      3  C   UNL     1       0.376  11.515  19.444  0.00  0.00    +0.000 A 
ATOM      4  C   UNL     1      -0.389  11.567  20.631  0.00  0.00    +0.000 A 
ATOM      5  C   UNL     1      -1.257  12.500  21.260  0.00  0.00    +0.000 A 
ATOM      6  C   UNL     1      -1.607  11.963  22.476  0.00  0.00    +0.000 A 
ATOM      7  C   UNL     1      -2.404  12.479  23.603  0.00  0.00    +0.000 C 
ATOM      8  O   UNL     1      -1.077  10.717  22.612  0.00  0.00    +0.000 OA
ATOM      9  C   UNL     1      -0.348  10.472  21.487  0.00  0.00    +0.000 A 
ATOM     10  C   UNL     1       0.335   9.286  21.228  0.00  0.00    +0.000 A 
ENDROOT
BRANCH   1  12
ATOM     11  N   UNL     1       1.798   6.983  20.537  0.00  0.00    +0.000 N 
ATOM     12  C   UNL     1       1.728   7.978  19.580  0.00  0.00    +0.000 C 
ATOM     13  O   UNL     1       2.148   7.938  18.432  0.00  0.00    +0.000 OA
ATOM     14  H   UNL     1       1.361   7.126  21.434  0.00  0.00    +0.000 HD
BRANCH  11  18
ATOM     15  C   UNL     1       3.670   3.381  19.851  0.00  0.00    +0.000 A 
ATOM     16  C   UNL     1       2.463   3.450  20.537  0.00  0.00    +0.000 A 
ATOM     17  N   UNL     1       1.826   4.609  20.787  0.00  0.00    +0.000 NA
ATOM     18  C   UNL     1       2.411   5.735  20.339  0.00  0.00    +0.000 A 
ATOM     19  C   UNL     1       3.629   5.666  19.666  0.00  0.00    +0.000 A 
ATOM     20  N   UNL     1       4.281   4.505  19.401  0.00  0.00    +0.000 NA
BRANCH  15  22
ATOM     21  C   UNL     1       3.585   1.376  18.377  0.00  0.00    +0.000 C 
ATOM     22  C   UNL     1       4.294   2.054  19.540  0.00  0.00    +0.000 C 
ENDBRANCH  15  22
ENDBRANCH  11  18
ENDBRANCH   1  12
BRANCH   3  23
ATOM     23  O   UNL     1       0.418  12.520  18.480  0.00  0.00    +0.000 OA
BRANCH  23  24
ATOM     24  C   UNL     1       1.365  13.522  18.628  0.00  0.00    +0.000 A 
ATOM     25  C   UNL     1       2.659  13.260  18.196  0.00  0.00    +0.000 A 
ATOM     26  N   UNL     1       3.684  14.144  18.337  0.00  0.00    +0.000 NA
ATOM     27  C   UNL     1       3.358  15.310  18.957  0.00  0.00    +0.000 A 
ATOM     28  C   UNL     1       2.052  15.589  19.344  0.00  0.00    +0.000 A 
ATOM     29  N   UNL     1       1.039  14.694  19.218  0.00  0.00    +0.000 NA
BRANCH  27  30
ATOM     30  C   UNL     1       4.400  16.329  19.267  0.00  0.00    +0.000 C 
ATOM     31  O   UNL     1       4.500  17.273  18.481  0.00  0.00    +0.000 OA
ATOM     32  N   UNL     1       5.181  16.259  20.433  0.00  0.00    +0.000 N 
ATOM     33  C   UNL     1       5.143  15.217  21.451  0.00  0.00    +0.000 C 
ATOM     34  C   UNL     1       6.140  17.325  20.687  0.00  0.00    +0.000 C 
ENDBRANCH  27  30
ENDBRANCH  23  24
ENDBRANCH   3  23
TORSDOF 6
ENDMDL
MODEL 9
REMARK VINA RESULT:      -7.1      5.843      7.978
REMARK  Name = 
REMARK  10 active torsions:
REMARK  status: ('A' for Active; 'I' for Inactive)
REMARK    1  A    between atoms: C_1  and  C_2
REMARK    2  A    between atoms: C_2  and  C_3
REMARK    3  A    between atoms: C_6  and  N_7
REMARK    4  A    between atoms: C_8  and  C_10
REMARK    5  A    between atoms: C_12  and  O_13
REMARK    6  A    between atoms: O_13  and  C_14
REMARK    7  A    between atoms: C_17  and  C_18
REMARK    8  A    between atoms: N_20  and  C_21
REMARK    9  A    between atoms: N_20  and  C_22
REMARK   10  A    between atoms: C_27  and  C_28
REMARK                            x       y       z     vdW  Elec       q    Type
REMARK                         _______ _______ _______ _____ _____    ______ ____
ROOT
ATOM      1  C   UNL     1       1.130   9.632  19.772  0.00  0.00    +0.000 A 
ATOM      2  C   UNL     1       1.310  10.762  18.954  0.00  0.00    +0.000 A 
ATOM      3  C   UNL     1       0.763  12.006  19.300  0.00  0.00    +0.000 A 
ATOM      4  C   UNL     1      -0.003  12.099  20.484  0.00  0.00    +0.000 A 
ATOM      5  C   UNL     1      -0.765  13.101  21.146  0.00  0.00    +0.000 A 
ATOM      6  C   UNL     1      -1.187  12.561  22.337  0.00  0.00    +0.000 A 
ATOM      7  C   UNL     1      -1.930  13.122  23.480  0.00  0.00    +0.000 C 
ATOM      8  O   UNL     1      -0.805  11.258  22.425  0.00  0.00    +0.000 OA
ATOM      9  C   UNL     1      -0.098  10.974  21.296  0.00  0.00    +0.000 A 
ATOM     10  C   UNL     1       0.447   9.728  20.993  0.00  0.00    +0.000 A 
ENDROOT
BRANCH   1  12
ATOM     11  N   UNL     1       1.966   7.414  20.298  0.00  0.00    +0.000 N 
ATOM     12  C   UNL     1       1.696   8.334  19.302  0.00  0.00    +0.000 C 
ATOM     13  O   UNL     1       1.836   8.188  18.096  0.00  0.00    +0.000 OA
ATOM     14  H   UNL     1       1.753   7.643  21.256  0.00  0.00    +0.000 HD
BRANCH  11  18
ATOM     15  C   UNL     1       3.420   3.604  19.733  0.00  0.00    +0.000 A 
ATOM     16  C   UNL     1       4.116   4.718  19.279  0.00  0.00    +0.000 A 
ATOM     17  N   UNL     1       3.669   5.977  19.438  0.00  0.00    +0.000 NA
ATOM     18  C   UNL     1       2.491   6.131  20.070  0.00  0.00    +0.000 A 
ATOM     19  C   UNL     1       1.786   5.012  20.510  0.00  0.00    +0.000 A 
ATOM     20  N   UNL     1       2.226   3.736  20.362  0.00  0.00    +0.000 NA
BRANCH  15  22
ATOM     21  C   UNL     1       3.530   1.565  18.307  0.00  0.00    +0.000 C 
ATOM     22  C   UNL     1       4.005   2.231  19.591  0.00  0.00    +0.000 C 
ENDBRANCH  15  22
ENDBRANCH  11  18
ENDBRANCH   1  12
BRANCH   3  23
ATOM     23  O   UNL     1       0.931  13.037  18.379  0.00  0.00    +0.000 OA
BRANCH  23  24
ATOM     24  C   UNL     1       1.938  13.960  18.613  0.00  0.00    +0.000 A 
ATOM     25  C   UNL     1       3.202  13.683  18.108  0.00  0.00    +0.000 A 
ATOM     26  N   UNL     1       4.280  14.487  18.320  0.00  0.00    +0.000 NA
ATOM     27  C   UNL     1       4.040  15.584  19.086  0.00  0.00    +0.000 A 
ATOM     28  C   UNL     1       2.764  15.884  19.548  0.00  0.00    +0.000 A 
ATOM     29  N   UNL     1       1.697  15.067  19.351  0.00  0.00    +0.000 NA
BRANCH  27  30
ATOM     30  C   UNL     1       5.148  16.499  19.481  0.00  0.00    +0.000 C 
ATOM     31  O   UNL     1       5.278  17.527  18.813  0.00  0.00    +0.000 OA
ATOM     32  N   UNL     1       5.957  16.242  20.600  0.00  0.00    +0.000 N 
ATOM     33  C   UNL     1       5.890  15.085  21.482  0.00  0.00    +0.000 C 
ATOM     34  C   UNL     1       6.984  17.216  20.947  0.00  0.00    +0.000 C 
ENDBRANCH  27  30
ENDBRANCH  23  24
ENDBRANCH   3  23
TORSDOF 6
ENDMDL
