MODEL 1
REMARK VINA RESULT:      -8.5      0.000      0.000
REMARK  Name = 
REMARK  3 active torsions:
REMARK  status: ('A' for Active; 'I' for Inactive)
REMARK    1  A    between atoms: C_3  and  C_4
REMARK    2  A    between atoms: C_26  and  C_27
REMARK    3  A    between atoms: C_27  and  N_28
REMARK                            x       y       z     vdW  Elec       q    Type
REMARK                         _______ _______ _______ _____ _____    ______ ____
ROOT
ATOM      1  C   UNL     1       4.438  15.332  20.587  0.00  0.00    +0.000 C 
ATOM      2  C   UNL     1       4.311  16.747  20.042  0.00  0.00    +0.000 C 
ATOM      3  C   UNL     1       4.899  16.901  18.649  0.00  0.00    +0.000 C 
ATOM      4  C   UNL     1       6.388  16.539  18.603  0.00  0.00    +0.000 C 
ATOM      5  C   UNL     1       6.748  15.205  19.263  0.00  0.00    +0.000 C 
ATOM      6  C   UNL     1       5.869  14.805  20.480  0.00  0.00    +0.000 C 
ATOM      7  O   UNL     1       8.010  15.254  19.934  0.00  0.00    +0.000 OA
ATOM      8  O   UNL     1       8.318  13.810  20.040  0.00  0.00    +0.000 OA
ATOM      9  C   UNL     1       9.110  13.580  18.865  0.00  0.00    +0.000 C 
ATOM     10  O   UNL     1       8.404  14.231  17.782  0.00  0.00    +0.000 OA
ATOM     11  O   UNL     1       6.905  14.212  18.193  0.00  0.00    +0.000 OA
ATOM     12  C   UNL     1      10.467  14.168  19.345  0.00  0.00    +0.000 C 
ATOM     13  C   UNL     1      10.744  13.498  20.737  0.00  0.00    +0.000 C 
ATOM     14  C   UNL     1      10.812  11.960  20.573  0.00  0.00    +0.000 C 
ATOM     15  C   UNL     1      12.029  11.683  19.690  0.00  0.00    +0.000 C 
ATOM     16  C   UNL     1      11.844  12.358  18.304  0.00  0.00    +0.000 C 
ATOM     17  C   UNL     1      11.668  13.869  18.449  0.00  0.00    +0.000 C 
ATOM     18  C   UNL     1      10.558  11.831  17.634  0.00  0.00    +0.000 C 
ATOM     19  C   UNL     1       9.319  12.072  18.545  0.00  0.00    +0.000 C 
ATOM     20  C   UNL     1       9.573  11.349  19.873  0.00  0.00    +0.000 C 
ENDROOT
BRANCH   1  23
ATOM     21  C   UNL     1       1.361  13.202  20.422  0.00  0.00    +0.000 A 
ATOM     22  C   UNL     1       2.548  13.697  20.933  0.00  0.00    +0.000 A 
ATOM     23  C   UNL     1       3.508  14.247  20.074  0.00  0.00    +0.000 A 
ATOM     24  C   UNL     1       3.360  14.067  18.692  0.00  0.00    +0.000 A 
ATOM     25  C   UNL     1       2.184  13.517  18.173  0.00  0.00    +0.000 A 
ATOM     26  C   UNL     1       1.144  13.142  19.044  0.00  0.00    +0.000 A 
BRANCH  26  27
ATOM     27  C   UNL     1      -0.257  12.834  18.549  0.00  0.00    +0.000 C 
BRANCH  27  28
ATOM     28  N   UNL     1      -0.959  11.792  19.300  0.00  0.00    +0.000 NA
ATOM     29  C   UNL     1      -2.426  11.979  19.302  0.00  0.00    +0.000 C 
ATOM     30  C   UNL     1      -3.124  11.556  18.003  0.00  0.00    +0.000 C 
ATOM     31  O   UNL     1      -2.815  10.200  17.668  0.00  0.00    +0.000 OA
ATOM     32  C   UNL     1      -1.407  10.022  17.521  0.00  0.00    +0.000 C 
ATOM     33  C   UNL     1      -0.634  10.447  18.781  0.00  0.00    +0.000 C 
ENDBRANCH  27  28
ENDBRANCH  26  27
ENDBRANCH   1  23
TORSDOF 3
ENDMDL
MODEL 2
REMARK VINA RESULT:      -8.4      6.797     11.689
REMARK  Name = 
REMARK  3 active torsions:
REMARK  status: ('A' for Active; 'I' for Inactive)
REMARK    1  A    between atoms: C_3  and  C_4
REMARK    2  A    between atoms: C_26  and  C_27
REMARK    3  A    between atoms: C_27  and  N_28
REMARK                            x       y       z     vdW  Elec       q    Type
REMARK                         _______ _______ _______ _____ _____    ______ ____
ROOT
ATOM      1  C   UNL     1       7.542   5.720  17.312  0.00  0.00    +0.000 C 
ATOM      2  C   UNL     1       7.517   5.517  15.803  0.00  0.00    +0.000 C 
ATOM      3  C   UNL     1       6.160   5.816  15.187  0.00  0.00    +0.000 C 
ATOM      4  C   UNL     1       5.049   4.935  15.772  0.00  0.00    +0.000 C 
ATOM      5  C   UNL     1       5.014   4.873  17.302  0.00  0.00    +0.000 C 
ATOM      6  C   UNL     1       6.394   4.985  18.005  0.00  0.00    +0.000 C 
ATOM      7  O   UNL     1       4.646   3.578  17.783  0.00  0.00    +0.000 OA
ATOM      8  O   UNL     1       4.231   3.910  19.166  0.00  0.00    +0.000 OA
ATOM      9  C   UNL     1       2.816   4.103  19.021  0.00  0.00    +0.000 C 
ATOM     10  O   UNL     1       2.652   4.938  17.850  0.00  0.00    +0.000 OA
ATOM     11  O   UNL     1       3.954   5.782  17.756  0.00  0.00    +0.000 OA
ATOM     12  C   UNL     1       2.355   2.620  18.963  0.00  0.00    +0.000 C 
ATOM     13  C   UNL     1       3.025   1.924  20.201  0.00  0.00    +0.000 C 
ATOM     14  C   UNL     1       2.562   2.619  21.505  0.00  0.00    +0.000 C 
ATOM     15  C   UNL     1       1.058   2.365  21.607  0.00  0.00    +0.000 C 
ATOM     16  C   UNL     1       0.330   2.989  20.385  0.00  0.00    +0.000 C 
ATOM     17  C   UNL     1       0.848   2.394  19.076  0.00  0.00    +0.000 C 
ATOM     18  C   UNL     1       0.622   4.503  20.322  0.00  0.00    +0.000 C 
ATOM     19  C   UNL     1       2.153   4.771  20.259  0.00  0.00    +0.000 C 
ATOM     20  C   UNL     1       2.784   4.151  21.512  0.00  0.00    +0.000 C 
ENDROOT
BRANCH   1  23
ATOM     21  C   UNL     1       8.974   8.679  19.106  0.00  0.00    +0.000 A 
ATOM     22  C   UNL     1       8.445   7.409  18.952  0.00  0.00    +0.000 A 
ATOM     23  C   UNL     1       7.594   7.128  17.876  0.00  0.00    +0.000 A 
ATOM     24  C   UNL     1       7.097   8.192  17.112  0.00  0.00    +0.000 A 
ATOM     25  C   UNL     1       7.588   9.489  17.301  0.00  0.00    +0.000 A 
ATOM     26  C   UNL     1       8.588   9.723  18.263  0.00  0.00    +0.000 A 
BRANCH  26  27
ATOM     27  C   UNL     1       9.379  11.017  18.311  0.00  0.00    +0.000 C 
BRANCH  27  28
ATOM     28  N   UNL     1      10.414  11.066  19.345  0.00  0.00    +0.000 NA
ATOM     29  C   UNL     1      11.730  11.487  18.816  0.00  0.00    +0.000 C 
ATOM     30  C   UNL     1      11.864  12.994  18.567  0.00  0.00    +0.000 C 
ATOM     31  O   UNL     1      11.561  13.743  19.748  0.00  0.00    +0.000 OA
ATOM     32  C   UNL     1      10.239  13.461  20.201  0.00  0.00    +0.000 C 
ATOM     33  C   UNL     1      10.021  11.959  20.455  0.00  0.00    +0.000 C 
ENDBRANCH  27  28
ENDBRANCH  26  27
ENDBRANCH   1  23
TORSDOF 3
ENDMDL
MODEL 3
REMARK VINA RESULT:      -8.1      6.684     11.424
REMARK  Name = 
REMARK  3 active torsions:
REMARK  status: ('A' for Active; 'I' for Inactive)
REMARK    1  A    between atoms: C_3  and  C_4
REMARK    2  A    between atoms: C_26  and  C_27
REMARK    3  A    between atoms: C_27  and  N_28
REMARK                            x       y       z     vdW  Elec       q    Type
REMARK                         _______ _______ _______ _____ _____    ______ ____
ROOT
ATOM      1  C   UNL     1       7.582   5.819  17.280  0.00  0.00    +0.000 C 
ATOM      2  C   UNL     1       7.540   5.669  15.766  0.00  0.00    +0.000 C 
ATOM      3  C   UNL     1       6.180   6.004  15.175  0.00  0.00    +0.000 C 
ATOM      4  C   UNL     1       5.065   5.115  15.741  0.00  0.00    +0.000 C 
ATOM      5  C   UNL     1       5.046   5.000  17.268  0.00  0.00    +0.000 C 
ATOM      6  C   UNL     1       6.434   5.072  17.959  0.00  0.00    +0.000 C 
ATOM      7  O   UNL     1       4.668   3.693  17.708  0.00  0.00    +0.000 OA
ATOM      8  O   UNL     1       4.271   3.981  19.105  0.00  0.00    +0.000 OA
ATOM      9  C   UNL     1       2.857   4.195  18.983  0.00  0.00    +0.000 C 
ATOM     10  O   UNL     1       2.690   5.072  17.843  0.00  0.00    +0.000 OA
ATOM     11  O   UNL     1       4.001   5.904  17.765  0.00  0.00    +0.000 OA
ATOM     12  C   UNL     1       2.378   2.719  18.878  0.00  0.00    +0.000 C 
ATOM     13  C   UNL     1       3.053   1.974  20.083  0.00  0.00    +0.000 C 
ATOM     14  C   UNL     1       2.612   2.627  21.416  0.00  0.00    +0.000 C 
ATOM     15  C   UNL     1       1.106   2.386  21.525  0.00  0.00    +0.000 C 
ATOM     16  C   UNL     1       0.372   3.061  20.334  0.00  0.00    +0.000 C 
ATOM     17  C   UNL     1       0.870   2.506  18.999  0.00  0.00    +0.000 C 
ATOM     18  C   UNL     1       0.681   4.573  20.320  0.00  0.00    +0.000 C 
ATOM     19  C   UNL     1       2.214   4.826  20.250  0.00  0.00    +0.000 C 
ATOM     20  C   UNL     1       2.851   4.156  21.474  0.00  0.00    +0.000 C 
ENDROOT
BRANCH   1  23
ATOM     21  C   UNL     1       8.976   8.630  19.325  0.00  0.00    +0.000 A 
ATOM     22  C   UNL     1       8.391   7.402  19.069  0.00  0.00    +0.000 A 
ATOM     23  C   UNL     1       7.656   7.205  17.893  0.00  0.00    +0.000 A 
ATOM     24  C   UNL     1       7.320   8.319  17.112  0.00  0.00    +0.000 A 
ATOM     25  C   UNL     1       7.867   9.575  17.398  0.00  0.00    +0.000 A 
ATOM     26  C   UNL     1       8.759   9.718  18.477  0.00  0.00    +0.000 A 
BRANCH  26  27
ATOM     27  C   UNL     1       9.619  10.956  18.659  0.00  0.00    +0.000 C 
BRANCH  27  28
ATOM     28  N   UNL     1       9.444  11.983  17.631  0.00  0.00    +0.000 NA
ATOM     29  C   UNL     1       8.488  13.037  18.034  0.00  0.00    +0.000 C 
ATOM     30  C   UNL     1       9.055  14.071  19.014  0.00  0.00    +0.000 C 
ATOM     31  O   UNL     1      10.245  14.676  18.498  0.00  0.00    +0.000 OA
ATOM     32  C   UNL     1      11.240  13.689  18.231  0.00  0.00    +0.000 C 
ATOM     33  C   UNL     1      10.736  12.602  17.267  0.00  0.00    +0.000 C 
ENDBRANCH  27  28
ENDBRANCH  26  27
ENDBRANCH   1  23
TORSDOF 3
ENDMDL
MODEL 4
REMARK VINA RESULT:      -8.0      4.735      7.783
REMARK  Name = 
REMARK  3 active torsions:
REMARK  status: ('A' for Active; 'I' for Inactive)
REMARK    1  A    between atoms: C_3  and  C_4
REMARK    2  A    between atoms: C_26  and  C_27
REMARK    3  A    between atoms: C_27  and  N_28
REMARK                            x       y       z     vdW  Elec       q    Type
REMARK                         _______ _______ _______ _____ _____    ______ ____
ROOT
ATOM      1  C   UNL     1       0.095   9.975  20.396  0.00  0.00    +0.000 C 
ATOM      2  C   UNL     1      -1.167  10.016  19.546  0.00  0.00    +0.000 C 
ATOM      3  C   UNL     1      -0.954  10.689  18.200  0.00  0.00    +0.000 C 
ATOM      4  C   UNL     1      -0.467  12.136  18.344  0.00  0.00    +0.000 C 
ATOM      5  C   UNL     1       0.709  12.328  19.306  0.00  0.00    +0.000 C 
ATOM      6  C   UNL     1       0.750  11.352  20.512  0.00  0.00    +0.000 C 
ATOM      7  O   UNL     1       0.615  13.552  20.039  0.00  0.00    +0.000 OA
ATOM      8  O   UNL     1       2.019  13.712  20.483  0.00  0.00    +0.000 OA
ATOM      9  C   UNL     1       2.573  14.538  19.448  0.00  0.00    +0.000 C 
ATOM     10  O   UNL     1       2.126  13.957  18.200  0.00  0.00    +0.000 OA
ATOM     11  O   UNL     1       1.927  12.444  18.494  0.00  0.00    +0.000 OA
ATOM     12  C   UNL     1       2.007  15.919  19.886  0.00  0.00    +0.000 C 
ATOM     13  C   UNL     1       2.366  16.056  21.407  0.00  0.00    +0.000 C 
ATOM     14  C   UNL     1       3.902  15.981  21.590  0.00  0.00    +0.000 C 
ATOM     15  C   UNL     1       4.471  17.211  20.882  0.00  0.00    +0.000 C 
ATOM     16  C   UNL     1       4.113  17.167  19.371  0.00  0.00    +0.000 C 
ATOM     17  C   UNL     1       2.598  17.131  19.168  0.00  0.00    +0.000 C 
ATOM     18  C   UNL     1       4.669  15.872  18.741  0.00  0.00    +0.000 C 
ATOM     19  C   UNL     1       4.126  14.617  19.483  0.00  0.00    +0.000 C 
ATOM     20  C   UNL     1       4.550  14.728  20.953  0.00  0.00    +0.000 C 
ENDROOT
BRANCH   1  23
ATOM     21  C   UNL     1       1.900   6.693  20.410  0.00  0.00    +0.000 A 
ATOM     22  C   UNL     1       1.399   7.880  20.917  0.00  0.00    +0.000 A 
ATOM     23  C   UNL     1       1.186   8.973  20.067  0.00  0.00    +0.000 A 
ATOM     24  C   UNL     1       1.709   8.930  18.768  0.00  0.00    +0.000 A 
ATOM     25  C   UNL     1       2.266   7.748  18.268  0.00  0.00    +0.000 A 
ATOM     26  C   UNL     1       2.300   6.596  19.076  0.00  0.00    +0.000 A 
BRANCH  26  27
ATOM     27  C   UNL     1       2.598   5.219  18.513  0.00  0.00    +0.000 C 
BRANCH  27  28
ATOM     28  N   UNL     1       2.149   4.103  19.347  0.00  0.00    +0.000 NA
ATOM     29  C   UNL     1       1.438   3.062  18.575  0.00  0.00    +0.000 C 
ATOM     30  C   UNL     1       2.350   2.131  17.767  0.00  0.00    +0.000 C 
ATOM     31  O   UNL     1       3.334   1.517  18.606  0.00  0.00    +0.000 OA
ATOM     32  C   UNL     1       4.132   2.503  19.258  0.00  0.00    +0.000 C 
ATOM     33  C   UNL     1       3.281   3.490  20.075  0.00  0.00    +0.000 C 
ENDBRANCH  27  28
ENDBRANCH  26  27
ENDBRANCH   1  23
TORSDOF 3
ENDMDL
MODEL 5
REMARK VINA RESULT:      -7.9      4.795      7.822
REMARK  Name = 
REMARK  3 active torsions:
REMARK  status: ('A' for Active; 'I' for Inactive)
REMARK    1  A    between atoms: C_3  and  C_4
REMARK    2  A    between atoms: C_26  and  C_27
REMARK    3  A    between atoms: C_27  and  N_28
REMARK                            x       y       z     vdW  Elec       q    Type
REMARK                         _______ _______ _______ _____ _____    ______ ____
ROOT
ATOM      1  C   UNL     1       0.225   9.890  20.309  0.00  0.00    +0.000 C 
ATOM      2  C   UNL     1      -1.014  10.054  19.440  0.00  0.00    +0.000 C 
ATOM      3  C   UNL     1      -0.780  10.951  18.236  0.00  0.00    +0.000 C 
ATOM      4  C   UNL     1      -0.330  12.361  18.639  0.00  0.00    +0.000 C 
ATOM      5  C   UNL     1       0.815  12.405  19.655  0.00  0.00    +0.000 C 
ATOM      6  C   UNL     1       0.845  11.238  20.678  0.00  0.00    +0.000 C 
ATOM      7  O   UNL     1       0.674  13.484  20.583  0.00  0.00    +0.000 OA
ATOM      8  O   UNL     1       2.062  13.590  21.090  0.00  0.00    +0.000 OA
ATOM      9  C   UNL     1       2.625  14.591  20.228  0.00  0.00    +0.000 C 
ATOM     10  O   UNL     1       2.226  14.224  18.887  0.00  0.00    +0.000 OA
ATOM     11  O   UNL     1       2.052  12.679  18.913  0.00  0.00    +0.000 OA
ATOM     12  C   UNL     1       2.017  15.866  20.877  0.00  0.00    +0.000 C 
ATOM     13  C   UNL     1       2.332  15.747  22.410  0.00  0.00    +0.000 C 
ATOM     14  C   UNL     1       3.864  15.669  22.624  0.00  0.00    +0.000 C 
ATOM     15  C   UNL     1       4.424  17.011  22.153  0.00  0.00    +0.000 C 
ATOM     16  C   UNL     1       4.108  17.220  20.647  0.00  0.00    +0.000 C 
ATOM     17  C   UNL     1       2.601  17.193  20.395  0.00  0.00    +0.000 C 
ATOM     18  C   UNL     1       4.709  16.061  19.823  0.00  0.00    +0.000 C 
ATOM     19  C   UNL     1       4.175  14.688  20.323  0.00  0.00    +0.000 C 
ATOM     20  C   UNL     1       4.556  14.554  21.803  0.00  0.00    +0.000 C 
ENDROOT
BRANCH   1  23
ATOM     21  C   UNL     1       2.184   6.717  19.957  0.00  0.00    +0.000 A 
ATOM     22  C   UNL     1       1.650   7.828  20.588  0.00  0.00    +0.000 A 
ATOM     23  C   UNL     1       1.346   8.978  19.848  0.00  0.00    +0.000 A 
ATOM     24  C   UNL     1       1.811   9.075  18.529  0.00  0.00    +0.000 A 
ATOM     25  C   UNL     1       2.400   7.970  17.904  0.00  0.00    +0.000 A 
ATOM     26  C   UNL     1       2.527   6.757  18.604  0.00  0.00    +0.000 A 
BRANCH  26  27
ATOM     27  C   UNL     1       2.864   5.450  17.909  0.00  0.00    +0.000 C 
BRANCH  27  28
ATOM     28  N   UNL     1       4.040   4.758  18.438  0.00  0.00    +0.000 NA
ATOM     29  C   UNL     1       4.397   3.556  17.653  0.00  0.00    +0.000 C 
ATOM     30  C   UNL     1       5.124   3.848  16.335  0.00  0.00    +0.000 C 
ATOM     31  O   UNL     1       6.294   4.642  16.555  0.00  0.00    +0.000 OA
ATOM     32  C   UNL     1       5.959   5.876  17.187  0.00  0.00    +0.000 C 
ATOM     33  C   UNL     1       5.206   5.663  18.512  0.00  0.00    +0.000 C 
ENDBRANCH  27  28
ENDBRANCH  26  27
ENDBRANCH   1  23
TORSDOF 3
ENDMDL
MODEL 6
REMARK VINA RESULT:      -7.9      1.301      1.629
REMARK  Name = 
REMARK  3 active torsions:
REMARK  status: ('A' for Active; 'I' for Inactive)
REMARK    1  A    between atoms: C_3  and  C_4
REMARK    2  A    between atoms: C_26  and  C_27
REMARK    3  A    between atoms: C_27  and  N_28
REMARK                            x       y       z     vdW  Elec       q    Type
REMARK                         _______ _______ _______ _____ _____    ______ ____
ROOT
ATOM      1  C   UNL     1       4.955  15.920  21.098  0.00  0.00    +0.000 C 
ATOM      2  C   UNL     1       5.196  17.379  21.460  0.00  0.00    +0.000 C 
ATOM      3  C   UNL     1       6.072  18.103  20.452  0.00  0.00    +0.000 C 
ATOM      4  C   UNL     1       7.450  17.449  20.302  0.00  0.00    +0.000 C 
ATOM      5  C   UNL     1       7.425  15.932  20.096  0.00  0.00    +0.000 C 
ATOM      6  C   UNL     1       6.261  15.183  20.801  0.00  0.00    +0.000 C 
ATOM      7  O   UNL     1       8.513  15.277  20.753  0.00  0.00    +0.000 OA
ATOM      8  O   UNL     1       8.531  13.986  20.028  0.00  0.00    +0.000 OA
ATOM      9  C   UNL     1       9.490  14.232  18.989  0.00  0.00    +0.000 C 
ATOM     10  O   UNL     1       9.145  15.524  18.436  0.00  0.00    +0.000 OA
ATOM     11  O   UNL     1       7.615  15.679  18.663  0.00  0.00    +0.000 OA
ATOM     12  C   UNL     1      10.804  14.085  19.808  0.00  0.00    +0.000 C 
ATOM     13  C   UNL     1      10.670  12.723  20.575  0.00  0.00    +0.000 C 
ATOM     14  C   UNL     1      10.494  11.567  19.560  0.00  0.00    +0.000 C 
ATOM     15  C   UNL     1      11.796  11.506  18.761  0.00  0.00    +0.000 C 
ATOM     16  C   UNL     1      12.019  12.845  18.007  0.00  0.00    +0.000 C 
ATOM     17  C   UNL     1      12.089  14.018  18.984  0.00  0.00    +0.000 C 
ATOM     18  C   UNL     1      10.821  13.124  17.074  0.00  0.00    +0.000 C 
ATOM     19  C   UNL     1       9.488  13.148  17.875  0.00  0.00    +0.000 C 
ATOM     20  C   UNL     1       9.333  11.783  18.558  0.00  0.00    +0.000 C 
ENDROOT
BRANCH   1  23
ATOM     21  C   UNL     1       3.205  13.795  18.558  0.00  0.00    +0.000 A 
ATOM     22  C   UNL     1       4.244  14.506  19.135  0.00  0.00    +0.000 A 
ATOM     23  C   UNL     1       3.970  15.576  19.996  0.00  0.00    +0.000 A 
ATOM     24  C   UNL     1       2.659  16.066  20.069  0.00  0.00    +0.000 A 
ATOM     25  C   UNL     1       1.612  15.381  19.443  0.00  0.00    +0.000 A 
ATOM     26  C   UNL     1       1.879  14.195  18.735  0.00  0.00    +0.000 A 
BRANCH  26  27
ATOM     27  C   UNL     1       0.777  13.245  18.300  0.00  0.00    +0.000 C 
BRANCH  27  28
ATOM     28  N   UNL     1      -0.105  12.793  19.376  0.00  0.00    +0.000 NA
ATOM     29  C   UNL     1      -1.447  12.403  18.889  0.00  0.00    +0.000 C 
ATOM     30  C   UNL     1      -1.506  11.025  18.219  0.00  0.00    +0.000 C 
ATOM     31  O   UNL     1      -0.996  10.006  19.085  0.00  0.00    +0.000 OA
ATOM     32  C   UNL     1       0.352  10.286  19.459  0.00  0.00    +0.000 C 
ATOM     33  C   UNL     1       0.495  11.666  20.123  0.00  0.00    +0.000 C 
ENDBRANCH  27  28
ENDBRANCH  26  27
ENDBRANCH   1  23
TORSDOF 3
ENDMDL
MODEL 7
REMARK VINA RESULT:      -7.9      5.396      8.335
REMARK  Name = 
REMARK  3 active torsions:
REMARK  status: ('A' for Active; 'I' for Inactive)
REMARK    1  A    between atoms: C_3  and  C_4
REMARK    2  A    between atoms: C_26  and  C_27
REMARK    3  A    between atoms: C_27  and  N_28
REMARK                            x       y       z     vdW  Elec       q    Type
REMARK                         _______ _______ _______ _____ _____    ______ ____
ROOT
ATOM      1  C   UNL     1      -0.189  10.067  20.086  0.00  0.00    +0.000 C 
ATOM      2  C   UNL     1      -1.405  10.048  19.171  0.00  0.00    +0.000 C 
ATOM      3  C   UNL     1      -1.256  10.963  17.967  0.00  0.00    +0.000 C 
ATOM      4  C   UNL     1      -1.027  12.425  18.372  0.00  0.00    +0.000 C 
ATOM      5  C   UNL     1       0.061  12.638  19.428  0.00  0.00    +0.000 C 
ATOM      6  C   UNL     1       0.219  11.491  20.463  0.00  0.00    +0.000 C 
ATOM      7  O   UNL     1      -0.267  13.690  20.339  0.00  0.00    +0.000 OA
ATOM      8  O   UNL     1       1.071  13.996  20.895  0.00  0.00    +0.000 OA
ATOM      9  C   UNL     1       1.518  15.062  20.045  0.00  0.00    +0.000 C 
ATOM     10  O   UNL     1       1.225  14.636  18.693  0.00  0.00    +0.000 OA
ATOM     11  O   UNL     1       1.273  13.082  18.728  0.00  0.00    +0.000 OA
ATOM     12  C   UNL     1       0.710  16.241  20.658  0.00  0.00    +0.000 C 
ATOM     13  C   UNL     1       0.981  16.175  22.202  0.00  0.00    +0.000 C 
ATOM     14  C   UNL     1       2.499  16.318  22.473  0.00  0.00    +0.000 C 
ATOM     15  C   UNL     1       2.879  17.725  22.009  0.00  0.00    +0.000 C 
ATOM     16  C   UNL     1       2.593  17.878  20.490  0.00  0.00    +0.000 C 
ATOM     17  C   UNL     1       1.116  17.635  20.184  0.00  0.00    +0.000 C 
ATOM     18  C   UNL     1       3.384  16.814  19.701  0.00  0.00    +0.000 C 
ATOM     19  C   UNL     1       3.032  15.381  20.195  0.00  0.00    +0.000 C 
ATOM     20  C   UNL     1       3.374  15.310  21.689  0.00  0.00    +0.000 C 
ENDROOT
BRANCH   1  23
ATOM     21  C   UNL     1       2.213   7.204  19.834  0.00  0.00    +0.000 A 
ATOM     22  C   UNL     1       1.503   8.230  20.435  0.00  0.00    +0.000 A 
ATOM     23  C   UNL     1       1.068   9.323  19.675  0.00  0.00    +0.000 A 
ATOM     24  C   UNL     1       1.565   9.481  18.374  0.00  0.00    +0.000 A 
ATOM     25  C   UNL     1       2.329   8.470  17.780  0.00  0.00    +0.000 A 
ATOM     26  C   UNL     1       2.599   7.289  18.495  0.00  0.00    +0.000 A 
BRANCH  26  27
ATOM     27  C   UNL     1       3.145   6.042  17.824  0.00  0.00    +0.000 C 
BRANCH  27  28
ATOM     28  N   UNL     1       4.578   5.815  18.020  0.00  0.00    +0.000 NA
ATOM     29  C   UNL     1       4.935   4.379  18.019  0.00  0.00    +0.000 C 
ATOM     30  C   UNL     1       4.993   3.738  16.627  0.00  0.00    +0.000 C 
ATOM     31  O   UNL     1       5.883   4.454  15.765  0.00  0.00    +0.000 OA
ATOM     32  C   UNL     1       5.478   5.815  15.635  0.00  0.00    +0.000 C 
ATOM     33  C   UNL     1       5.377   6.522  16.997  0.00  0.00    +0.000 C 
ENDBRANCH  27  28
ENDBRANCH  26  27
ENDBRANCH   1  23
TORSDOF 3
ENDMDL
MODEL 8
REMARK VINA RESULT:      -7.9      5.614      8.290
REMARK  Name = 
REMARK  3 active torsions:
REMARK  status: ('A' for Active; 'I' for Inactive)
REMARK    1  A    between atoms: C_3  and  C_4
REMARK    2  A    between atoms: C_26  and  C_27
REMARK    3  A    between atoms: C_27  and  N_28
REMARK                            x       y       z     vdW  Elec       q    Type
REMARK                         _______ _______ _______ _____ _____    ______ ____
ROOT
ATOM      1  C   UNL     1      -0.309  10.041  19.981  0.00  0.00    +0.000 C 
ATOM      2  C   UNL     1      -1.485  10.008  19.015  0.00  0.00    +0.000 C 
ATOM      3  C   UNL     1      -1.283  10.901  17.802  0.00  0.00    +0.000 C 
ATOM      4  C   UNL     1      -1.068  12.369  18.190  0.00  0.00    +0.000 C 
ATOM      5  C   UNL     1      -0.026  12.599  19.288  0.00  0.00    +0.000 C 
ATOM      6  C   UNL     1       0.085  11.472  20.349  0.00  0.00    +0.000 C 
ATOM      7  O   UNL     1      -0.390  13.668  20.165  0.00  0.00    +0.000 OA
ATOM      8  O   UNL     1       0.924  13.982  20.772  0.00  0.00    +0.000 OA
ATOM      9  C   UNL     1       1.409  15.032  19.922  0.00  0.00    +0.000 C 
ATOM     10  O   UNL     1       1.173  14.582  18.567  0.00  0.00    +0.000 OA
ATOM     11  O   UNL     1       1.216  13.029  18.633  0.00  0.00    +0.000 OA
ATOM     12  C   UNL     1       0.579  16.223  20.479  0.00  0.00    +0.000 C 
ATOM     13  C   UNL     1       0.784  16.185  22.035  0.00  0.00    +0.000 C 
ATOM     14  C   UNL     1       2.289  16.330  22.367  0.00  0.00    +0.000 C 
ATOM     15  C   UNL     1       2.692  17.728  21.895  0.00  0.00    +0.000 C 
ATOM     16  C   UNL     1       2.472  17.854  20.363  0.00  0.00    +0.000 C 
ATOM     17  C   UNL     1       1.008  17.608  19.998  0.00  0.00    +0.000 C 
ATOM     18  C   UNL     1       3.293  16.774  19.627  0.00  0.00    +0.000 C 
ATOM     19  C   UNL     1       2.917  15.351  20.131  0.00  0.00    +0.000 C 
ATOM     20  C   UNL     1       3.194  15.306  21.639  0.00  0.00    +0.000 C 
ENDROOT
BRANCH   1  23
ATOM     21  C   UNL     1       2.200   7.262  20.073  0.00  0.00    +0.000 A 
ATOM     22  C   UNL     1       1.470   8.343  20.538  0.00  0.00    +0.000 A 
ATOM     23  C   UNL     1       0.962   9.287  19.637  0.00  0.00    +0.000 A 
ATOM     24  C   UNL     1       1.405   9.259  18.308  0.00  0.00    +0.000 A 
ATOM     25  C   UNL     1       2.189   8.197  17.845  0.00  0.00    +0.000 A 
ATOM     26  C   UNL     1       2.534   7.151  18.721  0.00  0.00    +0.000 A 
BRANCH  26  27
ATOM     27  C   UNL     1       3.108   5.835  18.228  0.00  0.00    +0.000 C 
BRANCH  27  28
ATOM     28  N   UNL     1       3.104   4.754  19.215  0.00  0.00    +0.000 NA
ATOM     29  C   UNL     1       1.788   4.088  19.329  0.00  0.00    +0.000 C 
ATOM     30  C   UNL     1       1.475   3.100  18.200  0.00  0.00    +0.000 C 
ATOM     31  O   UNL     1       2.503   2.111  18.077  0.00  0.00    +0.000 OA
ATOM     32  C   UNL     1       3.766   2.723  17.825  0.00  0.00    +0.000 C 
ATOM     33  C   UNL     1       4.142   3.747  18.910  0.00  0.00    +0.000 C 
ENDBRANCH  27  28
ENDBRANCH  26  27
ENDBRANCH   1  23
TORSDOF 3
ENDMDL
MODEL 9
REMARK VINA RESULT:      -7.9      4.628      8.052
REMARK  Name = 
REMARK  3 active torsions:
REMARK  status: ('A' for Active; 'I' for Inactive)
REMARK    1  A    between atoms: C_3  and  C_4
REMARK    2  A    between atoms: C_26  and  C_27
REMARK    3  A    between atoms: C_27  and  N_28
REMARK                            x       y       z     vdW  Elec       q    Type
REMARK                         _______ _______ _______ _____ _____    ______ ____
ROOT
ATOM      1  C   UNL     1       0.998   9.415  20.957  0.00  0.00    +0.000 C 
ATOM      2  C   UNL     1      -0.481   9.503  21.304  0.00  0.00    +0.000 C 
ATOM      3  C   UNL     1      -1.277  10.322  20.301  0.00  0.00    +0.000 C 
ATOM      4  C   UNL     1      -0.761  11.761  20.185  0.00  0.00    +0.000 C 
ATOM      5  C   UNL     1       0.754  11.889  19.999  0.00  0.00    +0.000 C 
ATOM      6  C   UNL     1       1.606  10.792  20.693  0.00  0.00    +0.000 C 
ATOM      7  O   UNL     1       1.290  13.025  20.684  0.00  0.00    +0.000 OA
ATOM      8  O   UNL     1       2.582  13.184  19.977  0.00  0.00    +0.000 OA
ATOM      9  C   UNL     1       2.254  14.133  18.952  0.00  0.00    +0.000 C 
ATOM     10  O   UNL     1       1.009  13.673  18.375  0.00  0.00    +0.000 OA
ATOM     11  O   UNL     1       1.004  12.131  18.573  0.00  0.00    +0.000 OA
ATOM     12  C   UNL     1       2.260  15.440  19.795  0.00  0.00    +0.000 C 
ATOM     13  C   UNL     1       3.620  15.426  20.579  0.00  0.00    +0.000 C 
ATOM     14  C   UNL     1       4.800  15.384  19.577  0.00  0.00    +0.000 C 
ATOM     15  C   UNL     1       4.741  16.701  18.801  0.00  0.00    +0.000 C 
ATOM     16  C   UNL     1       3.395  16.805  18.033  0.00  0.00    +0.000 C 
ATOM     17  C   UNL     1       2.209  16.740  18.995  0.00  0.00    +0.000 C 
ATOM     18  C   UNL     1       3.247  15.603  17.075  0.00  0.00    +0.000 C 
ATOM     19  C   UNL     1       3.346  14.259  17.852  0.00  0.00    +0.000 C 
ATOM     20  C   UNL     1       4.712  14.228  18.551  0.00  0.00    +0.000 C 
ENDROOT
BRANCH   1  23
ATOM     21  C   UNL     1       2.767   8.378  17.823  0.00  0.00    +0.000 A 
ATOM     22  C   UNL     1       1.833   9.032  18.609  0.00  0.00    +0.000 A 
ATOM     23  C   UNL     1       1.451   8.490  19.842  0.00  0.00    +0.000 A 
ATOM     24  C   UNL     1       1.835   7.178  20.152  0.00  0.00    +0.000 A 
ATOM     25  C   UNL     1       2.738   6.493  19.332  0.00  0.00    +0.000 A 
ATOM     26  C   UNL     1       3.262   7.125  18.190  0.00  0.00    +0.000 A 
BRANCH  26  27
ATOM     27  C   UNL     1       4.459   6.576  17.436  0.00  0.00    +0.000 C 
BRANCH  27  28
ATOM     28  N   UNL     1       4.947   5.282  17.916  0.00  0.00    +0.000 NA
ATOM     29  C   UNL     1       5.305   4.362  16.814  0.00  0.00    +0.000 C 
ATOM     30  C   UNL     1       6.655   4.658  16.149  0.00  0.00    +0.000 C 
ATOM     31  O   UNL     1       7.712   4.685  17.113  0.00  0.00    +0.000 OA
ATOM     32  C   UNL     1       7.458   5.668  18.116  0.00  0.00    +0.000 C 
ATOM     33  C   UNL     1       6.107   5.447  18.817  0.00  0.00    +0.000 C 
ENDBRANCH  27  28
ENDBRANCH  26  27
ENDBRANCH   1  23
TORSDOF 3
ENDMDL
