MODEL 1
REMARK VINA RESULT:      -7.7      0.000      0.000
REMARK  Name = 
REMARK  2 active torsions:
REMARK  status: ('A' for Active; 'I' for Inactive)
REMARK    1  A    between atoms: C_12  and  C_13
REMARK    2  A    between atoms: C_16  and  C_17
REMARK                            x       y       z     vdW  Elec       q    Type
REMARK                         _______ _______ _______ _____ _____    ______ ____
ROOT
ATOM      1  O   UNL     1       1.367   7.872  20.541  0.00  0.00    +0.000 OA
ATOM      2  C   UNL     1       2.178   7.347  19.803  0.00  0.00    +0.000 C 
ATOM      3  N   UNL     1       2.939   6.225  20.089  0.00  0.00    +0.000 N 
ATOM      4  C   UNL     1       3.748   5.866  19.019  0.00  0.00    +0.000 A 
ATOM      5  C   UNL     1       4.620   4.797  18.971  0.00  0.00    +0.000 A 
ATOM      6  C   UNL     1       5.333   4.610  17.786  0.00  0.00    +0.000 A 
ATOM      7  C   UNL     1       5.158   5.487  16.699  0.00  0.00    +0.000 A 
ATOM      8 CL   UNL     1       6.053   5.216  15.251  0.00  0.00    +0.000 Cl
ATOM      9  C   UNL     1       4.273   6.569  16.769  0.00  0.00    +0.000 A 
ATOM     10  C   UNL     1       3.567   6.747  17.946  0.00  0.00    +0.000 A 
ATOM     11  C   UNL     1       2.577   7.734  18.400  0.00  0.00    +0.000 C 
ATOM     12  C   UNL     1       2.134   8.785  17.701  0.00  0.00    +0.000 C 
ATOM     13  H   UNL     1       2.874   5.745  20.974  0.00  0.00    +0.000 HD
ENDROOT
BRANCH  12  14
ATOM     14  C   UNL     1       1.180   9.777  18.199  0.00  0.00    +0.000 A 
ATOM     15  C   UNL     1      -0.183   9.623  17.951  0.00  0.00    +0.000 A 
ATOM     16  C   UNL     1      -1.101  10.550  18.457  0.00  0.00    +0.000 A 
ATOM     17  C   UNL     1      -0.690  11.648  19.238  0.00  0.00    +0.000 A 
ATOM     18  C   UNL     1       0.693  11.793  19.453  0.00  0.00    +0.000 A 
ATOM     19  C   UNL     1       1.618  10.878  18.935  0.00  0.00    +0.000 A 
BRANCH  17  20
ATOM     20  C   UNL     1      -1.675  12.603  19.804  0.00  0.00    +0.000 A 
ATOM     21  C   UNL     1      -1.277  13.867  20.282  0.00  0.00    +0.000 A 
ATOM     22  C   UNL     1      -2.194  14.763  20.841  0.00  0.00    +0.000 A 
ATOM     23  C   UNL     1      -3.540  14.424  20.918  0.00  0.00    +0.000 A 
ATOM     24  C   UNL     1      -3.967  13.192  20.434  0.00  0.00    +0.000 A 
ATOM     25  C   UNL     1      -3.045  12.293  19.889  0.00  0.00    +0.000 A 
ENDBRANCH  17  20
ENDBRANCH  12  14
TORSDOF 2
ENDMDL
MODEL 2
REMARK VINA RESULT:      -7.6      0.352      1.021
REMARK  Name = 
REMARK  2 active torsions:
REMARK  status: ('A' for Active; 'I' for Inactive)
REMARK    1  A    between atoms: C_12  and  C_13
REMARK    2  A    between atoms: C_16  and  C_17
REMARK                            x       y       z     vdW  Elec       q    Type
REMARK                         _______ _______ _______ _____ _____    ______ ____
ROOT
ATOM      1  O   UNL     1       1.263   8.012  20.679  0.00  0.00    +0.000 OA
ATOM      2  C   UNL     1       2.065   7.512  19.915  0.00  0.00    +0.000 C 
ATOM      3  N   UNL     1       2.872   6.416  20.177  0.00  0.00    +0.000 N 
ATOM      4  C   UNL     1       3.656   6.082  19.081  0.00  0.00    +0.000 A 
ATOM      5  C   UNL     1       4.561   5.042  19.005  0.00  0.00    +0.000 A 
ATOM      6  C   UNL     1       5.240   4.876  17.797  0.00  0.00    +0.000 A 
ATOM      7  C   UNL     1       4.999   5.744  16.715  0.00  0.00    +0.000 A 
ATOM      8 CL   UNL     1       5.853   5.499  15.238  0.00  0.00    +0.000 Cl
ATOM      9  C   UNL     1       4.082   6.796  16.813  0.00  0.00    +0.000 A 
ATOM     10  C   UNL     1       3.411   6.954  18.013  0.00  0.00    +0.000 A 
ATOM     11  C   UNL     1       2.404   7.909  18.498  0.00  0.00    +0.000 C 
ATOM     12  C   UNL     1       1.903   8.943  17.813  0.00  0.00    +0.000 C 
ATOM     13  H   UNL     1       2.853   5.937  21.064  0.00  0.00    +0.000 HD
ENDROOT
BRANCH  12  14
ATOM     14  C   UNL     1       0.934   9.904  18.342  0.00  0.00    +0.000 A 
ATOM     15  C   UNL     1      -0.432   9.683  18.177  0.00  0.00    +0.000 A 
ATOM     16  C   UNL     1      -1.362  10.581  18.713  0.00  0.00    +0.000 A 
ATOM     17  C   UNL     1      -0.958  11.716  19.442  0.00  0.00    +0.000 A 
ATOM     18  C   UNL     1       0.427  11.929  19.574  0.00  0.00    +0.000 A 
ATOM     19  C   UNL     1       1.362  11.042  19.026  0.00  0.00    +0.000 A 
BRANCH  17  20
ATOM     20  C   UNL     1      -1.953  12.641  20.042  0.00  0.00    +0.000 A 
ATOM     21  C   UNL     1      -3.334  12.474  19.820  0.00  0.00    +0.000 A 
ATOM     22  C   UNL     1      -4.276  13.355  20.360  0.00  0.00    +0.000 A 
ATOM     23  C   UNL     1      -3.860  14.419  21.153  0.00  0.00    +0.000 A 
ATOM     24  C   UNL     1      -2.504  14.598  21.407  0.00  0.00    +0.000 A 
ATOM     25  C   UNL     1      -1.564  13.722  20.854  0.00  0.00    +0.000 A 
ENDBRANCH  17  20
ENDBRANCH  12  14
TORSDOF 2
ENDMDL
MODEL 3
REMARK VINA RESULT:      -7.5      3.673      8.944
REMARK  Name = 
REMARK  2 active torsions:
REMARK  status: ('A' for Active; 'I' for Inactive)
REMARK    1  A    between atoms: C_12  and  C_13
REMARK    2  A    between atoms: C_16  and  C_17
REMARK                            x       y       z     vdW  Elec       q    Type
REMARK                         _______ _______ _______ _____ _____    ______ ____
ROOT
ATOM      1  O   UNL     1      -0.987   9.757  18.011  0.00  0.00    +0.000 OA
ATOM      2  C   UNL     1      -1.201  10.563  18.895  0.00  0.00    +0.000 C 
ATOM      3  N   UNL     1      -2.247  11.471  18.939  0.00  0.00    +0.000 N 
ATOM      4  C   UNL     1      -2.220  12.230  20.101  0.00  0.00    +0.000 A 
ATOM      5  C   UNL     1      -3.118  13.216  20.460  0.00  0.00    +0.000 A 
ATOM      6  C   UNL     1      -2.910  13.850  21.686  0.00  0.00    +0.000 A 
ATOM      7  C   UNL     1      -1.825  13.487  22.505  0.00  0.00    +0.000 A 
ATOM      8 CL   UNL     1      -1.609  14.291  24.014  0.00  0.00    +0.000 Cl
ATOM      9  C   UNL     1      -0.922  12.489  22.122  0.00  0.00    +0.000 A 
ATOM     10  C   UNL     1      -1.135  11.862  20.906  0.00  0.00    +0.000 A 
ATOM     11  C   UNL     1      -0.431  10.802  20.171  0.00  0.00    +0.000 C 
ATOM     12  C   UNL     1       0.690  10.183  20.559  0.00  0.00    +0.000 C 
ATOM     13  H   UNL     1      -2.934  11.534  18.203  0.00  0.00    +0.000 HD
ENDROOT
BRANCH  12  14
ATOM     14  C   UNL     1       1.392   9.161  19.781  0.00  0.00    +0.000 A 
ATOM     15  C   UNL     1       1.857   9.453  18.500  0.00  0.00    +0.000 A 
ATOM     16  C   UNL     1       2.559   8.488  17.768  0.00  0.00    +0.000 A 
ATOM     17  C   UNL     1       2.833   7.213  18.298  0.00  0.00    +0.000 A 
ATOM     18  C   UNL     1       2.333   6.936  19.584  0.00  0.00    +0.000 A 
ATOM     19  C   UNL     1       1.614   7.891  20.314  0.00  0.00    +0.000 A 
BRANCH  17  20
ATOM     20  C   UNL     1       3.615   6.211  17.530  0.00  0.00    +0.000 A 
ATOM     21  C   UNL     1       4.650   6.602  16.659  0.00  0.00    +0.000 A 
ATOM     22  C   UNL     1       5.374   5.668  15.912  0.00  0.00    +0.000 A 
ATOM     23  C   UNL     1       5.093   4.311  16.033  0.00  0.00    +0.000 A 
ATOM     24  C   UNL     1       4.090   3.892  16.901  0.00  0.00    +0.000 A 
ATOM     25  C   UNL     1       3.358   4.832  17.636  0.00  0.00    +0.000 A 
ENDBRANCH  17  20
ENDBRANCH  12  14
TORSDOF 2
ENDMDL
MODEL 4
REMARK VINA RESULT:      -7.5      0.159      1.395
REMARK  Name = 
REMARK  2 active torsions:
REMARK  status: ('A' for Active; 'I' for Inactive)
REMARK    1  A    between atoms: C_12  and  C_13
REMARK    2  A    between atoms: C_16  and  C_17
REMARK                            x       y       z     vdW  Elec       q    Type
REMARK                         _______ _______ _______ _____ _____    ______ ____
ROOT
ATOM      1  O   UNL     1       1.375   7.692  20.603  0.00  0.00    +0.000 OA
ATOM      2  C   UNL     1       2.184   7.223  19.826  0.00  0.00    +0.000 C 
ATOM      3  N   UNL     1       2.967   6.099  20.039  0.00  0.00    +0.000 N 
ATOM      4  C   UNL     1       3.767   5.815  18.941  0.00  0.00    +0.000 A 
ATOM      5  C   UNL     1       4.656   4.766  18.822  0.00  0.00    +0.000 A 
ATOM      6  C   UNL     1       5.356   4.658  17.619  0.00  0.00    +0.000 A 
ATOM      7  C   UNL     1       5.152   5.591  16.586  0.00  0.00    +0.000 A 
ATOM      8 CL   UNL     1       6.032   5.418  15.114  0.00  0.00    +0.000 Cl
ATOM      9  C   UNL     1       4.251   6.653  16.727  0.00  0.00    +0.000 A 
ATOM     10  C   UNL     1       3.558   6.752  17.922  0.00  0.00    +0.000 A 
ATOM     11  C   UNL     1       2.558   7.695  18.442  0.00  0.00    +0.000 C 
ATOM     12  C   UNL     1       2.089   8.777  17.809  0.00  0.00    +0.000 C 
ATOM     13  H   UNL     1       2.922   5.570  20.896  0.00  0.00    +0.000 HD
ENDROOT
BRANCH  12  14
ATOM     14  C   UNL     1       1.125   9.722  18.375  0.00  0.00    +0.000 A 
ATOM     15  C   UNL     1       1.562  10.758  19.198  0.00  0.00    +0.000 A 
ATOM     16  C   UNL     1       0.647  11.685  19.711  0.00  0.00    +0.000 A 
ATOM     17  C   UNL     1      -0.725  11.617  19.405  0.00  0.00    +0.000 A 
ATOM     18  C   UNL     1      -1.144  10.548  18.590  0.00  0.00    +0.000 A 
ATOM     19  C   UNL     1      -0.235   9.607  18.088  0.00  0.00    +0.000 A 
BRANCH  17  20
ATOM     20  C   UNL     1      -1.682  12.628  19.920  0.00  0.00    +0.000 A 
ATOM     21  C   UNL     1      -3.065  12.369  19.967  0.00  0.00    +0.000 A 
ATOM     22  C   UNL     1      -3.977  13.326  20.427  0.00  0.00    +0.000 A 
ATOM     23  C   UNL     1      -3.523  14.563  20.871  0.00  0.00    +0.000 A 
ATOM     24  C   UNL     1      -2.159  14.840  20.857  0.00  0.00    +0.000 A 
ATOM     25  C   UNL     1      -1.253  13.886  20.382  0.00  0.00    +0.000 A 
ENDBRANCH  17  20
ENDBRANCH  12  14
TORSDOF 2
ENDMDL
MODEL 5
REMARK VINA RESULT:      -7.5      4.080      9.041
REMARK  Name = 
REMARK  2 active torsions:
REMARK  status: ('A' for Active; 'I' for Inactive)
REMARK    1  A    between atoms: C_12  and  C_13
REMARK    2  A    between atoms: C_16  and  C_17
REMARK                            x       y       z     vdW  Elec       q    Type
REMARK                         _______ _______ _______ _____ _____    ______ ____
ROOT
ATOM      1  O   UNL     1       1.834  11.992  20.160  0.00  0.00    +0.000 OA
ATOM      2  C   UNL     1       0.903  12.244  20.901  0.00  0.00    +0.000 C 
ATOM      3  N   UNL     1       0.625  13.473  21.478  0.00  0.00    +0.000 N 
ATOM      4  C   UNL     1      -0.528  13.428  22.250  0.00  0.00    +0.000 A 
ATOM      5  C   UNL     1      -1.087  14.477  22.953  0.00  0.00    +0.000 A 
ATOM      6  C   UNL     1      -2.262  14.216  23.659  0.00  0.00    +0.000 A 
ATOM      7  C   UNL     1      -2.836  12.931  23.643  0.00  0.00    +0.000 A 
ATOM      8 CL   UNL     1      -4.292  12.652  24.523  0.00  0.00    +0.000 Cl
ATOM      9  C   UNL     1      -2.252  11.878  22.929  0.00  0.00    +0.000 A 
ATOM     10  C   UNL     1      -1.087  12.145  22.230  0.00  0.00    +0.000 A 
ATOM     11  C   UNL     1      -0.198  11.333  21.388  0.00  0.00    +0.000 C 
ATOM     12  C   UNL     1      -0.335  10.028  21.124  0.00  0.00    +0.000 C 
ATOM     13  H   UNL     1       1.205  14.282  21.320  0.00  0.00    +0.000 HD
ENDROOT
BRANCH  12  14
ATOM     14  C   UNL     1       0.596   9.237  20.317  0.00  0.00    +0.000 A 
ATOM     15  C   UNL     1       1.326   8.204  20.902  0.00  0.00    +0.000 A 
ATOM     16  C   UNL     1       2.189   7.423  20.126  0.00  0.00    +0.000 A 
ATOM     17  C   UNL     1       2.337   7.637  18.742  0.00  0.00    +0.000 A 
ATOM     18  C   UNL     1       1.606   8.701  18.180  0.00  0.00    +0.000 A 
ATOM     19  C   UNL     1       0.754   9.497  18.956  0.00  0.00    +0.000 A 
BRANCH  17  20
ATOM     20  C   UNL     1       3.224   6.777  17.919  0.00  0.00    +0.000 A 
ATOM     21  C   UNL     1       3.097   5.375  17.929  0.00  0.00    +0.000 A 
ATOM     22  C   UNL     1       3.945   4.555  17.177  0.00  0.00    +0.000 A 
ATOM     23  C   UNL     1       4.933   5.121  16.378  0.00  0.00    +0.000 A 
ATOM     24  C   UNL     1       5.068   6.505  16.331  0.00  0.00    +0.000 A 
ATOM     25  C   UNL     1       4.227   7.320  17.095  0.00  0.00    +0.000 A 
ENDBRANCH  17  20
ENDBRANCH  12  14
TORSDOF 2
ENDMDL
MODEL 6
REMARK VINA RESULT:      -7.3      3.681      8.943
REMARK  Name = 
REMARK  2 active torsions:
REMARK  status: ('A' for Active; 'I' for Inactive)
REMARK    1  A    between atoms: C_12  and  C_13
REMARK    2  A    between atoms: C_16  and  C_17
REMARK                            x       y       z     vdW  Elec       q    Type
REMARK                         _______ _______ _______ _____ _____    ______ ____
ROOT
ATOM      1  O   UNL     1      -1.037   9.642  17.790  0.00  0.00    +0.000 OA
ATOM      2  C   UNL     1      -1.362  10.454  18.635  0.00  0.00    +0.000 C 
ATOM      3  N   UNL     1      -2.479  11.273  18.597  0.00  0.00    +0.000 N 
ATOM      4  C   UNL     1      -2.573  12.066  19.733  0.00  0.00    +0.000 A 
ATOM      5  C   UNL     1      -3.566  12.984  20.014  0.00  0.00    +0.000 A 
ATOM      6  C   UNL     1      -3.474  13.670  21.226  0.00  0.00    +0.000 A 
ATOM      7  C   UNL     1      -2.406  13.423  22.108  0.00  0.00    +0.000 A 
ATOM      8 CL   UNL     1      -2.334  14.287  23.598  0.00  0.00    +0.000 Cl
ATOM      9  C   UNL     1      -1.406  12.493  21.804  0.00  0.00    +0.000 A 
ATOM     10  C   UNL     1      -1.505  11.814  20.601  0.00  0.00    +0.000 A 
ATOM     11  C   UNL     1      -0.680  10.794  19.938  0.00  0.00    +0.000 C 
ATOM     12  C   UNL     1       0.467  10.283  20.401  0.00  0.00    +0.000 C 
ATOM     13  H   UNL     1      -3.130  11.256  17.827  0.00  0.00    +0.000 HD
ENDROOT
BRANCH  12  14
ATOM     14  C   UNL     1       1.288   9.300  19.694  0.00  0.00    +0.000 A 
ATOM     15  C   UNL     1       1.536   8.053  20.266  0.00  0.00    +0.000 A 
ATOM     16  C   UNL     1       2.291   7.098  19.576  0.00  0.00    +0.000 A 
ATOM     17  C   UNL     1       2.807   7.351  18.290  0.00  0.00    +0.000 A 
ATOM     18  C   UNL     1       2.562   8.625  17.745  0.00  0.00    +0.000 A 
ATOM     19  C   UNL     1       1.821   9.591  18.438  0.00  0.00    +0.000 A 
BRANCH  17  20
ATOM     20  C   UNL     1       3.572   6.316  17.550  0.00  0.00    +0.000 A 
ATOM     21  C   UNL     1       4.612   6.668  16.667  0.00  0.00    +0.000 A 
ATOM     22  C   UNL     1       5.320   5.702  15.945  0.00  0.00    +0.000 A 
ATOM     23  C   UNL     1       5.019   4.354  16.104  0.00  0.00    +0.000 A 
ATOM     24  C   UNL     1       4.012   3.974  16.985  0.00  0.00    +0.000 A 
ATOM     25  C   UNL     1       3.296   4.945  17.694  0.00  0.00    +0.000 A 
ENDBRANCH  17  20
ENDBRANCH  12  14
TORSDOF 2
ENDMDL
MODEL 7
REMARK VINA RESULT:      -7.3      1.187      1.509
REMARK  Name = 
REMARK  2 active torsions:
REMARK  status: ('A' for Active; 'I' for Inactive)
REMARK    1  A    between atoms: C_12  and  C_13
REMARK    2  A    between atoms: C_16  and  C_17
REMARK                            x       y       z     vdW  Elec       q    Type
REMARK                         _______ _______ _______ _____ _____    ______ ____
ROOT
ATOM      1  O   UNL     1       1.212   8.646  20.821  0.00  0.00    +0.000 OA
ATOM      2  C   UNL     1       1.835   7.824  20.177  0.00  0.00    +0.000 C 
ATOM      3  N   UNL     1       2.295   6.601  20.639  0.00  0.00    +0.000 N 
ATOM      4  C   UNL     1       2.947   5.888  19.643  0.00  0.00    +0.000 A 
ATOM      5  C   UNL     1       3.516   4.636  19.766  0.00  0.00    +0.000 A 
ATOM      6  C   UNL     1       4.116   4.094  18.628  0.00  0.00    +0.000 A 
ATOM      7  C   UNL     1       4.132   4.811  17.417  0.00  0.00    +0.000 A 
ATOM      8 CL   UNL     1       4.876   4.102  16.034  0.00  0.00    +0.000 Cl
ATOM      9  C   UNL     1       3.555   6.082  17.313  0.00  0.00    +0.000 A 
ATOM     10  C   UNL     1       2.960   6.612  18.444  0.00  0.00    +0.000 A 
ATOM     11  C   UNL     1       2.271   7.878  18.733  0.00  0.00    +0.000 C 
ATOM     12  C   UNL     1       2.086   8.889  17.877  0.00  0.00    +0.000 C 
ATOM     13  H   UNL     1       2.141   6.294  21.587  0.00  0.00    +0.000 HD
ENDROOT
BRANCH  12  14
ATOM     14  C   UNL     1       1.434  10.156  18.209  0.00  0.00    +0.000 A 
ATOM     15  C   UNL     1       0.046  10.224  18.310  0.00  0.00    +0.000 A 
ATOM     16  C   UNL     1      -0.578  11.426  18.664  0.00  0.00    +0.000 A 
ATOM     17  C   UNL     1       0.164  12.590  18.942  0.00  0.00    +0.000 A 
ATOM     18  C   UNL     1       1.562  12.501  18.810  0.00  0.00    +0.000 A 
ATOM     19  C   UNL     1       2.191  11.305  18.441  0.00  0.00    +0.000 A 
BRANCH  17  20
ATOM     20  C   UNL     1      -0.505  13.850  19.356  0.00  0.00    +0.000 A 
ATOM     21  C   UNL     1      -0.122  15.092  18.814  0.00  0.00    +0.000 A 
ATOM     22  C   UNL     1      -0.729  16.287  19.217  0.00  0.00    +0.000 A 
ATOM     23  C   UNL     1      -1.749  16.266  20.161  0.00  0.00    +0.000 A 
ATOM     24  C   UNL     1      -2.163  15.051  20.698  0.00  0.00    +0.000 A 
ATOM     25  C   UNL     1      -1.544  13.861  20.303  0.00  0.00    +0.000 A 
ENDBRANCH  17  20
ENDBRANCH  12  14
TORSDOF 2
ENDMDL
MODEL 8
REMARK VINA RESULT:      -7.3      0.744      1.257
REMARK  Name = 
REMARK  2 active torsions:
REMARK  status: ('A' for Active; 'I' for Inactive)
REMARK    1  A    between atoms: C_12  and  C_13
REMARK    2  A    between atoms: C_16  and  C_17
REMARK                            x       y       z     vdW  Elec       q    Type
REMARK                         _______ _______ _______ _____ _____    ______ ____
ROOT
ATOM      1  O   UNL     1       1.415   8.236  20.711  0.00  0.00    +0.000 OA
ATOM      2  C   UNL     1       2.106   7.538  19.995  0.00  0.00    +0.000 C 
ATOM      3  N   UNL     1       2.702   6.338  20.351  0.00  0.00    +0.000 N 
ATOM      4  C   UNL     1       3.403   5.779  19.291  0.00  0.00    +0.000 A 
ATOM      5  C   UNL     1       4.102   4.588  19.305  0.00  0.00    +0.000 A 
ATOM      6  C   UNL     1       4.729   4.204  18.119  0.00  0.00    +0.000 A 
ATOM      7  C   UNL     1       4.641   5.010  16.969  0.00  0.00    +0.000 A 
ATOM      8 CL   UNL     1       5.424   4.494  15.522  0.00  0.00    +0.000 Cl
ATOM      9  C   UNL     1       3.932   6.216  16.975  0.00  0.00    +0.000 A 
ATOM     10  C   UNL     1       3.311   6.591  18.154  0.00  0.00    +0.000 A 
ATOM     11  C   UNL     1       2.500   7.750  18.553  0.00  0.00    +0.000 C 
ATOM     12  C   UNL     1       2.189   8.799  17.783  0.00  0.00    +0.000 C 
ATOM     13  H   UNL     1       2.604   5.944  21.273  0.00  0.00    +0.000 HD
ENDROOT
BRANCH  12  14
ATOM     14  C   UNL     1       1.416   9.960  18.225  0.00  0.00    +0.000 A 
ATOM     15  C   UNL     1       0.024   9.901  18.260  0.00  0.00    +0.000 A 
ATOM     16  C   UNL     1      -0.717  10.998  18.717  0.00  0.00    +0.000 A 
ATOM     17  C   UNL     1      -0.092  12.176  19.168  0.00  0.00    +0.000 A 
ATOM     18  C   UNL     1       1.313  12.218  19.101  0.00  0.00    +0.000 A 
ATOM     19  C   UNL     1       2.059  11.130  18.628  0.00  0.00    +0.000 A 
BRANCH  17  20
ATOM     20  C   UNL     1      -0.885  13.318  19.689  0.00  0.00    +0.000 A 
ATOM     21  C   UNL     1      -2.073  13.112  20.416  0.00  0.00    +0.000 A 
ATOM     22  C   UNL     1      -2.840  14.182  20.889  0.00  0.00    +0.000 A 
ATOM     23  C   UNL     1      -2.426  15.490  20.661  0.00  0.00    +0.000 A 
ATOM     24  C   UNL     1      -1.245  15.725  19.965  0.00  0.00    +0.000 A 
ATOM     25  C   UNL     1      -0.488  14.652  19.481  0.00  0.00    +0.000 A 
ENDBRANCH  17  20
ENDBRANCH  12  14
TORSDOF 2
ENDMDL
MODEL 9
REMARK VINA RESULT:      -7.2      1.176      1.250
REMARK  Name = 
REMARK  2 active torsions:
REMARK  status: ('A' for Active; 'I' for Inactive)
REMARK    1  A    between atoms: C_12  and  C_13
REMARK    2  A    between atoms: C_16  and  C_17
REMARK                            x       y       z     vdW  Elec       q    Type
REMARK                         _______ _______ _______ _____ _____    ______ ____
ROOT
ATOM      1  O   UNL     1       1.032   7.597  21.052  0.00  0.00    +0.000 OA
ATOM      2  C   UNL     1       1.833   7.206  20.226  0.00  0.00    +0.000 C 
ATOM      3  N   UNL     1       2.602   6.056  20.311  0.00  0.00    +0.000 N 
ATOM      4  C   UNL     1       3.396   5.884  19.186  0.00  0.00    +0.000 A 
ATOM      5  C   UNL     1       4.271   4.843  18.949  0.00  0.00    +0.000 A 
ATOM      6  C   UNL     1       4.968   4.860  17.739  0.00  0.00    +0.000 A 
ATOM      7  C   UNL     1       4.774   5.904  16.816  0.00  0.00    +0.000 A 
ATOM      8 CL   UNL     1       5.649   5.882  15.331  0.00  0.00    +0.000 Cl
ATOM      9  C   UNL     1       3.887   6.954  17.076  0.00  0.00    +0.000 A 
ATOM     10  C   UNL     1       3.197   6.930  18.276  0.00  0.00    +0.000 A 
ATOM     11  C   UNL     1       2.211   7.823  18.901  0.00  0.00    +0.000 C 
ATOM     12  C   UNL     1       1.754   8.973  18.392  0.00  0.00    +0.000 C 
ATOM     13  H   UNL     1       2.552   5.436  21.105  0.00  0.00    +0.000 HD
ENDROOT
BRANCH  12  14
ATOM     14  C   UNL     1       0.804   9.862  19.061  0.00  0.00    +0.000 A 
ATOM     15  C   UNL     1      -0.517   9.935  18.621  0.00  0.00    +0.000 A 
ATOM     16  C   UNL     1      -1.437  10.758  19.281  0.00  0.00    +0.000 A 
ATOM     17  C   UNL     1      -1.072  11.519  20.408  0.00  0.00    +0.000 A 
ATOM     18  C   UNL     1       0.272  11.445  20.818  0.00  0.00    +0.000 A 
ATOM     19  C   UNL     1       1.201  10.637  20.151  0.00  0.00    +0.000 A 
BRANCH  17  20
ATOM     20  C   UNL     1      -2.065  12.357  21.127  0.00  0.00    +0.000 A 
ATOM     21  C   UNL     1      -2.232  12.257  22.522  0.00  0.00    +0.000 A 
ATOM     22  C   UNL     1      -3.183  13.024  23.204  0.00  0.00    +0.000 A 
ATOM     23  C   UNL     1      -3.979  13.927  22.507  0.00  0.00    +0.000 A 
ATOM     24  C   UNL     1      -3.822  14.063  21.131  0.00  0.00    +0.000 A 
ATOM     25  C   UNL     1      -2.880  13.283  20.452  0.00  0.00    +0.000 A 
ENDBRANCH  17  20
ENDBRANCH  12  14
TORSDOF 2
ENDMDL
