MODEL 1
REMARK VINA RESULT:      -6.3      0.000      0.000
REMARK  Name = 
REMARK  13 active torsions:
REMARK  status: ('A' for Active; 'I' for Inactive)
REMARK    1  A    between atoms: C_1  and  O_2
REMARK    2  A    between atoms: O_2  and  C_3
REMARK    3  A    between atoms: C_3  and  C_5
REMARK    4  A    between atoms: C_7  and  C_8
REMARK    5  A    between atoms: C_10  and  O_11
REMARK    6  A    between atoms: O_11  and  C_12
REMARK    7  A    between atoms: C_13  and  O_14
REMARK    8  A    between atoms: O_14  and  C_15
REMARK    9  A    between atoms: C_16  and  O_17
REMARK   10  A    between atoms: O_17  and  C_18
REMARK   11  A    between atoms: C_26  and  O_27
REMARK   12  A    between atoms: C_28  and  O_29
REMARK   13  A    between atoms: O_29  and  C_30
REMARK                            x       y       z     vdW  Elec       q    Type
REMARK                         _______ _______ _______ _____ _____    ______ ____
ROOT
ATOM      1  C   UNL     1       0.280  10.352  19.158  0.00  0.00    +0.000 A 
ATOM      2  C   UNL     1       0.266  11.003  20.379  0.00  0.00    +0.000 A 
ATOM      3  C   UNL     1      -1.003  11.623  20.585  0.00  0.00    +0.000 A 
ATOM      4  C   UNL     1      -1.769  11.372  19.444  0.00  0.00    +0.000 A 
ATOM      5  N   UNL     1      -0.979  10.559  18.626  0.00  0.00    +0.000 N 
ATOM      6  C   UNL     1      -1.488  10.043  17.364  0.00  0.00    +0.000 C 
ATOM      7  C   UNL     1      -2.990   9.746  17.445  0.00  0.00    +0.000 C 
ATOM      8  C   UNL     1      -3.759  10.896  18.048  0.00  0.00    +0.000 A 
ATOM      9  C   UNL     1      -5.104  11.104  17.705  0.00  0.00    +0.000 A 
ATOM     10  C   UNL     1      -5.840  12.129  18.310  0.00  0.00    +0.000 A 
ATOM     11  C   UNL     1      -5.230  12.976  19.236  0.00  0.00    +0.000 A 
ATOM     12  C   UNL     1      -3.870  12.789  19.527  0.00  0.00    +0.000 A 
ATOM     13  C   UNL     1      -3.139  11.713  19.009  0.00  0.00    +0.000 A 
ENDROOT
BRANCH   3  14
ATOM     14  C   UNL     1      -1.386  12.381  21.771  0.00  0.00    +0.000 A 
ATOM     15  C   UNL     1      -0.676  13.539  22.092  0.00  0.00    +0.000 A 
ATOM     16  C   UNL     1      -1.013  14.304  23.218  0.00  0.00    +0.000 A 
ATOM     17  C   UNL     1      -2.116  13.929  24.018  0.00  0.00    +0.000 A 
ATOM     18  C   UNL     1      -2.835  12.758  23.700  0.00  0.00    +0.000 A 
ATOM     19  C   UNL     1      -2.418  11.972  22.618  0.00  0.00    +0.000 A 
BRANCH  16  20
ATOM     20  O   UNL     1      -0.295  15.411  23.608  0.00  0.00    +0.000 OA
ATOM     21  C   UNL     1      -0.173  16.465  22.658  0.00  0.00    +0.000 C 
ENDBRANCH  16  20
BRANCH  17  22
ATOM     22  O   UNL     1      -2.333  14.732  25.116  0.00  0.00    +0.000 OA
ATOM     23  C   UNL     1      -3.286  15.780  25.000  0.00  0.00    +0.000 C 
ENDBRANCH  17  22
BRANCH  18  24
ATOM     24  O   UNL     1      -3.943  12.445  24.443  0.00  0.00    +0.000 OA
ATOM     25  C   UNL     1      -5.215  12.835  23.944  0.00  0.00    +0.000 C 
ENDBRANCH  18  24
ENDBRANCH   3  14
BRANCH   1  26
ATOM     26  C   UNL     1       1.360   9.608  18.556  0.00  0.00    +0.000 C 
ATOM     27  O   UNL     1       1.903   9.854  17.490  0.00  0.00    +0.000 OA
BRANCH  26  29
ATOM     28  C   UNL     1       2.422   7.514  18.713  0.00  0.00    +0.000 C 
ATOM     29  O   UNL     1       1.693   8.553  19.364  0.00  0.00    +0.000 OA
ENDBRANCH  26  29
ENDBRANCH   1  26
BRANCH  10  30
ATOM     30  O   UNL     1      -7.154  12.275  17.964  0.00  0.00    +0.000 OA
ATOM     31  H   UNL     1      -7.341  13.213  17.797  0.00  0.00    +0.000 HD
ENDBRANCH  10  30
BRANCH  11  32
ATOM     32  O   UNL     1      -5.788  13.997  19.958  0.00  0.00    +0.000 OA
ATOM     33  C   UNL     1      -6.838  13.695  20.864  0.00  0.00    +0.000 C 
ENDBRANCH  11  32
TORSDOF 8
ENDMDL
MODEL 2
REMARK VINA RESULT:      -6.2      0.417      2.215
REMARK  Name = 
REMARK  13 active torsions:
REMARK  status: ('A' for Active; 'I' for Inactive)
REMARK    1  A    between atoms: C_1  and  O_2
REMARK    2  A    between atoms: O_2  and  C_3
REMARK    3  A    between atoms: C_3  and  C_5
REMARK    4  A    between atoms: C_7  and  C_8
REMARK    5  A    between atoms: C_10  and  O_11
REMARK    6  A    between atoms: O_11  and  C_12
REMARK    7  A    between atoms: C_13  and  O_14
REMARK    8  A    between atoms: O_14  and  C_15
REMARK    9  A    between atoms: C_16  and  O_17
REMARK   10  A    between atoms: O_17  and  C_18
REMARK   11  A    between atoms: C_26  and  O_27
REMARK   12  A    between atoms: C_28  and  O_29
REMARK   13  A    between atoms: O_29  and  C_30
REMARK                            x       y       z     vdW  Elec       q    Type
REMARK                         _______ _______ _______ _____ _____    ______ ____
ROOT
ATOM      1  C   UNL     1       0.208  10.456  19.172  0.00  0.00    +0.000 A 
ATOM      2  C   UNL     1       0.189  11.122  20.386  0.00  0.00    +0.000 A 
ATOM      3  C   UNL     1      -1.090  11.722  20.591  0.00  0.00    +0.000 A 
ATOM      4  C   UNL     1      -1.857  11.443  19.457  0.00  0.00    +0.000 A 
ATOM      5  N   UNL     1      -1.057  10.634  18.645  0.00  0.00    +0.000 N 
ATOM      6  C   UNL     1      -1.563  10.094  17.392  0.00  0.00    +0.000 C 
ATOM      7  C   UNL     1      -3.059   9.772  17.484  0.00  0.00    +0.000 C 
ATOM      8  C   UNL     1      -3.845  10.915  18.078  0.00  0.00    +0.000 A 
ATOM      9  C   UNL     1      -5.196  11.095  17.739  0.00  0.00    +0.000 A 
ATOM     10  C   UNL     1      -5.947  12.115  18.336  0.00  0.00    +0.000 A 
ATOM     11  C   UNL     1      -5.347  12.984  19.248  0.00  0.00    +0.000 A 
ATOM     12  C   UNL     1      -3.982  12.825  19.534  0.00  0.00    +0.000 A 
ATOM     13  C   UNL     1      -3.236  11.755  19.025  0.00  0.00    +0.000 A 
ENDROOT
BRANCH   3  14
ATOM     14  C   UNL     1      -1.480  12.487  21.770  0.00  0.00    +0.000 A 
ATOM     15  C   UNL     1      -2.594  12.080  22.504  0.00  0.00    +0.000 A 
ATOM     16  C   UNL     1      -3.001  12.780  23.648  0.00  0.00    +0.000 A 
ATOM     17  C   UNL     1      -2.248  13.887  24.099  0.00  0.00    +0.000 A 
ATOM     18  C   UNL     1      -1.123  14.306  23.359  0.00  0.00    +0.000 A 
ATOM     19  C   UNL     1      -0.795  13.635  22.174  0.00  0.00    +0.000 A 
BRANCH  16  20
ATOM     20  O   UNL     1      -4.134  12.453  24.357  0.00  0.00    +0.000 OA
ATOM     21  C   UNL     1      -5.378  12.886  23.819  0.00  0.00    +0.000 C 
ENDBRANCH  16  20
BRANCH  17  22
ATOM     22  O   UNL     1      -2.760  14.520  25.211  0.00  0.00    +0.000 OA
ATOM     23  C   UNL     1      -3.426  15.761  25.026  0.00  0.00    +0.000 C 
ENDBRANCH  17  22
BRANCH  18  24
ATOM     24  O   UNL     1      -0.363  15.338  23.846  0.00  0.00    +0.000 OA
ATOM     25  C   UNL     1       0.132  16.298  22.922  0.00  0.00    +0.000 C 
ENDBRANCH  18  24
ENDBRANCH   3  14
BRANCH   1  26
ATOM     26  C   UNL     1       1.298   9.724  18.573  0.00  0.00    +0.000 C 
ATOM     27  O   UNL     1       1.827   9.963  17.499  0.00  0.00    +0.000 OA
BRANCH  26  29
ATOM     28  C   UNL     1       2.358   7.631  18.745  0.00  0.00    +0.000 C 
ATOM     29  O   UNL     1       1.658   8.690  19.396  0.00  0.00    +0.000 OA
ENDBRANCH  26  29
ENDBRANCH   1  26
BRANCH  10  30
ATOM     30  O   UNL     1      -7.265  12.234  17.995  0.00  0.00    +0.000 OA
ATOM     31  H   UNL     1      -7.349  12.830  17.234  0.00  0.00    +0.000 HD
ENDBRANCH  10  30
BRANCH  11  32
ATOM     32  O   UNL     1      -5.919  14.003  19.961  0.00  0.00    +0.000 OA
ATOM     33  C   UNL     1      -5.078  14.862  20.715  0.00  0.00    +0.000 C 
ENDBRANCH  11  32
TORSDOF 8
ENDMDL
MODEL 3
REMARK VINA RESULT:      -6.0      1.499      5.491
REMARK  Name = 
REMARK  13 active torsions:
REMARK  status: ('A' for Active; 'I' for Inactive)
REMARK    1  A    between atoms: C_1  and  O_2
REMARK    2  A    between atoms: O_2  and  C_3
REMARK    3  A    between atoms: C_3  and  C_5
REMARK    4  A    between atoms: C_7  and  C_8
REMARK    5  A    between atoms: C_10  and  O_11
REMARK    6  A    between atoms: O_11  and  C_12
REMARK    7  A    between atoms: C_13  and  O_14
REMARK    8  A    between atoms: O_14  and  C_15
REMARK    9  A    between atoms: C_16  and  O_17
REMARK   10  A    between atoms: O_17  and  C_18
REMARK   11  A    between atoms: C_26  and  O_27
REMARK   12  A    between atoms: C_28  and  O_29
REMARK   13  A    between atoms: O_29  and  C_30
REMARK                            x       y       z     vdW  Elec       q    Type
REMARK                         _______ _______ _______ _____ _____    ______ ____
ROOT
ATOM      1  C   UNL     1      -4.938  12.238  18.710  0.00  0.00    +0.000 A 
ATOM      2  C   UNL     1      -4.578  13.001  19.808  0.00  0.00    +0.000 A 
ATOM      3  C   UNL     1      -3.253  12.666  20.219  0.00  0.00    +0.000 A 
ATOM      4  C   UNL     1      -2.807  11.650  19.370  0.00  0.00    +0.000 A 
ATOM      5  N   UNL     1      -3.833  11.453  18.441  0.00  0.00    +0.000 N 
ATOM      6  C   UNL     1      -3.686  10.500  17.352  0.00  0.00    +0.000 C 
ATOM      7  C   UNL     1      -2.236  10.434  16.856  0.00  0.00    +0.000 C 
ATOM      8  C   UNL     1      -1.257  10.294  17.995  0.00  0.00    +0.000 A 
ATOM      9  C   UNL     1      -0.023   9.657  17.793  0.00  0.00    +0.000 A 
ATOM     10  C   UNL     1       0.915   9.580  18.829  0.00  0.00    +0.000 A 
ATOM     11  C   UNL     1       0.614  10.108  20.085  0.00  0.00    +0.000 A 
ATOM     12  C   UNL     1      -0.646  10.693  20.287  0.00  0.00    +0.000 A 
ATOM     13  C   UNL     1      -1.561  10.867  19.242  0.00  0.00    +0.000 A 
ENDROOT
BRANCH   3  14
ATOM     14  C   UNL     1      -2.538  13.282  21.332  0.00  0.00    +0.000 A 
ATOM     15  C   UNL     1      -3.233  13.572  22.506  0.00  0.00    +0.000 A 
ATOM     16  C   UNL     1      -2.586  14.157  23.603  0.00  0.00    +0.000 A 
ATOM     17  C   UNL     1      -1.198  14.415  23.544  0.00  0.00    +0.000 A 
ATOM     18  C   UNL     1      -0.490  14.128  22.359  0.00  0.00    +0.000 A 
ATOM     19  C   UNL     1      -1.185  13.622  21.253  0.00  0.00    +0.000 A 
BRANCH  16  20
ATOM     20  O   UNL     1      -3.250  14.523  24.751  0.00  0.00    +0.000 OA
ATOM     21  C   UNL     1      -4.119  15.647  24.662  0.00  0.00    +0.000 C 
ENDBRANCH  16  20
BRANCH  17  22
ATOM     22  O   UNL     1      -0.675  15.023  24.665  0.00  0.00    +0.000 OA
ATOM     23  C   UNL     1      -0.453  16.426  24.622  0.00  0.00    +0.000 C 
ENDBRANCH  17  22
BRANCH  18  24
ATOM     24  O   UNL     1       0.867  14.319  22.340  0.00  0.00    +0.000 OA
ATOM     25  C   UNL     1       1.574  13.982  21.154  0.00  0.00    +0.000 C 
ENDBRANCH  18  24
ENDBRANCH   3  14
BRANCH   1  26
ATOM     26  C   UNL     1      -6.185  12.250  17.986  0.00  0.00    +0.000 C 
ATOM     27  O   UNL     1      -6.373  12.717  16.873  0.00  0.00    +0.000 OA
BRANCH  26  29
ATOM     28  C   UNL     1      -6.960  10.266  18.986  0.00  0.00    +0.000 C 
ATOM     29  O   UNL     1      -7.159  11.657  18.745  0.00  0.00    +0.000 OA
ENDBRANCH  26  29
ENDBRANCH   1  26
BRANCH  10  30
ATOM     30  O   UNL     1       2.114   8.975  18.576  0.00  0.00    +0.000 OA
ATOM     31  H   UNL     1       2.710   9.608  18.145  0.00  0.00    +0.000 HD
ENDBRANCH  10  30
BRANCH  11  32
ATOM     32  O   UNL     1       1.408  10.168  21.199  0.00  0.00    +0.000 OA
ATOM     33  C   UNL     1       1.214   9.207  22.226  0.00  0.00    +0.000 C 
ENDBRANCH  11  32
TORSDOF 8
ENDMDL
MODEL 4
REMARK VINA RESULT:      -6.0      1.494      5.217
REMARK  Name = 
REMARK  13 active torsions:
REMARK  status: ('A' for Active; 'I' for Inactive)
REMARK    1  A    between atoms: C_1  and  O_2
REMARK    2  A    between atoms: O_2  and  C_3
REMARK    3  A    between atoms: C_3  and  C_5
REMARK    4  A    between atoms: C_7  and  C_8
REMARK    5  A    between atoms: C_10  and  O_11
REMARK    6  A    between atoms: O_11  and  C_12
REMARK    7  A    between atoms: C_13  and  O_14
REMARK    8  A    between atoms: O_14  and  C_15
REMARK    9  A    between atoms: C_16  and  O_17
REMARK   10  A    between atoms: O_17  and  C_18
REMARK   11  A    between atoms: C_26  and  O_27
REMARK   12  A    between atoms: C_28  and  O_29
REMARK   13  A    between atoms: O_29  and  C_30
REMARK                            x       y       z     vdW  Elec       q    Type
REMARK                         _______ _______ _______ _____ _____    ______ ____
ROOT
ATOM      1  C   UNL     1      -5.025  12.192  18.453  0.00  0.00    +0.000 A 
ATOM      2  C   UNL     1      -4.754  12.887  19.619  0.00  0.00    +0.000 A 
ATOM      3  C   UNL     1      -3.455  12.540  20.101  0.00  0.00    +0.000 A 
ATOM      4  C   UNL     1      -2.938  11.583  19.223  0.00  0.00    +0.000 A 
ATOM      5  N   UNL     1      -3.894  11.436  18.213  0.00  0.00    +0.000 N 
ATOM      6  C   UNL     1      -3.658  10.555  17.080  0.00  0.00    +0.000 C 
ATOM      7  C   UNL     1      -2.177  10.535  16.684  0.00  0.00    +0.000 C 
ATOM      8  C   UNL     1      -1.278  10.332  17.878  0.00  0.00    +0.000 A 
ATOM      9  C   UNL     1      -0.023   9.721  17.723  0.00  0.00    +0.000 A 
ATOM     10  C   UNL     1       0.841   9.588  18.816  0.00  0.00    +0.000 A 
ATOM     11  C   UNL     1       0.447  10.033  20.078  0.00  0.00    +0.000 A 
ATOM     12  C   UNL     1      -0.832  10.591  20.227  0.00  0.00    +0.000 A 
ATOM     13  C   UNL     1      -1.674  10.823  19.134  0.00  0.00    +0.000 A 
ENDROOT
BRANCH   3  14
ATOM     14  C   UNL     1      -2.828  13.091  21.297  0.00  0.00    +0.000 A 
ATOM     15  C   UNL     1      -1.662  13.847  21.162  0.00  0.00    +0.000 A 
ATOM     16  C   UNL     1      -1.028  14.402  22.282  0.00  0.00    +0.000 A 
ATOM     17  C   UNL     1      -1.599  14.240  23.565  0.00  0.00    +0.000 A 
ATOM     18  C   UNL     1      -2.775  13.474  23.707  0.00  0.00    +0.000 A 
ATOM     19  C   UNL     1      -3.334  12.863  22.578  0.00  0.00    +0.000 A 
BRANCH  16  20
ATOM     20  O   UNL     1       0.158  15.093  22.200  0.00  0.00    +0.000 OA
ATOM     21  C   UNL     1       0.725  15.246  20.902  0.00  0.00    +0.000 C 
ENDBRANCH  16  20
BRANCH  17  22
ATOM     22  O   UNL     1      -0.873  14.798  24.595  0.00  0.00    +0.000 OA
ATOM     23  C   UNL     1      -1.315  16.039  25.127  0.00  0.00    +0.000 C 
ENDBRANCH  17  22
BRANCH  18  24
ATOM     24  O   UNL     1      -3.354  13.383  24.946  0.00  0.00    +0.000 OA
ATOM     25  C   UNL     1      -4.492  12.545  25.093  0.00  0.00    +0.000 C 
ENDBRANCH  18  24
ENDBRANCH   3  14
BRANCH   1  26
ATOM     26  C   UNL     1      -6.220  12.238  17.645  0.00  0.00    +0.000 C 
ATOM     27  O   UNL     1      -7.229  11.569  17.806  0.00  0.00    +0.000 OA
BRANCH  26  29
ATOM     28  C   UNL     1      -6.921  14.284  16.719  0.00  0.00    +0.000 C 
ATOM     29  O   UNL     1      -6.056  13.153  16.640  0.00  0.00    +0.000 OA
ENDBRANCH  26  29
ENDBRANCH   1  26
BRANCH  10  30
ATOM     30  O   UNL     1       2.063   9.011  18.610  0.00  0.00    +0.000 OA
ATOM     31  H   UNL     1       2.185   8.845  17.661  0.00  0.00    +0.000 HD
ENDBRANCH  10  30
BRANCH  11  32
ATOM     32  O   UNL     1       1.161  10.030  21.247  0.00  0.00    +0.000 OA
ATOM     33  C   UNL     1       0.569   9.459  22.404  0.00  0.00    +0.000 C 
ENDBRANCH  11  32
TORSDOF 8
ENDMDL
MODEL 5
REMARK VINA RESULT:      -5.9      1.495      5.181
REMARK  Name = 
REMARK  13 active torsions:
REMARK  status: ('A' for Active; 'I' for Inactive)
REMARK    1  A    between atoms: C_1  and  O_2
REMARK    2  A    between atoms: O_2  and  C_3
REMARK    3  A    between atoms: C_3  and  C_5
REMARK    4  A    between atoms: C_7  and  C_8
REMARK    5  A    between atoms: C_10  and  O_11
REMARK    6  A    between atoms: O_11  and  C_12
REMARK    7  A    between atoms: C_13  and  O_14
REMARK    8  A    between atoms: O_14  and  C_15
REMARK    9  A    between atoms: C_16  and  O_17
REMARK   10  A    between atoms: O_17  and  C_18
REMARK   11  A    between atoms: C_26  and  O_27
REMARK   12  A    between atoms: C_28  and  O_29
REMARK   13  A    between atoms: O_29  and  C_30
REMARK                            x       y       z     vdW  Elec       q    Type
REMARK                         _______ _______ _______ _____ _____    ______ ____
ROOT
ATOM      1  C   UNL     1      -5.000  12.249  18.769  0.00  0.00    +0.000 A 
ATOM      2  C   UNL     1      -4.677  12.990  19.893  0.00  0.00    +0.000 A 
ATOM      3  C   UNL     1      -3.356  12.665  20.326  0.00  0.00    +0.000 A 
ATOM      4  C   UNL     1      -2.876  11.676  19.464  0.00  0.00    +0.000 A 
ATOM      5  N   UNL     1      -3.877  11.487  18.506  0.00  0.00    +0.000 N 
ATOM      6  C   UNL     1      -3.690  10.563  17.399  0.00  0.00    +0.000 C 
ATOM      7  C   UNL     1      -2.229  10.531  16.934  0.00  0.00    +0.000 C 
ATOM      8  C   UNL     1      -1.274  10.378  18.092  0.00  0.00    +0.000 A 
ATOM      9  C   UNL     1      -0.026   9.765  17.903  0.00  0.00    +0.000 A 
ATOM     10  C   UNL     1       0.889   9.677  18.958  0.00  0.00    +0.000 A 
ATOM     11  C   UNL     1       0.553  10.170  20.219  0.00  0.00    +0.000 A 
ATOM     12  C   UNL     1      -0.721  10.730  20.406  0.00  0.00    +0.000 A 
ATOM     13  C   UNL     1      -1.614  10.916  19.345  0.00  0.00    +0.000 A 
ENDROOT
BRANCH   3  14
ATOM     14  C   UNL     1      -2.675  13.265  21.469  0.00  0.00    +0.000 A 
ATOM     15  C   UNL     1      -1.314  13.555  21.370  0.00  0.00    +0.000 A 
ATOM     16  C   UNL     1      -0.620  14.138  22.439  0.00  0.00    +0.000 A 
ATOM     17  C   UNL     1      -1.313  14.485  23.621  0.00  0.00    +0.000 A 
ATOM     18  C   UNL     1      -2.689  14.191  23.728  0.00  0.00    +0.000 A 
ATOM     19  C   UNL     1      -3.331  13.531  22.673  0.00  0.00    +0.000 A 
BRANCH  16  20
ATOM     20  O   UNL     1       0.734  14.375  22.407  0.00  0.00    +0.000 OA
ATOM     21  C   UNL     1       1.428  13.986  21.226  0.00  0.00    +0.000 C 
ENDBRANCH  16  20
BRANCH  17  22
ATOM     22  O   UNL     1      -0.526  15.019  24.617  0.00  0.00    +0.000 OA
ATOM     23  C   UNL     1      -0.483  16.433  24.750  0.00  0.00    +0.000 C 
ENDBRANCH  17  22
BRANCH  18  24
ATOM     24  O   UNL     1      -3.362  14.595  24.852  0.00  0.00    +0.000 OA
ATOM     25  C   UNL     1      -4.120  15.795  24.782  0.00  0.00    +0.000 C 
ENDBRANCH  18  24
ENDBRANCH   3  14
BRANCH   1  26
ATOM     26  C   UNL     1      -6.231  12.259  18.017  0.00  0.00    +0.000 C 
ATOM     27  O   UNL     1      -6.390  12.710  16.893  0.00  0.00    +0.000 OA
BRANCH  26  29
ATOM     28  C   UNL     1      -6.979  10.338  19.150  0.00  0.00    +0.000 C 
ATOM     29  O   UNL     1      -7.226  11.688  18.765  0.00  0.00    +0.000 OA
ENDBRANCH  26  29
ENDBRANCH   1  26
BRANCH  10  30
ATOM     30  O   UNL     1       2.103   9.096  18.717  0.00  0.00    +0.000 OA
ATOM     31  H   UNL     1       2.783   9.538  19.251  0.00  0.00    +0.000 HD
ENDBRANCH  10  30
BRANCH  11  32
ATOM     32  O   UNL     1       1.320  10.215  21.352  0.00  0.00    +0.000 OA
ATOM     33  C   UNL     1       1.073   9.268  22.379  0.00  0.00    +0.000 C 
ENDBRANCH  11  32
TORSDOF 8
ENDMDL
MODEL 6
REMARK VINA RESULT:      -5.8      9.257     12.187
REMARK  Name = 
REMARK  13 active torsions:
REMARK  status: ('A' for Active; 'I' for Inactive)
REMARK    1  A    between atoms: C_1  and  O_2
REMARK    2  A    between atoms: O_2  and  C_3
REMARK    3  A    between atoms: C_3  and  C_5
REMARK    4  A    between atoms: C_7  and  C_8
REMARK    5  A    between atoms: C_10  and  O_11
REMARK    6  A    between atoms: O_11  and  C_12
REMARK    7  A    between atoms: C_13  and  O_14
REMARK    8  A    between atoms: O_14  and  C_15
REMARK    9  A    between atoms: C_16  and  O_17
REMARK   10  A    between atoms: O_17  and  C_18
REMARK   11  A    between atoms: C_26  and  O_27
REMARK   12  A    between atoms: C_28  and  O_29
REMARK   13  A    between atoms: O_29  and  C_30
REMARK                            x       y       z     vdW  Elec       q    Type
REMARK                         _______ _______ _______ _____ _____    ______ ____
ROOT
ATOM      1  C   UNL     1       7.381  12.644  24.993  0.00  0.00    +0.000 A 
ATOM      2  C   UNL     1       8.404  12.278  24.134  0.00  0.00    +0.000 A 
ATOM      3  C   UNL     1       8.293  13.004  22.910  0.00  0.00    +0.000 A 
ATOM      4  C   UNL     1       7.154  13.806  23.013  0.00  0.00    +0.000 A 
ATOM      5  N   UNL     1       6.658  13.599  24.304  0.00  0.00    +0.000 N 
ATOM      6  C   UNL     1       5.498  14.332  24.788  0.00  0.00    +0.000 C 
ATOM      7  C   UNL     1       5.453  15.753  24.214  0.00  0.00    +0.000 C 
ATOM      8  C   UNL     1       5.666  15.763  22.720  0.00  0.00    +0.000 A 
ATOM      9  C   UNL     1       5.114  16.787  21.934  0.00  0.00    +0.000 A 
ATOM     10  C   UNL     1       5.361  16.837  20.558  0.00  0.00    +0.000 A 
ATOM     11  C   UNL     1       6.133  15.847  19.949  0.00  0.00    +0.000 A 
ATOM     12  C   UNL     1       6.632  14.800  20.740  0.00  0.00    +0.000 A 
ATOM     13  C   UNL     1       6.479  14.781  22.131  0.00  0.00    +0.000 A 
ENDROOT
BRANCH   3  14
ATOM     14  C   UNL     1       9.210  12.890  21.780  0.00  0.00    +0.000 A 
ATOM     15  C   UNL     1       9.179  11.735  20.998  0.00  0.00    +0.000 A 
ATOM     16  C   UNL     1      10.036  11.585  19.899  0.00  0.00    +0.000 A 
ATOM     17  C   UNL     1      10.912  12.635  19.542  0.00  0.00    +0.000 A 
ATOM     18  C   UNL     1      10.950  13.803  20.331  0.00  0.00    +0.000 A 
ATOM     19  C   UNL     1      10.141  13.884  21.472  0.00  0.00    +0.000 A 
BRANCH  16  20
ATOM     20  O   UNL     1      10.086  10.435  19.146  0.00  0.00    +0.000 OA
ATOM     21  C   UNL     1       8.842   9.886  18.724  0.00  0.00    +0.000 C 
ENDBRANCH  16  20
BRANCH  17  22
ATOM     22  O   UNL     1      11.731  12.364  18.468  0.00  0.00    +0.000 OA
ATOM     23  C   UNL     1      11.325  12.823  17.185  0.00  0.00    +0.000 C 
ENDBRANCH  17  22
BRANCH  18  24
ATOM     24  O   UNL     1      11.754  14.839  19.934  0.00  0.00    +0.000 OA
ATOM     25  C   UNL     1      11.144  15.952  19.294  0.00  0.00    +0.000 C 
ENDBRANCH  18  24
ENDBRANCH   3  14
BRANCH   1  26
ATOM     26  C   UNL     1       7.114  12.152  26.322  0.00  0.00    +0.000 C 
ATOM     27  O   UNL     1       7.462  12.672  27.371  0.00  0.00    +0.000 OA
BRANCH  26  29
ATOM     28  C   UNL     1       5.027  11.097  26.589  0.00  0.00    +0.000 C 
ATOM     29  O   UNL     1       6.406  10.982  26.242  0.00  0.00    +0.000 OA
ENDBRANCH  26  29
ENDBRANCH   1  26
BRANCH  10  30
ATOM     30  O   UNL     1       4.825  17.869  19.839  0.00  0.00    +0.000 OA
ATOM     31  H   UNL     1       5.537  18.452  19.532  0.00  0.00    +0.000 HD
ENDBRANCH  10  30
BRANCH  11  32
ATOM     32  O   UNL     1       6.519  15.748  18.639  0.00  0.00    +0.000 OA
ATOM     33  C   UNL     1       5.895  14.772  17.818  0.00  0.00    +0.000 C 
ENDBRANCH  11  32
TORSDOF 8
ENDMDL
MODEL 7
REMARK VINA RESULT:      -5.8      2.271      4.905
REMARK  Name = 
REMARK  13 active torsions:
REMARK  status: ('A' for Active; 'I' for Inactive)
REMARK    1  A    between atoms: C_1  and  O_2
REMARK    2  A    between atoms: O_2  and  C_3
REMARK    3  A    between atoms: C_3  and  C_5
REMARK    4  A    between atoms: C_7  and  C_8
REMARK    5  A    between atoms: C_10  and  O_11
REMARK    6  A    between atoms: O_11  and  C_12
REMARK    7  A    between atoms: C_13  and  O_14
REMARK    8  A    between atoms: O_14  and  C_15
REMARK    9  A    between atoms: C_16  and  O_17
REMARK   10  A    between atoms: O_17  and  C_18
REMARK   11  A    between atoms: C_26  and  O_27
REMARK   12  A    between atoms: C_28  and  O_29
REMARK   13  A    between atoms: O_29  and  C_30
REMARK                            x       y       z     vdW  Elec       q    Type
REMARK                         _______ _______ _______ _____ _____    ______ ____
ROOT
ATOM      1  C   UNL     1       0.670  10.476  18.807  0.00  0.00    +0.000 A 
ATOM      2  C   UNL     1      -0.668  10.431  19.162  0.00  0.00    +0.000 A 
ATOM      3  C   UNL     1      -1.134  11.745  19.468  0.00  0.00    +0.000 A 
ATOM      4  C   UNL     1      -0.043  12.607  19.330  0.00  0.00    +0.000 A 
ATOM      5  N   UNL     1       1.016  11.812  18.880  0.00  0.00    +0.000 N 
ATOM      6  C   UNL     1       2.311  12.396  18.564  0.00  0.00    +0.000 C 
ATOM      7  C   UNL     1       2.162  13.804  17.975  0.00  0.00    +0.000 C 
ATOM      8  C   UNL     1       1.232  14.662  18.798  0.00  0.00    +0.000 A 
ATOM      9  C   UNL     1       1.388  16.057  18.815  0.00  0.00    +0.000 A 
ATOM     10  C   UNL     1       0.490  16.862  19.524  0.00  0.00    +0.000 A 
ATOM     11  C   UNL     1      -0.550  16.280  20.250  0.00  0.00    +0.000 A 
ATOM     12  C   UNL     1      -0.659  14.880  20.268  0.00  0.00    +0.000 A 
ATOM     13  C   UNL     1       0.167  14.061  19.490  0.00  0.00    +0.000 A 
ENDROOT
BRANCH   3  14
ATOM     14  C   UNL     1      -2.497  12.082  19.863  0.00  0.00    +0.000 A 
ATOM     15  C   UNL     1      -2.754  12.412  21.194  0.00  0.00    +0.000 A 
ATOM     16  C   UNL     1      -4.047  12.750  21.618  0.00  0.00    +0.000 A 
ATOM     17  C   UNL     1      -5.102  12.807  20.679  0.00  0.00    +0.000 A 
ATOM     18  C   UNL     1      -4.849  12.470  19.333  0.00  0.00    +0.000 A 
ATOM     19  C   UNL     1      -3.563  12.056  18.961  0.00  0.00    +0.000 A 
BRANCH  16  20
ATOM     20  O   UNL     1      -4.355  13.012  22.932  0.00  0.00    +0.000 OA
ATOM     21  C   UNL     1      -3.499  12.447  23.919  0.00  0.00    +0.000 C 
ENDBRANCH  16  20
BRANCH  17  22
ATOM     22  O   UNL     1      -6.334  13.115  21.212  0.00  0.00    +0.000 OA
ATOM     23  C   UNL     1      -7.245  12.050  21.448  0.00  0.00    +0.000 C 
ENDBRANCH  17  22
BRANCH  18  24
ATOM     24  O   UNL     1      -5.865  12.596  18.421  0.00  0.00    +0.000 OA
ATOM     25  C   UNL     1      -5.616  12.189  17.082  0.00  0.00    +0.000 C 
ENDBRANCH  18  24
ENDBRANCH   3  14
BRANCH   1  26
ATOM     26  C   UNL     1       1.531   9.381  18.432  0.00  0.00    +0.000 C 
ATOM     27  O   UNL     1       2.040   9.201  17.337  0.00  0.00    +0.000 OA
BRANCH  26  29
ATOM     28  C   UNL     1       2.366   7.321  19.204  0.00  0.00    +0.000 C 
ATOM     29  O   UNL     1       1.693   8.542  19.503  0.00  0.00    +0.000 OA
ENDBRANCH  26  29
ENDBRANCH   1  26
BRANCH  10  30
ATOM     30  O   UNL     1       0.665  18.218  19.489  0.00  0.00    +0.000 OA
ATOM     31  H   UNL     1       0.181  18.625  20.225  0.00  0.00    +0.000 HD
ENDBRANCH  10  30
BRANCH  11  32
ATOM     32  O   UNL     1      -1.544  16.895  20.964  0.00  0.00    +0.000 OA
ATOM     33  C   UNL     1      -2.372  16.101  21.800  0.00  0.00    +0.000 C 
ENDBRANCH  11  32
TORSDOF 8
ENDMDL
MODEL 8
REMARK VINA RESULT:      -5.8      2.275      5.013
REMARK  Name = 
REMARK  13 active torsions:
REMARK  status: ('A' for Active; 'I' for Inactive)
REMARK    1  A    between atoms: C_1  and  O_2
REMARK    2  A    between atoms: O_2  and  C_3
REMARK    3  A    between atoms: C_3  and  C_5
REMARK    4  A    between atoms: C_7  and  C_8
REMARK    5  A    between atoms: C_10  and  O_11
REMARK    6  A    between atoms: O_11  and  C_12
REMARK    7  A    between atoms: C_13  and  O_14
REMARK    8  A    between atoms: O_14  and  C_15
REMARK    9  A    between atoms: C_16  and  O_17
REMARK   10  A    between atoms: O_17  and  C_18
REMARK   11  A    between atoms: C_26  and  O_27
REMARK   12  A    between atoms: C_28  and  O_29
REMARK   13  A    between atoms: O_29  and  C_30
REMARK                            x       y       z     vdW  Elec       q    Type
REMARK                         _______ _______ _______ _____ _____    ______ ____
ROOT
ATOM      1  C   UNL     1       0.691  10.465  18.858  0.00  0.00    +0.000 A 
ATOM      2  C   UNL     1      -0.636  10.450  19.254  0.00  0.00    +0.000 A 
ATOM      3  C   UNL     1      -1.067  11.777  19.556  0.00  0.00    +0.000 A 
ATOM      4  C   UNL     1       0.035  12.616  19.372  0.00  0.00    +0.000 A 
ATOM      5  N   UNL     1       1.064  11.794  18.903  0.00  0.00    +0.000 N 
ATOM      6  C   UNL     1       2.359  12.349  18.539  0.00  0.00    +0.000 C 
ATOM      7  C   UNL     1       2.219  13.752  17.935  0.00  0.00    +0.000 C 
ATOM      8  C   UNL     1       1.331  14.638  18.773  0.00  0.00    +0.000 A 
ATOM      9  C   UNL     1       1.513  16.030  18.766  0.00  0.00    +0.000 A 
ATOM     10  C   UNL     1       0.652  16.862  19.490  0.00  0.00    +0.000 A 
ATOM     11  C   UNL     1      -0.375  16.310  20.255  0.00  0.00    +0.000 A 
ATOM     12  C   UNL     1      -0.510  14.913  20.296  0.00  0.00    +0.000 A 
ATOM     13  C   UNL     1       0.277  14.067  19.505  0.00  0.00    +0.000 A 
ENDROOT
BRANCH   3  14
ATOM     14  C   UNL     1      -2.412  12.145  19.987  0.00  0.00    +0.000 A 
ATOM     15  C   UNL     1      -3.466  12.042  19.078  0.00  0.00    +0.000 A 
ATOM     16  C   UNL     1      -4.775  12.378  19.450  0.00  0.00    +0.000 A 
ATOM     17  C   UNL     1      -5.047  12.781  20.777  0.00  0.00    +0.000 A 
ATOM     18  C   UNL     1      -3.986  12.890  21.699  0.00  0.00    +0.000 A 
ATOM     19  C   UNL     1      -2.678  12.628  21.270  0.00  0.00    +0.000 A 
BRANCH  16  20
ATOM     20  O   UNL     1      -5.828  12.358  18.565  0.00  0.00    +0.000 OA
ATOM     21  C   UNL     1      -6.288  11.079  18.141  0.00  0.00    +0.000 C 
ENDBRANCH  16  20
BRANCH  17  22
ATOM     22  O   UNL     1      -6.360  13.120  21.020  0.00  0.00    +0.000 OA
ATOM     23  C   UNL     1      -7.197  12.151  21.637  0.00  0.00    +0.000 C 
ENDBRANCH  17  22
BRANCH  18  24
ATOM     24  O   UNL     1      -4.274  13.215  22.999  0.00  0.00    +0.000 OA
ATOM     25  C   UNL     1      -3.755  12.383  24.027  0.00  0.00    +0.000 C 
ENDBRANCH  18  24
ENDBRANCH   3  14
BRANCH   1  26
ATOM     26  C   UNL     1       1.519   9.348  18.473  0.00  0.00    +0.000 C 
ATOM     27  O   UNL     1       2.024   9.164  17.377  0.00  0.00    +0.000 OA
BRANCH  26  29
ATOM     28  C   UNL     1       2.362   7.291  19.243  0.00  0.00    +0.000 C 
ATOM     29  O   UNL     1       1.655   8.494  19.536  0.00  0.00    +0.000 OA
ENDBRANCH  26  29
ENDBRANCH   1  26
BRANCH  10  30
ATOM     30  O   UNL     1       0.852  18.213  19.430  0.00  0.00    +0.000 OA
ATOM     31  H   UNL     1       1.685  18.395  18.966  0.00  0.00    +0.000 HD
ENDBRANCH  10  30
BRANCH  11  32
ATOM     32  O   UNL     1      -1.335  16.953  20.990  0.00  0.00    +0.000 OA
ATOM     33  C   UNL     1      -1.985  16.242  22.032  0.00  0.00    +0.000 C 
ENDBRANCH  11  32
TORSDOF 8
ENDMDL
MODEL 9
REMARK VINA RESULT:      -5.8      2.447      6.962
REMARK  Name = 
REMARK  13 active torsions:
REMARK  status: ('A' for Active; 'I' for Inactive)
REMARK    1  A    between atoms: C_1  and  O_2
REMARK    2  A    between atoms: O_2  and  C_3
REMARK    3  A    between atoms: C_3  and  C_5
REMARK    4  A    between atoms: C_7  and  C_8
REMARK    5  A    between atoms: C_10  and  O_11
REMARK    6  A    between atoms: O_11  and  C_12
REMARK    7  A    between atoms: C_13  and  O_14
REMARK    8  A    between atoms: O_14  and  C_15
REMARK    9  A    between atoms: C_16  and  O_17
REMARK   10  A    between atoms: O_17  and  C_18
REMARK   11  A    between atoms: C_26  and  O_27
REMARK   12  A    between atoms: C_28  and  O_29
REMARK   13  A    between atoms: O_29  and  C_30
REMARK                            x       y       z     vdW  Elec       q    Type
REMARK                         _______ _______ _______ _____ _____    ______ ____
ROOT
ATOM      1  C   UNL     1      -5.473  12.302  20.539  0.00  0.00    +0.000 A 
ATOM      2  C   UNL     1      -4.314  12.253  19.783  0.00  0.00    +0.000 A 
ATOM      3  C   UNL     1      -3.233  12.830  20.514  0.00  0.00    +0.000 A 
ATOM      4  C   UNL     1      -3.755  13.273  21.732  0.00  0.00    +0.000 A 
ATOM      5  N   UNL     1      -5.100  12.891  21.731  0.00  0.00    +0.000 N 
ATOM      6  C   UNL     1      -5.950  13.137  22.886  0.00  0.00    +0.000 C 
ATOM      7  C   UNL     1      -5.164  13.017  24.197  0.00  0.00    +0.000 C 
ATOM      8  C   UNL     1      -3.871  13.792  24.151  0.00  0.00    +0.000 A 
ATOM      9  C   UNL     1      -3.307  14.299  25.333  0.00  0.00    +0.000 A 
ATOM     10  C   UNL     1      -2.076  14.963  25.304  0.00  0.00    +0.000 A 
ATOM     11  C   UNL     1      -1.414  15.157  24.092  0.00  0.00    +0.000 A 
ATOM     12  C   UNL     1      -2.017  14.693  22.912  0.00  0.00    +0.000 A 
ATOM     13  C   UNL     1      -3.198  13.943  22.926  0.00  0.00    +0.000 A 
ENDROOT
BRANCH   3  14
ATOM     14  C   UNL     1      -1.857  12.934  20.039  0.00  0.00    +0.000 A 
ATOM     15  C   UNL     1      -1.054  11.793  20.039  0.00  0.00    +0.000 A 
ATOM     16  C   UNL     1       0.271  11.843  19.584  0.00  0.00    +0.000 A 
ATOM     17  C   UNL     1       0.793  13.052  19.071  0.00  0.00    +0.000 A 
ATOM     18  C   UNL     1      -0.013  14.209  19.072  0.00  0.00    +0.000 A 
ATOM     19  C   UNL     1      -1.304  14.143  19.612  0.00  0.00    +0.000 A 
BRANCH  16  20
ATOM     20  O   UNL     1       1.117  10.759  19.633  0.00  0.00    +0.000 OA
ATOM     21  C   UNL     1       0.830   9.763  20.610  0.00  0.00    +0.000 C 
ENDBRANCH  16  20
BRANCH  17  22
ATOM     22  O   UNL     1       2.114  12.994  18.686  0.00  0.00    +0.000 OA
ATOM     23  C   UNL     1       3.056  13.773  19.410  0.00  0.00    +0.000 C 
ENDBRANCH  17  22
BRANCH  18  24
ATOM     24  O   UNL     1       0.482  15.356  18.509  0.00  0.00    +0.000 OA
ATOM     25  C   UNL     1      -0.291  16.544  18.618  0.00  0.00    +0.000 C 
ENDBRANCH  18  24
ENDBRANCH   3  14
BRANCH   1  26
ATOM     26  C   UNL     1      -6.791  11.838  20.180  0.00  0.00    +0.000 C 
ATOM     27  O   UNL     1      -7.600  12.425  19.477  0.00  0.00    +0.000 OA
BRANCH  26  29
ATOM     28  C   UNL     1      -7.125   9.533  19.846  0.00  0.00    +0.000 C 
ATOM     29  O   UNL     1      -7.020  10.620  20.763  0.00  0.00    +0.000 OA
ENDBRANCH  26  29
ENDBRANCH   1  26
BRANCH  10  30
ATOM     30  O   UNL     1      -1.554  15.414  26.484  0.00  0.00    +0.000 OA
ATOM     31  H   UNL     1      -0.608  15.201  26.520  0.00  0.00    +0.000 HD
ENDBRANCH  10  30
BRANCH  11  32
ATOM     32  O   UNL     1      -0.194  15.738  23.867  0.00  0.00    +0.000 OA
ATOM     33  C   UNL     1       0.396  15.605  22.583  0.00  0.00    +0.000 C 
ENDBRANCH  11  32
TORSDOF 8
ENDMDL
