MODEL 1
REMARK VINA RESULT:      -7.6      0.000      0.000
REMARK  Name = 
REMARK  3 active torsions:
REMARK  status: ('A' for Active; 'I' for Inactive)
REMARK    1  A    between atoms: C_1  and  C_2
REMARK    2  A    between atoms: C_2  and  C_3
REMARK    3  A    between atoms: C_3  and  N_4
REMARK                            x       y       z     vdW  Elec       q    Type
REMARK                         _______ _______ _______ _____ _____    ______ ____
ROOT
ATOM      1  N   UNL     1       1.859   7.172  20.087  0.00  0.00    +0.000 N 
ATOM      2  C   UNL     1       2.178   8.142  19.149  0.00  0.00    +0.000 A 
ATOM      3  C   UNL     1       3.016   7.861  18.044  0.00  0.00    +0.000 A 
ATOM      4  C   UNL     1       3.502   6.564  17.930  0.00  0.00    +0.000 A 
ATOM      5  C   UNL     1       4.323   5.920  17.019  0.00  0.00    +0.000 A 
ATOM      6  C   UNL     1       4.965   6.370  15.868  0.00  0.00    +0.000 A 
ATOM      7  C   UNL     1       5.748   5.447  15.149  0.00  0.00    +0.000 A 
ATOM      8  C   UNL     1       5.871   4.110  15.591  0.00  0.00    +0.000 A 
ATOM      9  C   UNL     1       5.214   3.674  16.755  0.00  0.00    +0.000 A 
ATOM     10  C   UNL     1       4.442   4.604  17.457  0.00  0.00    +0.000 A 
ATOM     11  N   UNL     1       3.723   4.430  18.595  0.00  0.00    +0.000 N 
ATOM     12  C   UNL     1       3.502   3.351  19.416  0.00  0.00    +0.000 A 
ATOM     13  O   UNL     1       3.994   2.263  19.177  0.00  0.00    +0.000 OA
ATOM     14  C   UNL     1       2.685   3.533  20.550  0.00  0.00    +0.000 A 
ATOM     15  C   UNL     1       2.118   4.802  20.820  0.00  0.00    +0.000 A 
ATOM     16  C   UNL     1       2.362   5.890  19.947  0.00  0.00    +0.000 A 
ATOM     17  C   UNL     1       3.174   5.624  18.857  0.00  0.00    +0.000 A 
ENDROOT
BRANCH   1  18
ATOM     18  C   UNL     1       0.974   7.545  21.205  0.00  0.00    +0.000 C 
BRANCH  18  20
ATOM     19  C   UNL     1       0.210   9.433  22.692  0.00  0.00    +0.000 C 
ATOM     20  C   UNL     1       0.975   9.063  21.423  0.00  0.00    +0.000 C 
ENDBRANCH  18  20
ENDBRANCH   1  18
TORSDOF 2
ENDMDL
MODEL 2
REMARK VINA RESULT:      -7.3      1.365      5.638
REMARK  Name = 
REMARK  3 active torsions:
REMARK  status: ('A' for Active; 'I' for Inactive)
REMARK    1  A    between atoms: C_1  and  C_2
REMARK    2  A    between atoms: C_2  and  C_3
REMARK    3  A    between atoms: C_3  and  N_4
REMARK                            x       y       z     vdW  Elec       q    Type
REMARK                         _______ _______ _______ _____ _____    ______ ____
ROOT
ATOM      1  N   UNL     1       5.163   4.502  16.198  0.00  0.00    +0.000 N 
ATOM      2  C   UNL     1       5.159   5.865  15.945  0.00  0.00    +0.000 A 
ATOM      3  C   UNL     1       4.410   6.767  16.737  0.00  0.00    +0.000 A 
ATOM      4  C   UNL     1       3.682   6.231  17.792  0.00  0.00    +0.000 A 
ATOM      5  C   UNL     1       2.853   6.770  18.763  0.00  0.00    +0.000 A 
ATOM      6  C   UNL     1       2.452   8.079  19.017  0.00  0.00    +0.000 A 
ATOM      7  C   UNL     1       1.580   8.299  20.101  0.00  0.00    +0.000 A 
ATOM      8  C   UNL     1       1.135   7.220  20.897  0.00  0.00    +0.000 A 
ATOM      9  C   UNL     1       1.552   5.905  20.624  0.00  0.00    +0.000 A 
ATOM     10  C   UNL     1       2.416   5.705  19.544  0.00  0.00    +0.000 A 
ATOM     11  N   UNL     1       2.951   4.545  19.084  0.00  0.00    +0.000 N 
ATOM     12  C   UNL     1       2.850   3.235  19.483  0.00  0.00    +0.000 A 
ATOM     13  O   UNL     1       2.173   2.917  20.445  0.00  0.00    +0.000 OA
ATOM     14  C   UNL     1       3.554   2.258  18.751  0.00  0.00    +0.000 A 
ATOM     15  C   UNL     1       4.337   2.637  17.634  0.00  0.00    +0.000 A 
ATOM     16  C   UNL     1       4.424   3.998  17.255  0.00  0.00    +0.000 A 
ATOM     17  C   UNL     1       3.702   4.892  18.029  0.00  0.00    +0.000 A 
ENDROOT
BRANCH   1  18
ATOM     18  C   UNL     1       5.975   3.631  15.329  0.00  0.00    +0.000 C 
BRANCH  18  20
ATOM     19  C   UNL     1       6.018   3.576  12.809  0.00  0.00    +0.000 C 
ATOM     20  C   UNL     1       6.401   4.371  14.055  0.00  0.00    +0.000 C 
ENDBRANCH  18  20
ENDBRANCH   1  18
TORSDOF 2
ENDMDL
MODEL 3
REMARK VINA RESULT:      -7.1      1.368      5.549
REMARK  Name = 
REMARK  3 active torsions:
REMARK  status: ('A' for Active; 'I' for Inactive)
REMARK    1  A    between atoms: C_1  and  C_2
REMARK    2  A    between atoms: C_2  and  C_3
REMARK    3  A    between atoms: C_3  and  N_4
REMARK                            x       y       z     vdW  Elec       q    Type
REMARK                         _______ _______ _______ _____ _____    ______ ____
ROOT
ATOM      1  N   UNL     1       4.971   4.930  16.701  0.00  0.00    +0.000 N 
ATOM      2  C   UNL     1       4.859   6.178  16.110  0.00  0.00    +0.000 A 
ATOM      3  C   UNL     1       4.068   7.204  16.681  0.00  0.00    +0.000 A 
ATOM      4  C   UNL     1       3.413   6.911  17.871  0.00  0.00    +0.000 A 
ATOM      5  C   UNL     1       2.574   7.627  18.710  0.00  0.00    +0.000 A 
ATOM      6  C   UNL     1       2.084   8.929  18.642  0.00  0.00    +0.000 A 
ATOM      7  C   UNL     1       1.230   9.363  19.674  0.00  0.00    +0.000 A 
ATOM      8  C   UNL     1       0.889   8.498  20.738  0.00  0.00    +0.000 A 
ATOM      9  C   UNL     1       1.395   7.187  20.789  0.00  0.00    +0.000 A 
ATOM     10  C   UNL     1       2.240   6.772  19.756  0.00  0.00    +0.000 A 
ATOM     11  N   UNL     1       2.846   5.570  19.581  0.00  0.00    +0.000 N 
ATOM     12  C   UNL     1       2.854   4.403  20.305  0.00  0.00    +0.000 A 
ATOM     13  O   UNL     1       2.231   4.300  21.346  0.00  0.00    +0.000 OA
ATOM     14  C   UNL     1       3.608   3.318  19.813  0.00  0.00    +0.000 A 
ATOM     15  C   UNL     1       4.328   3.447  18.601  0.00  0.00    +0.000 A 
ATOM     16  C   UNL     1       4.302   4.668  17.885  0.00  0.00    +0.000 A 
ATOM     17  C   UNL     1       3.539   5.682  18.439  0.00  0.00    +0.000 A 
ENDROOT
BRANCH   1  18
ATOM     18  C   UNL     1       5.820   3.919  16.044  0.00  0.00    +0.000 C 
BRANCH  18  20
ATOM     19  C   UNL     1       6.297   3.877  13.569  0.00  0.00    +0.000 C 
ATOM     20  C   UNL     1       6.632   4.542  14.902  0.00  0.00    +0.000 C 
ENDBRANCH  18  20
ENDBRANCH   1  18
TORSDOF 2
ENDMDL
MODEL 4
REMARK VINA RESULT:      -7.1      2.430      3.917
REMARK  Name = 
REMARK  3 active torsions:
REMARK  status: ('A' for Active; 'I' for Inactive)
REMARK    1  A    between atoms: C_1  and  C_2
REMARK    2  A    between atoms: C_2  and  C_3
REMARK    3  A    between atoms: C_3  and  N_4
REMARK                            x       y       z     vdW  Elec       q    Type
REMARK                         _______ _______ _______ _____ _____    ______ ____
ROOT
ATOM      1  N   UNL     1       1.792   3.332  19.086  0.00  0.00    +0.000 N 
ATOM      2  C   UNL     1       2.325   2.194  18.501  0.00  0.00    +0.000 A 
ATOM      3  C   UNL     1       3.364   2.267  17.542  0.00  0.00    +0.000 A 
ATOM      4  C   UNL     1       3.837   3.532  17.216  0.00  0.00    +0.000 A 
ATOM      5  C   UNL     1       4.813   4.002  16.351  0.00  0.00    +0.000 A 
ATOM      6  C   UNL     1       5.680   3.342  15.484  0.00  0.00    +0.000 A 
ATOM      7  C   UNL     1       6.568   4.125  14.723  0.00  0.00    +0.000 A 
ATOM      8  C   UNL     1       6.572   5.533  14.844  0.00  0.00    +0.000 A 
ATOM      9  C   UNL     1       5.689   6.181  15.727  0.00  0.00    +0.000 A 
ATOM     10  C   UNL     1       4.814   5.388  16.474  0.00  0.00    +0.000 A 
ATOM     11  N   UNL     1       3.878   5.772  17.379  0.00  0.00    +0.000 N 
ATOM     12  C   UNL     1       3.478   6.994  17.864  0.00  0.00    +0.000 A 
ATOM     13  O   UNL     1       4.001   8.026  17.485  0.00  0.00    +0.000 OA
ATOM     14  C   UNL     1       2.442   7.025  18.819  0.00  0.00    +0.000 A 
ATOM     15  C   UNL     1       1.840   5.820  19.252  0.00  0.00    +0.000 A 
ATOM     16  C   UNL     1       2.283   4.578  18.736  0.00  0.00    +0.000 A 
ATOM     17  C   UNL     1       3.305   4.637  17.803  0.00  0.00    +0.000 A 
ENDROOT
BRANCH   1  18
ATOM     18  C   UNL     1       0.716   3.168  20.080  0.00  0.00    +0.000 C 
BRANCH  18  20
ATOM     19  C   UNL     1       2.381   3.360  21.964  0.00  0.00    +0.000 C 
ATOM     20  C   UNL     1       1.251   2.525  21.366  0.00  0.00    +0.000 C 
ENDBRANCH  18  20
ENDBRANCH   1  18
TORSDOF 2
ENDMDL
MODEL 5
REMARK VINA RESULT:      -7.1      1.422      5.331
REMARK  Name = 
REMARK  3 active torsions:
REMARK  status: ('A' for Active; 'I' for Inactive)
REMARK    1  A    between atoms: C_1  and  C_2
REMARK    2  A    between atoms: C_2  and  C_3
REMARK    3  A    between atoms: C_3  and  N_4
REMARK                            x       y       z     vdW  Elec       q    Type
REMARK                         _______ _______ _______ _____ _____    ______ ____
ROOT
ATOM      1  N   UNL     1       4.816   5.001  16.988  0.00  0.00    +0.000 N 
ATOM      2  C   UNL     1       4.694   6.274  16.453  0.00  0.00    +0.000 A 
ATOM      3  C   UNL     1       3.881   7.262  17.058  0.00  0.00    +0.000 A 
ATOM      4  C   UNL     1       3.213   6.906  18.223  0.00  0.00    +0.000 A 
ATOM      5  C   UNL     1       2.352   7.571  19.082  0.00  0.00    +0.000 A 
ATOM      6  C   UNL     1       1.846   8.868  19.066  0.00  0.00    +0.000 A 
ATOM      7  C   UNL     1       0.971   9.243  20.104  0.00  0.00    +0.000 A 
ATOM      8  C   UNL     1       0.626   8.325  21.122  0.00  0.00    +0.000 A 
ATOM      9  C   UNL     1       1.149   7.020  21.120  0.00  0.00    +0.000 A 
ATOM     10  C   UNL     1       2.016   6.664  20.083  0.00  0.00    +0.000 A 
ATOM     11  N   UNL     1       2.641   5.480  19.862  0.00  0.00    +0.000 N 
ATOM     12  C   UNL     1       2.654   4.281  20.532  0.00  0.00    +0.000 A 
ATOM     13  O   UNL     1       2.018   4.122  21.558  0.00  0.00    +0.000 OA
ATOM     14  C   UNL     1       3.430   3.230  20.002  0.00  0.00    +0.000 A 
ATOM     15  C   UNL     1       4.166   3.424  18.808  0.00  0.00    +0.000 A 
ATOM     16  C   UNL     1       4.133   4.676  18.148  0.00  0.00    +0.000 A 
ATOM     17  C   UNL     1       3.348   5.654  18.737  0.00  0.00    +0.000 A 
ENDROOT
BRANCH   1  18
ATOM     18  C   UNL     1       5.688   4.033  16.299  0.00  0.00    +0.000 C 
BRANCH  18  20
ATOM     19  C   UNL     1       7.718   4.571  17.694  0.00  0.00    +0.000 C 
ATOM     20  C   UNL     1       7.142   4.521  16.280  0.00  0.00    +0.000 C 
ENDBRANCH  18  20
ENDBRANCH   1  18
TORSDOF 2
ENDMDL
MODEL 6
REMARK VINA RESULT:      -6.9      2.281      3.857
REMARK  Name = 
REMARK  3 active torsions:
REMARK  status: ('A' for Active; 'I' for Inactive)
REMARK    1  A    between atoms: C_1  and  C_2
REMARK    2  A    between atoms: C_2  and  C_3
REMARK    3  A    between atoms: C_3  and  N_4
REMARK                            x       y       z     vdW  Elec       q    Type
REMARK                         _______ _______ _______ _____ _____    ______ ____
ROOT
ATOM      1  N   UNL     1       3.088   3.856  20.400  0.00  0.00    +0.000 N 
ATOM      2  C   UNL     1       3.840   2.761  20.007  0.00  0.00    +0.000 A 
ATOM      3  C   UNL     1       4.604   2.771  18.815  0.00  0.00    +0.000 A 
ATOM      4  C   UNL     1       4.576   3.933  18.054  0.00  0.00    +0.000 A 
ATOM      5  C   UNL     1       5.171   4.320  16.864  0.00  0.00    +0.000 A 
ATOM      6  C   UNL     1       6.028   3.649  15.994  0.00  0.00    +0.000 A 
ATOM      7  C   UNL     1       6.460   4.334  14.842  0.00  0.00    +0.000 A 
ATOM      8  C   UNL     1       6.034   5.657  14.589  0.00  0.00    +0.000 A 
ATOM      9  C   UNL     1       5.170   6.318  15.480  0.00  0.00    +0.000 A 
ATOM     10  C   UNL     1       4.750   5.623  16.618  0.00  0.00    +0.000 A 
ATOM     11  N   UNL     1       3.925   6.038  17.614  0.00  0.00    +0.000 N 
ATOM     12  C   UNL     1       3.252   7.210  17.855  0.00  0.00    +0.000 A 
ATOM     13  O   UNL     1       3.336   8.156  17.093  0.00  0.00    +0.000 OA
ATOM     14  C   UNL     1       2.457   7.295  19.015  0.00  0.00    +0.000 A 
ATOM     15  C   UNL     1       2.365   6.190  19.895  0.00  0.00    +0.000 A 
ATOM     16  C   UNL     1       3.079   4.999  19.618  0.00  0.00    +0.000 A 
ATOM     17  C   UNL     1       3.837   5.001  18.458  0.00  0.00    +0.000 A 
ENDROOT
BRANCH   1  18
ATOM     18  C   UNL     1       2.326   3.766  21.659  0.00  0.00    +0.000 C 
BRANCH  18  20
ATOM     19  C   UNL     1       0.474   2.885  20.192  0.00  0.00    +0.000 C 
ATOM     20  C   UNL     1       1.184   2.750  21.537  0.00  0.00    +0.000 C 
ENDBRANCH  18  20
ENDBRANCH   1  18
TORSDOF 2
ENDMDL
MODEL 7
REMARK VINA RESULT:      -6.9      2.266      6.170
REMARK  Name = 
REMARK  3 active torsions:
REMARK  status: ('A' for Active; 'I' for Inactive)
REMARK    1  A    between atoms: C_1  and  C_2
REMARK    2  A    between atoms: C_2  and  C_3
REMARK    3  A    between atoms: C_3  and  N_4
REMARK                            x       y       z     vdW  Elec       q    Type
REMARK                         _______ _______ _______ _____ _____    ______ ____
ROOT
ATOM      1  N   UNL     1       5.149   4.948  16.055  0.00  0.00    +0.000 N 
ATOM      2  C   UNL     1       5.207   3.574  16.228  0.00  0.00    +0.000 A 
ATOM      3  C   UNL     1       4.500   2.923  17.267  0.00  0.00    +0.000 A 
ATOM      4  C   UNL     1       3.733   3.721  18.108  0.00  0.00    +0.000 A 
ATOM      5  C   UNL     1       2.924   3.465  19.203  0.00  0.00    +0.000 A 
ATOM      6  C   UNL     1       2.595   2.281  19.858  0.00  0.00    +0.000 A 
ATOM      7  C   UNL     1       1.731   2.363  20.967  0.00  0.00    +0.000 A 
ATOM      8  C   UNL     1       1.221   3.611  21.391  0.00  0.00    +0.000 A 
ATOM      9  C   UNL     1       1.564   4.796  20.716  0.00  0.00    +0.000 A 
ATOM     10  C   UNL     1       2.423   4.696  19.618  0.00  0.00    +0.000 A 
ATOM     11  N   UNL     1       2.897   5.682  18.814  0.00  0.00    +0.000 N 
ATOM     12  C   UNL     1       2.716   7.043  18.783  0.00  0.00    +0.000 A 
ATOM     13  O   UNL     1       1.997   7.604  19.590  0.00  0.00    +0.000 OA
ATOM     14  C   UNL     1       3.386   7.782  17.788  0.00  0.00    +0.000 A 
ATOM     15  C   UNL     1       4.221   7.121  16.855  0.00  0.00    +0.000 A 
ATOM     16  C   UNL     1       4.378   5.715  16.913  0.00  0.00    +0.000 A 
ATOM     17  C   UNL     1       3.684   5.067  17.921  0.00  0.00    +0.000 A 
ENDROOT
BRANCH   1  18
ATOM     18  C   UNL     1       5.910   5.546  14.944  0.00  0.00    +0.000 C 
BRANCH  18  20
ATOM     19  C   UNL     1       6.363   3.958  13.038  0.00  0.00    +0.000 C 
ATOM     20  C   UNL     1       6.897   4.535  14.348  0.00  0.00    +0.000 C 
ENDBRANCH  18  20
ENDBRANCH   1  18
TORSDOF 2
ENDMDL
MODEL 8
REMARK VINA RESULT:      -6.9      1.832      4.045
REMARK  Name = 
REMARK  3 active torsions:
REMARK  status: ('A' for Active; 'I' for Inactive)
REMARK    1  A    between atoms: C_1  and  C_2
REMARK    2  A    between atoms: C_2  and  C_3
REMARK    3  A    between atoms: C_3  and  N_4
REMARK                            x       y       z     vdW  Elec       q    Type
REMARK                         _______ _______ _______ _____ _____    ______ ____
ROOT
ATOM      1  N   UNL     1       1.410   8.801  19.644  0.00  0.00    +0.000 N 
ATOM      2  C   UNL     1       0.827   8.322  20.806  0.00  0.00    +0.000 A 
ATOM      3  C   UNL     1       1.050   7.000  21.262  0.00  0.00    +0.000 A 
ATOM      4  C   UNL     1       1.890   6.200  20.497  0.00  0.00    +0.000 A 
ATOM      5  C   UNL     1       2.340   4.894  20.608  0.00  0.00    +0.000 A 
ATOM      6  C   UNL     1       2.093   3.905  21.557  0.00  0.00    +0.000 A 
ATOM      7  C   UNL     1       2.713   2.654  21.377  0.00  0.00    +0.000 A 
ATOM      8  C   UNL     1       3.557   2.422  20.267  0.00  0.00    +0.000 A 
ATOM      9  C   UNL     1       3.795   3.434  19.320  0.00  0.00    +0.000 A 
ATOM     10  C   UNL     1       3.171   4.669  19.514  0.00  0.00    +0.000 A 
ATOM     11  N   UNL     1       3.240   5.789  18.749  0.00  0.00    +0.000 N 
ATOM     12  C   UNL     1       3.904   6.099  17.588  0.00  0.00    +0.000 A 
ATOM     13  O   UNL     1       4.621   5.286  17.033  0.00  0.00    +0.000 OA
ATOM     14  C   UNL     1       3.739   7.391  17.050  0.00  0.00    +0.000 A 
ATOM     15  C   UNL     1       2.904   8.329  17.702  0.00  0.00    +0.000 A 
ATOM     16  C   UNL     1       2.239   7.976  18.902  0.00  0.00    +0.000 A 
ATOM     17  C   UNL     1       2.458   6.688  19.361  0.00  0.00    +0.000 A 
ENDROOT
BRANCH   1  18
ATOM     18  C   UNL     1       1.131  10.192  19.243  0.00  0.00    +0.000 C 
BRANCH  18  20
ATOM     19  C   UNL     1      -0.970  10.067  17.855  0.00  0.00    +0.000 C 
ATOM     20  C   UNL     1      -0.378  10.460  19.207  0.00  0.00    +0.000 C 
ENDBRANCH  18  20
ENDBRANCH   1  18
TORSDOF 2
ENDMDL
MODEL 9
REMARK VINA RESULT:      -6.7      1.642      3.997
REMARK  Name = 
REMARK  3 active torsions:
REMARK  status: ('A' for Active; 'I' for Inactive)
REMARK    1  A    between atoms: C_1  and  C_2
REMARK    2  A    between atoms: C_2  and  C_3
REMARK    3  A    between atoms: C_3  and  N_4
REMARK                            x       y       z     vdW  Elec       q    Type
REMARK                         _______ _______ _______ _____ _____    ______ ____
ROOT
ATOM      1  N   UNL     1       2.224   8.438  18.657  0.00  0.00    +0.000 N 
ATOM      2  C   UNL     1       1.465   8.249  19.801  0.00  0.00    +0.000 A 
ATOM      3  C   UNL     1       1.483   7.026  20.513  0.00  0.00    +0.000 A 
ATOM      4  C   UNL     1       2.304   6.018  20.022  0.00  0.00    +0.000 A 
ATOM      5  C   UNL     1       2.585   4.723  20.425  0.00  0.00    +0.000 A 
ATOM      6  C   UNL     1       2.123   3.964  21.497  0.00  0.00    +0.000 A 
ATOM      7  C   UNL     1       2.610   2.649  21.628  0.00  0.00    +0.000 A 
ATOM      8  C   UNL     1       3.539   2.130  20.698  0.00  0.00    +0.000 A 
ATOM      9  C   UNL     1       3.995   2.913  19.623  0.00  0.00    +0.000 A 
ATOM     10  C   UNL     1       3.500   4.214  19.507  0.00  0.00    +0.000 A 
ATOM     11  N   UNL     1       3.782   5.153  18.568  0.00  0.00    +0.000 N 
ATOM     12  C   UNL     1       4.602   5.170  17.466  0.00  0.00    +0.000 A 
ATOM     13  O   UNL     1       5.277   4.202  17.165  0.00  0.00    +0.000 OA
ATOM     14  C   UNL     1       4.647   6.343  16.687  0.00  0.00    +0.000 A 
ATOM     15  C   UNL     1       3.859   7.463  17.044  0.00  0.00    +0.000 A 
ATOM     16  C   UNL     1       3.030   7.412  18.190  0.00  0.00    +0.000 A 
ATOM     17  C   UNL     1       3.046   6.223  18.900  0.00  0.00    +0.000 A 
ENDROOT
BRANCH   1  18
ATOM     18  C   UNL     1       2.154   9.744  17.978  0.00  0.00    +0.000 C 
BRANCH  18  20
ATOM     19  C   UNL     1       1.699  12.101  18.751  0.00  0.00    +0.000 C 
ATOM     20  C   UNL     1       1.158  10.675  18.681  0.00  0.00    +0.000 C 
ENDBRANCH  18  20
ENDBRANCH   1  18
TORSDOF 2
ENDMDL
