MODEL 1
REMARK VINA RESULT:      -7.2      0.000      0.000
REMARK  Name = 
REMARK  9 active torsions:
REMARK  status: ('A' for Active; 'I' for Inactive)
REMARK    1  A    between atoms: C_1  and  O_2
REMARK    2  A    between atoms: O_2  and  P_3
REMARK    3  A    between atoms: P_3  and  C_5
REMARK    4  A    between atoms: P_3  and  C_14
REMARK    5  A    between atoms: C_8  and  N_9
REMARK    6  A    between atoms: N_9  and  C_10
REMARK    7  A    between atoms: N_9  and  C_11
REMARK    8  A    between atoms: C_14  and  O_15
REMARK    9  A    between atoms: C_14  and  C_16
REMARK                            x       y       z     vdW  Elec       q    Type
REMARK                         _______ _______ _______ _____ _____    ______ ____
ROOT
ATOM      1  P   UNL     1       6.497   5.094  17.080  0.00  0.00    +0.000 P 
ATOM      2  O   UNL     1       7.249   4.008  16.278  0.00  0.00    +0.000 OA
ENDROOT
BRANCH   1   3
ATOM      3  C   UNL     1       5.008   4.323  17.958  0.00  0.00    +0.000 A 
ATOM      4  C   UNL     1       4.270   3.306  17.349  0.00  0.00    +0.000 A 
ATOM      5  C   UNL     1       3.164   2.750  18.001  0.00  0.00    +0.000 A 
ATOM      6  C   UNL     1       2.758   3.160  19.285  0.00  0.00    +0.000 A 
ATOM      7  C   UNL     1       3.518   4.189  19.869  0.00  0.00    +0.000 A 
ATOM      8  C   UNL     1       4.617   4.771  19.220  0.00  0.00    +0.000 A 
BRANCH   6   9
ATOM      9  N   UNL     1       1.639   2.606  19.896  0.00  0.00    +0.000 N 
ATOM     10  C   UNL     1       1.406   2.757  21.332  0.00  0.00    +0.000 C 
ATOM     11  C   UNL     1       0.465   2.180  19.138  0.00  0.00    +0.000 C 
ENDBRANCH   6   9
ENDBRANCH   1   3
BRANCH   1  13
ATOM     12  C   UNL     1       7.949   5.863  19.148  0.00  0.00    +0.000 C 
ATOM     13  O   UNL     1       7.447   4.722  18.477  0.00  0.00    +0.000 OA
ENDBRANCH   1  13
BRANCH   1  14
ATOM     14  C   UNL     1       5.492   5.489  15.602  0.00  0.00    +0.000 C 
BRANCH  14  15
ATOM     15  C   UNL     1       6.118   4.871  14.350  0.00  0.00    +0.000 A 
ATOM     16  C   UNL     1       7.301   5.394  13.813  0.00  0.00    +0.000 A 
ATOM     17  C   UNL     1       7.799   4.915  12.599  0.00  0.00    +0.000 A 
ATOM     18  C   UNL     1       7.131   3.910  11.908  0.00  0.00    +0.000 A 
ATOM     19  C   UNL     1       5.960   3.363  12.439  0.00  0.00    +0.000 A 
ATOM     20  C   UNL     1       5.458   3.838  13.648  0.00  0.00    +0.000 A 
ENDBRANCH  14  15
BRANCH  14  21
ATOM     21  O   UNL     1       5.531   6.927  15.437  0.00  0.00    +0.000 OA
ATOM     22  H   UNL     1       6.146   7.149  14.722  0.00  0.00    +0.000 HD
ENDBRANCH  14  21
ENDBRANCH   1  14
TORSDOF 6
ENDMDL
MODEL 2
REMARK VINA RESULT:      -6.9      1.411      1.596
REMARK  Name = 
REMARK  9 active torsions:
REMARK  status: ('A' for Active; 'I' for Inactive)
REMARK    1  A    between atoms: C_1  and  O_2
REMARK    2  A    between atoms: O_2  and  P_3
REMARK    3  A    between atoms: P_3  and  C_5
REMARK    4  A    between atoms: P_3  and  C_14
REMARK    5  A    between atoms: C_8  and  N_9
REMARK    6  A    between atoms: N_9  and  C_10
REMARK    7  A    between atoms: N_9  and  C_11
REMARK    8  A    between atoms: C_14  and  O_15
REMARK    9  A    between atoms: C_14  and  C_16
REMARK                            x       y       z     vdW  Elec       q    Type
REMARK                         _______ _______ _______ _____ _____    ______ ____
ROOT
ATOM      1  P   UNL     1       6.705   5.280  16.795  0.00  0.00    +0.000 P 
ATOM      2  O   UNL     1       7.934   4.411  17.147  0.00  0.00    +0.000 OA
ENDROOT
BRANCH   1   3
ATOM      3  C   UNL     1       5.308   4.934  18.024  0.00  0.00    +0.000 A 
ATOM      4  C   UNL     1       5.231   3.708  18.689  0.00  0.00    +0.000 A 
ATOM      5  C   UNL     1       4.187   3.458  19.587  0.00  0.00    +0.000 A 
ATOM      6  C   UNL     1       3.194   4.412  19.879  0.00  0.00    +0.000 A 
ATOM      7  C   UNL     1       3.297   5.634  19.190  0.00  0.00    +0.000 A 
ATOM      8  C   UNL     1       4.325   5.894  18.271  0.00  0.00    +0.000 A 
BRANCH   6   9
ATOM      9  N   UNL     1       2.156   4.124  20.757  0.00  0.00    +0.000 N 
ATOM     10  C   UNL     1       0.797   4.604  20.508  0.00  0.00    +0.000 C 
ATOM     11  C   UNL     1       2.244   3.052  21.745  0.00  0.00    +0.000 C 
ENDBRANCH   6   9
ENDBRANCH   1   3
BRANCH   1  13
ATOM     12  C   UNL     1       7.933   6.017  19.015  0.00  0.00    +0.000 C 
ATOM     13  O   UNL     1       7.270   6.515  17.867  0.00  0.00    +0.000 OA
ENDBRANCH   1  13
BRANCH   1  14
ATOM     14  C   UNL     1       6.107   3.974  15.661  0.00  0.00    +0.000 C 
BRANCH  14  15
ATOM     15  C   UNL     1       6.663   4.194  14.253  0.00  0.00    +0.000 A 
ATOM     16  C   UNL     1       7.561   5.237  13.996  0.00  0.00    +0.000 A 
ATOM     17  C   UNL     1       7.964   5.517  12.688  0.00  0.00    +0.000 A 
ATOM     18  C   UNL     1       7.483   4.763  11.623  0.00  0.00    +0.000 A 
ATOM     19  C   UNL     1       6.602   3.706  11.863  0.00  0.00    +0.000 A 
ATOM     20  C   UNL     1       6.196   3.423  13.165  0.00  0.00    +0.000 A 
ENDBRANCH  14  15
BRANCH  14  21
ATOM     21  O   UNL     1       4.668   4.112  15.581  0.00  0.00    +0.000 OA
ATOM     22  H   UNL     1       4.445   4.713  14.855  0.00  0.00    +0.000 HD
ENDBRANCH  14  21
ENDBRANCH   1  14
TORSDOF 6
ENDMDL
MODEL 3
REMARK VINA RESULT:      -6.9      1.483      1.964
REMARK  Name = 
REMARK  9 active torsions:
REMARK  status: ('A' for Active; 'I' for Inactive)
REMARK    1  A    between atoms: C_1  and  O_2
REMARK    2  A    between atoms: O_2  and  P_3
REMARK    3  A    between atoms: P_3  and  C_5
REMARK    4  A    between atoms: P_3  and  C_14
REMARK    5  A    between atoms: C_8  and  N_9
REMARK    6  A    between atoms: N_9  and  C_10
REMARK    7  A    between atoms: N_9  and  C_11
REMARK    8  A    between atoms: C_14  and  O_15
REMARK    9  A    between atoms: C_14  and  C_16
REMARK                            x       y       z     vdW  Elec       q    Type
REMARK                         _______ _______ _______ _____ _____    ______ ____
ROOT
ATOM      1  P   UNL     1       6.693   5.254  16.947  0.00  0.00    +0.000 P 
ATOM      2  O   UNL     1       7.916   4.380  17.305  0.00  0.00    +0.000 OA
ENDROOT
BRANCH   1   3
ATOM      3  C   UNL     1       5.277   4.893  18.149  0.00  0.00    +0.000 A 
ATOM      4  C   UNL     1       5.133   3.626  18.721  0.00  0.00    +0.000 A 
ATOM      5  C   UNL     1       4.075   3.365  19.600  0.00  0.00    +0.000 A 
ATOM      6  C   UNL     1       3.135   4.347  19.964  0.00  0.00    +0.000 A 
ATOM      7  C   UNL     1       3.304   5.610  19.369  0.00  0.00    +0.000 A 
ATOM      8  C   UNL     1       4.347   5.882  18.469  0.00  0.00    +0.000 A 
BRANCH   6   9
ATOM      9  N   UNL     1       2.081   4.050  20.821  0.00  0.00    +0.000 N 
ATOM     10  C   UNL     1       0.696   4.321  20.440  0.00  0.00    +0.000 C 
ATOM     11  C   UNL     1       2.227   3.137  21.951  0.00  0.00    +0.000 C 
ENDBRANCH   6   9
ENDBRANCH   1   3
BRANCH   1  13
ATOM     12  C   UNL     1       7.615   7.685  17.412  0.00  0.00    +0.000 C 
ATOM     13  O   UNL     1       7.242   6.474  18.044  0.00  0.00    +0.000 OA
ENDBRANCH   1  13
BRANCH   1  14
ATOM     14  C   UNL     1       6.112   3.963  15.787  0.00  0.00    +0.000 C 
BRANCH  14  15
ATOM     15  C   UNL     1       6.539   4.299  14.356  0.00  0.00    +0.000 A 
ATOM     16  C   UNL     1       6.054   3.555  13.274  0.00  0.00    +0.000 A 
ATOM     17  C   UNL     1       6.545   3.777  11.986  0.00  0.00    +0.000 A 
ATOM     18  C   UNL     1       7.519   4.744  11.758  0.00  0.00    +0.000 A 
ATOM     19  C   UNL     1       7.999   5.511  12.822  0.00  0.00    +0.000 A 
ATOM     20  C   UNL     1       7.514   5.291  14.109  0.00  0.00    +0.000 A 
ENDBRANCH  14  15
BRANCH  14  21
ATOM     21  O   UNL     1       4.665   3.987  15.819  0.00  0.00    +0.000 OA
ATOM     22  H   UNL     1       4.322   3.676  14.969  0.00  0.00    +0.000 HD
ENDBRANCH  14  21
ENDBRANCH   1  14
TORSDOF 6
ENDMDL
MODEL 4
REMARK VINA RESULT:      -6.9      1.656      2.242
REMARK  Name = 
REMARK  9 active torsions:
REMARK  status: ('A' for Active; 'I' for Inactive)
REMARK    1  A    between atoms: C_1  and  O_2
REMARK    2  A    between atoms: O_2  and  P_3
REMARK    3  A    between atoms: P_3  and  C_5
REMARK    4  A    between atoms: P_3  and  C_14
REMARK    5  A    between atoms: C_8  and  N_9
REMARK    6  A    between atoms: N_9  and  C_10
REMARK    7  A    between atoms: N_9  and  C_11
REMARK    8  A    between atoms: C_14  and  O_15
REMARK    9  A    between atoms: C_14  and  C_16
REMARK                            x       y       z     vdW  Elec       q    Type
REMARK                         _______ _______ _______ _____ _____    ______ ____
ROOT
ATOM      1  P   UNL     1       6.826   5.424  16.732  0.00  0.00    +0.000 P 
ATOM      2  O   UNL     1       7.897   4.479  17.321  0.00  0.00    +0.000 OA
ENDROOT
BRANCH   1   3
ATOM      3  C   UNL     1       5.316   5.467  17.873  0.00  0.00    +0.000 A 
ATOM      4  C   UNL     1       5.122   4.474  18.835  0.00  0.00    +0.000 A 
ATOM      5  C   UNL     1       3.996   4.507  19.666  0.00  0.00    +0.000 A 
ATOM      6  C   UNL     1       3.033   5.531  19.594  0.00  0.00    +0.000 A 
ATOM      7  C   UNL     1       3.254   6.513  18.613  0.00  0.00    +0.000 A 
ATOM      8  C   UNL     1       4.367   6.483  17.757  0.00  0.00    +0.000 A 
BRANCH   6   9
ATOM      9  N   UNL     1       1.913   5.523  20.417  0.00  0.00    +0.000 N 
ATOM     10  C   UNL     1       1.329   6.768  20.915  0.00  0.00    +0.000 C 
ATOM     11  C   UNL     1       1.038   4.359  20.533  0.00  0.00    +0.000 C 
ENDBRANCH   6   9
ENDBRANCH   1   3
BRANCH   1  13
ATOM     12  C   UNL     1       7.982   6.364  18.913  0.00  0.00    +0.000 C 
ATOM     13  O   UNL     1       7.484   6.740  17.643  0.00  0.00    +0.000 OA
ENDBRANCH   1  13
BRANCH   1  14
ATOM     14  C   UNL     1       6.129   4.033  15.769  0.00  0.00    +0.000 C 
BRANCH  14  15
ATOM     15  C   UNL     1       6.455   4.197  14.283  0.00  0.00    +0.000 A 
ATOM     16  C   UNL     1       5.879   3.348  13.329  0.00  0.00    +0.000 A 
ATOM     17  C   UNL     1       6.277   3.413  11.992  0.00  0.00    +0.000 A 
ATOM     18  C   UNL     1       7.247   4.323  11.587  0.00  0.00    +0.000 A 
ATOM     19  C   UNL     1       7.818   5.192  12.521  0.00  0.00    +0.000 A 
ATOM     20  C   UNL     1       7.426   5.130  13.856  0.00  0.00    +0.000 A 
ENDBRANCH  14  15
BRANCH  14  21
ATOM     21  O   UNL     1       4.689   4.107  15.903  0.00  0.00    +0.000 OA
ATOM     22  H   UNL     1       4.375   4.937  15.517  0.00  0.00    +0.000 HD
ENDBRANCH  14  21
ENDBRANCH   1  14
TORSDOF 6
ENDMDL
MODEL 5
REMARK VINA RESULT:      -6.9      0.755      1.295
REMARK  Name = 
REMARK  9 active torsions:
REMARK  status: ('A' for Active; 'I' for Inactive)
REMARK    1  A    between atoms: C_1  and  O_2
REMARK    2  A    between atoms: O_2  and  P_3
REMARK    3  A    between atoms: P_3  and  C_5
REMARK    4  A    between atoms: P_3  and  C_14
REMARK    5  A    between atoms: C_8  and  N_9
REMARK    6  A    between atoms: N_9  and  C_10
REMARK    7  A    between atoms: N_9  and  C_11
REMARK    8  A    between atoms: C_14  and  O_15
REMARK    9  A    between atoms: C_14  and  C_16
REMARK                            x       y       z     vdW  Elec       q    Type
REMARK                         _______ _______ _______ _____ _____    ______ ____
ROOT
ATOM      1  P   UNL     1       6.659   5.070  17.024  0.00  0.00    +0.000 P 
ATOM      2  O   UNL     1       7.203   3.817  16.303  0.00  0.00    +0.000 OA
ENDROOT
BRANCH   1   3
ATOM      3  C   UNL     1       5.187   4.591  18.113  0.00  0.00    +0.000 A 
ATOM      4  C   UNL     1       4.231   5.542  18.478  0.00  0.00    +0.000 A 
ATOM      5  C   UNL     1       3.153   5.181  19.294  0.00  0.00    +0.000 A 
ATOM      6  C   UNL     1       2.964   3.867  19.760  0.00  0.00    +0.000 A 
ATOM      7  C   UNL     1       3.945   2.934  19.380  0.00  0.00    +0.000 A 
ATOM      8  C   UNL     1       5.044   3.284  18.580  0.00  0.00    +0.000 A 
BRANCH   6   9
ATOM      9  N   UNL     1       1.896   3.545  20.589  0.00  0.00    +0.000 N 
ATOM     10  C   UNL     1       0.559   3.304  20.046  0.00  0.00    +0.000 C 
ATOM     11  C   UNL     1       2.085   3.064  21.955  0.00  0.00    +0.000 C 
ENDBRANCH   6   9
ENDBRANCH   1   3
BRANCH   1  13
ATOM     12  C   UNL     1       7.822   5.830  19.271  0.00  0.00    +0.000 C 
ATOM     13  O   UNL     1       7.694   4.744  18.372  0.00  0.00    +0.000 OA
ENDBRANCH   1  13
BRANCH   1  14
ATOM     14  C   UNL     1       5.565   5.415  15.598  0.00  0.00    +0.000 C 
BRANCH  14  15
ATOM     15  C   UNL     1       6.155   4.823  14.317  0.00  0.00    +0.000 A 
ATOM     16  C   UNL     1       7.331   5.345  13.766  0.00  0.00    +0.000 A 
ATOM     17  C   UNL     1       7.795   4.893  12.529  0.00  0.00    +0.000 A 
ATOM     18  C   UNL     1       7.099   3.914  11.828  0.00  0.00    +0.000 A 
ATOM     19  C   UNL     1       5.934   3.367  12.372  0.00  0.00    +0.000 A 
ATOM     20  C   UNL     1       5.466   3.816  13.604  0.00  0.00    +0.000 A 
ENDBRANCH  14  15
BRANCH  14  21
ATOM     21  O   UNL     1       5.531   6.853  15.431  0.00  0.00    +0.000 OA
ATOM     22  H   UNL     1       6.331   7.238  15.819  0.00  0.00    +0.000 HD
ENDBRANCH  14  21
ENDBRANCH   1  14
TORSDOF 6
ENDMDL
MODEL 6
REMARK VINA RESULT:      -6.9      1.348      2.085
REMARK  Name = 
REMARK  9 active torsions:
REMARK  status: ('A' for Active; 'I' for Inactive)
REMARK    1  A    between atoms: C_1  and  O_2
REMARK    2  A    between atoms: O_2  and  P_3
REMARK    3  A    between atoms: P_3  and  C_5
REMARK    4  A    between atoms: P_3  and  C_14
REMARK    5  A    between atoms: C_8  and  N_9
REMARK    6  A    between atoms: N_9  and  C_10
REMARK    7  A    between atoms: N_9  and  C_11
REMARK    8  A    between atoms: C_14  and  O_15
REMARK    9  A    between atoms: C_14  and  C_16
REMARK                            x       y       z     vdW  Elec       q    Type
REMARK                         _______ _______ _______ _____ _____    ______ ____
ROOT
ATOM      1  P   UNL     1       6.463   5.796  16.717  0.00  0.00    +0.000 P 
ATOM      2  O   UNL     1       7.812   5.637  17.453  0.00  0.00    +0.000 OA
ENDROOT
BRANCH   1   3
ATOM      3  C   UNL     1       5.063   5.126  17.801  0.00  0.00    +0.000 A 
ATOM      4  C   UNL     1       3.728   5.374  17.473  0.00  0.00    +0.000 A 
ATOM      5  C   UNL     1       2.700   4.886  18.287  0.00  0.00    +0.000 A 
ATOM      6  C   UNL     1       2.948   4.117  19.439  0.00  0.00    +0.000 A 
ATOM      7  C   UNL     1       4.301   3.888  19.745  0.00  0.00    +0.000 A 
ATOM      8  C   UNL     1       5.345   4.389  18.951  0.00  0.00    +0.000 A 
BRANCH   6   9
ATOM      9  N   UNL     1       1.906   3.666  20.241  0.00  0.00    +0.000 N 
ATOM     10  C   UNL     1       0.700   3.077  19.659  0.00  0.00    +0.000 C 
ATOM     11  C   UNL     1       2.077   3.400  21.667  0.00  0.00    +0.000 C 
ENDBRANCH   6   9
ENDBRANCH   1   3
BRANCH   1  13
ATOM     12  C   UNL     1       7.430   8.076  17.634  0.00  0.00    +0.000 C 
ATOM     13  O   UNL     1       6.234   7.338  17.467  0.00  0.00    +0.000 OA
ENDBRANCH   1  13
BRANCH   1  14
ATOM     14  C   UNL     1       6.705   4.164  15.923  0.00  0.00    +0.000 C 
BRANCH  14  15
ATOM     15  C   UNL     1       6.779   4.316  14.402  0.00  0.00    +0.000 A 
ATOM     16  C   UNL     1       6.057   3.458  13.564  0.00  0.00    +0.000 A 
ATOM     17  C   UNL     1       6.228   3.512  12.179  0.00  0.00    +0.000 A 
ATOM     18  C   UNL     1       7.114   4.422  11.612  0.00  0.00    +0.000 A 
ATOM     19  C   UNL     1       7.827   5.300  12.431  0.00  0.00    +0.000 A 
ATOM     20  C   UNL     1       7.662   5.249  13.813  0.00  0.00    +0.000 A 
ENDBRANCH  14  15
BRANCH  14  21
ATOM     21  O   UNL     1       5.528   3.373  16.218  0.00  0.00    +0.000 OA
ATOM     22  H   UNL     1       4.767   3.748  15.751  0.00  0.00    +0.000 HD
ENDBRANCH  14  21
ENDBRANCH   1  14
TORSDOF 6
ENDMDL
MODEL 7
REMARK VINA RESULT:      -6.8      1.756      2.416
REMARK  Name = 
REMARK  9 active torsions:
REMARK  status: ('A' for Active; 'I' for Inactive)
REMARK    1  A    between atoms: C_1  and  O_2
REMARK    2  A    between atoms: O_2  and  P_3
REMARK    3  A    between atoms: P_3  and  C_5
REMARK    4  A    between atoms: P_3  and  C_14
REMARK    5  A    between atoms: C_8  and  N_9
REMARK    6  A    between atoms: N_9  and  C_10
REMARK    7  A    between atoms: N_9  and  C_11
REMARK    8  A    between atoms: C_14  and  O_15
REMARK    9  A    between atoms: C_14  and  C_16
REMARK                            x       y       z     vdW  Elec       q    Type
REMARK                         _______ _______ _______ _____ _____    ______ ____
ROOT
ATOM      1  P   UNL     1       6.817   5.564  16.673  0.00  0.00    +0.000 P 
ATOM      2  O   UNL     1       7.893   4.681  17.346  0.00  0.00    +0.000 OA
ENDROOT
BRANCH   1   3
ATOM      3  C   UNL     1       5.269   5.623  17.761  0.00  0.00    +0.000 A 
ATOM      4  C   UNL     1       4.314   6.628  17.586  0.00  0.00    +0.000 A 
ATOM      5  C   UNL     1       3.179   6.670  18.403  0.00  0.00    +0.000 A 
ATOM      6  C   UNL     1       2.931   5.714  19.405  0.00  0.00    +0.000 A 
ATOM      7  C   UNL     1       3.913   4.718  19.559  0.00  0.00    +0.000 A 
ATOM      8  C   UNL     1       5.068   4.674  18.762  0.00  0.00    +0.000 A 
BRANCH   6   9
ATOM      9  N   UNL     1       1.806   5.797  20.217  0.00  0.00    +0.000 N 
ATOM     10  C   UNL     1       1.152   4.595  20.733  0.00  0.00    +0.000 C 
ATOM     11  C   UNL     1       1.429   7.030  20.904  0.00  0.00    +0.000 C 
ENDBRANCH   6   9
ENDBRANCH   1   3
BRANCH   1  13
ATOM     12  C   UNL     1       8.052   6.623  18.754  0.00  0.00    +0.000 C 
ATOM     13  O   UNL     1       7.409   6.943  17.534  0.00  0.00    +0.000 OA
ENDBRANCH   1  13
BRANCH   1  14
ATOM     14  C   UNL     1       6.191   4.106  15.762  0.00  0.00    +0.000 C 
BRANCH  14  15
ATOM     15  C   UNL     1       6.499   4.235  14.269  0.00  0.00    +0.000 A 
ATOM     16  C   UNL     1       5.909   3.368  13.342  0.00  0.00    +0.000 A 
ATOM     17  C   UNL     1       6.292   3.402  11.999  0.00  0.00    +0.000 A 
ATOM     18  C   UNL     1       7.261   4.300  11.563  0.00  0.00    +0.000 A 
ATOM     19  C   UNL     1       7.845   5.187  12.470  0.00  0.00    +0.000 A 
ATOM     20  C   UNL     1       7.468   5.156  13.811  0.00  0.00    +0.000 A 
ENDBRANCH  14  15
BRANCH  14  21
ATOM     21  O   UNL     1       4.749   4.107  15.904  0.00  0.00    +0.000 OA
ATOM     22  H   UNL     1       4.344   4.225  15.033  0.00  0.00    +0.000 HD
ENDBRANCH  14  21
ENDBRANCH   1  14
TORSDOF 6
ENDMDL
MODEL 8
REMARK VINA RESULT:      -6.8      0.516      1.403
REMARK  Name = 
REMARK  9 active torsions:
REMARK  status: ('A' for Active; 'I' for Inactive)
REMARK    1  A    between atoms: C_1  and  O_2
REMARK    2  A    between atoms: O_2  and  P_3
REMARK    3  A    between atoms: P_3  and  C_5
REMARK    4  A    between atoms: P_3  and  C_14
REMARK    5  A    between atoms: C_8  and  N_9
REMARK    6  A    between atoms: N_9  and  C_10
REMARK    7  A    between atoms: N_9  and  C_11
REMARK    8  A    between atoms: C_14  and  O_15
REMARK    9  A    between atoms: C_14  and  C_16
REMARK                            x       y       z     vdW  Elec       q    Type
REMARK                         _______ _______ _______ _____ _____    ______ ____
ROOT
ATOM      1  P   UNL     1       6.439   5.066  16.968  0.00  0.00    +0.000 P 
ATOM      2  O   UNL     1       7.117   3.974  16.112  0.00  0.00    +0.000 OA
ENDROOT
BRANCH   1   3
ATOM      3  C   UNL     1       4.953   4.330  17.881  0.00  0.00    +0.000 A 
ATOM      4  C   UNL     1       5.105   3.761  19.147  0.00  0.00    +0.000 A 
ATOM      5  C   UNL     1       4.003   3.208  19.809  0.00  0.00    +0.000 A 
ATOM      6  C   UNL     1       2.708   3.216  19.258  0.00  0.00    +0.000 A 
ATOM      7  C   UNL     1       2.588   3.792  17.981  0.00  0.00    +0.000 A 
ATOM      8  C   UNL     1       3.687   4.332  17.294  0.00  0.00    +0.000 A 
BRANCH   6   9
ATOM      9  N   UNL     1       1.637   2.637  19.929  0.00  0.00    +0.000 N 
ATOM     10  C   UNL     1       1.507   2.741  21.382  0.00  0.00    +0.000 C 
ATOM     11  C   UNL     1       0.413   2.231  19.243  0.00  0.00    +0.000 C 
ENDBRANCH   6   9
ENDBRANCH   1   3
BRANCH   1  13
ATOM     12  C   UNL     1       7.913   5.721  19.060  0.00  0.00    +0.000 C 
ATOM     13  O   UNL     1       7.422   4.619  18.320  0.00  0.00    +0.000 OA
ENDBRANCH   1  13
BRANCH   1  14
ATOM     14  C   UNL     1       5.399   5.540  15.539  0.00  0.00    +0.000 C 
BRANCH  14  15
ATOM     15  C   UNL     1       5.992   4.988  14.241  0.00  0.00    +0.000 A 
ATOM     16  C   UNL     1       5.373   3.927  13.569  0.00  0.00    +0.000 A 
ATOM     17  C   UNL     1       5.985   3.340  12.459  0.00  0.00    +0.000 A 
ATOM     18  C   UNL     1       7.214   3.803  12.003  0.00  0.00    +0.000 A 
ATOM     19  C   UNL     1       7.836   4.874  12.648  0.00  0.00    +0.000 A 
ATOM     20  C   UNL     1       7.232   5.462  13.757  0.00  0.00    +0.000 A 
ENDBRANCH  14  15
BRANCH  14  21
ATOM     21  O   UNL     1       5.438   6.985  15.449  0.00  0.00    +0.000 OA
ATOM     22  H   UNL     1       6.310   7.297  15.731  0.00  0.00    +0.000 HD
ENDBRANCH  14  21
ENDBRANCH   1  14
TORSDOF 6
ENDMDL
MODEL 9
REMARK VINA RESULT:      -6.8      2.502      6.658
REMARK  Name = 
REMARK  9 active torsions:
REMARK  status: ('A' for Active; 'I' for Inactive)
REMARK    1  A    between atoms: C_1  and  O_2
REMARK    2  A    between atoms: O_2  and  P_3
REMARK    3  A    between atoms: P_3  and  C_5
REMARK    4  A    between atoms: P_3  and  C_14
REMARK    5  A    between atoms: C_8  and  N_9
REMARK    6  A    between atoms: N_9  and  C_10
REMARK    7  A    between atoms: N_9  and  C_11
REMARK    8  A    between atoms: C_14  and  O_15
REMARK    9  A    between atoms: C_14  and  C_16
REMARK                            x       y       z     vdW  Elec       q    Type
REMARK                         _______ _______ _______ _____ _____    ______ ____
ROOT
ATOM      1  P   UNL     1       5.588   4.450  18.988  0.00  0.00    +0.000 P 
ATOM      2  O   UNL     1       4.292   5.252  19.248  0.00  0.00    +0.000 OA
ENDROOT
BRANCH   1   3
ATOM      3  C   UNL     1       5.911   4.346  17.127  0.00  0.00    +0.000 A 
ATOM      4  C   UNL     1       4.962   3.785  16.269  0.00  0.00    +0.000 A 
ATOM      5  C   UNL     1       5.216   3.701  14.895  0.00  0.00    +0.000 A 
ATOM      6  C   UNL     1       6.402   4.187  14.314  0.00  0.00    +0.000 A 
ATOM      7  C   UNL     1       7.339   4.742  15.203  0.00  0.00    +0.000 A 
ATOM      8  C   UNL     1       7.109   4.814  16.586  0.00  0.00    +0.000 A 
BRANCH   6   9
ATOM      9  N   UNL     1       6.635   4.067  12.949  0.00  0.00    +0.000 N 
ATOM     10  C   UNL     1       5.759   3.263  12.097  0.00  0.00    +0.000 C 
ATOM     11  C   UNL     1       7.497   4.994  12.219  0.00  0.00    +0.000 C 
ENDBRANCH   6   9
ENDBRANCH   1   3
BRANCH   1  13
ATOM     12  C   UNL     1       7.746   5.809  19.678  0.00  0.00    +0.000 C 
ATOM     13  O   UNL     1       6.502   5.919  19.011  0.00  0.00    +0.000 OA
ENDBRANCH   1  13
BRANCH   1  14
ATOM     14  C   UNL     1       4.621   2.897  18.965  0.00  0.00    +0.000 C 
BRANCH  14  15
ATOM     15  C   UNL     1       3.197   3.146  19.466  0.00  0.00    +0.000 A 
ATOM     16  C   UNL     1       2.907   3.112  20.835  0.00  0.00    +0.000 A 
ATOM     17  C   UNL     1       1.587   3.208  21.281  0.00  0.00    +0.000 A 
ATOM     18  C   UNL     1       0.542   3.344  20.373  0.00  0.00    +0.000 A 
ATOM     19  C   UNL     1       0.815   3.401  19.004  0.00  0.00    +0.000 A 
ATOM     20  C   UNL     1       2.129   3.303  18.554  0.00  0.00    +0.000 A 
ENDBRANCH  14  15
BRANCH  14  21
ATOM     21  O   UNL     1       5.254   1.992  19.902  0.00  0.00    +0.000 OA
ATOM     22  H   UNL     1       4.587   1.389  20.262  0.00  0.00    +0.000 HD
ENDBRANCH  14  21
ENDBRANCH   1  14
TORSDOF 6
ENDMDL
