MODEL 1
REMARK VINA RESULT:      -8.9      0.000      0.000
REMARK  Name = 
REMARK  5 active torsions:
REMARK  status: ('A' for Active; 'I' for Inactive)
REMARK    1  A    between atoms: C_1  and  O_2
REMARK    2  A    between atoms: O_2  and  C_3
REMARK    3  A    between atoms: C_6  and  O_7
REMARK    4  A    between atoms: O_7  and  S_8
REMARK    5  A    between atoms: S_8  and  C_11
REMARK                            x       y       z     vdW  Elec       q    Type
REMARK                         _______ _______ _______ _____ _____    ______ ____
ROOT
ATOM      1  C   UNL     1       5.425   5.610  17.067  0.00  0.00    +0.000 A 
ATOM      2  C   UNL     1       4.925   6.917  17.158  0.00  0.00    +0.000 A 
ATOM      3  C   UNL     1       3.670   7.172  17.711  0.00  0.00    +0.000 A 
ATOM      4  C   UNL     1       2.993   6.066  18.223  0.00  0.00    +0.000 A 
ATOM      5  N   UNL     1       1.981   6.013  19.155  0.00  0.00    +0.000 N 
ATOM      6  C   UNL     1       1.881   4.722  19.617  0.00  0.00    +0.000 A 
ATOM      7  C   UNL     1       1.459   4.185  20.826  0.00  0.00    +0.000 A 
ATOM      8  C   UNL     1       1.420   2.798  20.847  0.00  0.00    +0.000 A 
ATOM      9  N   UNL     1       1.605   2.000  19.769  0.00  0.00    +0.000 NA
ATOM     10  C   UNL     1       2.067   2.555  18.619  0.00  0.00    +0.000 A 
ATOM     11  C   UNL     1       2.375   3.918  18.591  0.00  0.00    +0.000 A 
ATOM     12  C   UNL     1       3.356   4.745  17.954  0.00  0.00    +0.000 A 
ATOM     13  C   UNL     1       4.612   4.497  17.345  0.00  0.00    +0.000 A 
ATOM     14  H   UNL     1       1.586   6.820  19.614  0.00  0.00    +0.000 HD
ENDROOT
BRANCH   1  15
ATOM     15  S   UNL     1       7.194   5.435  16.797  0.00  0.00    +0.000 S 
ATOM     16  O   UNL     1       7.489   4.024  16.975  0.00  0.00    +0.000 OA
ATOM     17  O   UNL     1       7.818   6.442  17.637  0.00  0.00    +0.000 OA
BRANCH  15  18
ATOM     18  O   UNL     1       7.447   5.812  15.223  0.00  0.00    +0.000 OA
BRANCH  18  22
ATOM     19  C   UNL     1       5.771   3.390  12.244  0.00  0.00    +0.000 A 
ATOM     20  C   UNL     1       5.096   3.681  13.428  0.00  0.00    +0.000 A 
ATOM     21  C   UNL     1       5.680   4.503  14.399  0.00  0.00    +0.000 A 
ATOM     22  C   UNL     1       6.964   5.011  14.215  0.00  0.00    +0.000 A 
ATOM     23  C   UNL     1       7.652   4.703  13.037  0.00  0.00    +0.000 A 
ATOM     24  C   UNL     1       7.052   3.885  12.051  0.00  0.00    +0.000 A 
BRANCH  19  26
ATOM     25  C   UNL     1       3.813   2.969  10.977  0.00  0.00    +0.000 C 
ATOM     26  O   UNL     1       5.115   2.567  11.379  0.00  0.00    +0.000 OA
ENDBRANCH  19  26
ENDBRANCH  18  22
ENDBRANCH  15  18
ENDBRANCH   1  15
TORSDOF 4
ENDMDL
MODEL 2
REMARK VINA RESULT:      -8.8      0.641      1.203
REMARK  Name = 
REMARK  5 active torsions:
REMARK  status: ('A' for Active; 'I' for Inactive)
REMARK    1  A    between atoms: C_1  and  O_2
REMARK    2  A    between atoms: O_2  and  C_3
REMARK    3  A    between atoms: C_6  and  O_7
REMARK    4  A    between atoms: O_7  and  S_8
REMARK    5  A    between atoms: S_8  and  C_11
REMARK                            x       y       z     vdW  Elec       q    Type
REMARK                         _______ _______ _______ _____ _____    ______ ____
ROOT
ATOM      1  C   UNL     1       5.478   5.717  17.048  0.00  0.00    +0.000 A 
ATOM      2  C   UNL     1       4.887   6.989  17.028  0.00  0.00    +0.000 A 
ATOM      3  C   UNL     1       3.651   7.218  17.630  0.00  0.00    +0.000 A 
ATOM      4  C   UNL     1       3.090   6.134  18.303  0.00  0.00    +0.000 A 
ATOM      5  N   UNL     1       2.139   6.117  19.300  0.00  0.00    +0.000 N 
ATOM      6  C   UNL     1       2.163   4.883  19.906  0.00  0.00    +0.000 A 
ATOM      7  C   UNL     1       1.853   4.460  21.191  0.00  0.00    +0.000 A 
ATOM      8  C   UNL     1       1.920   3.085  21.367  0.00  0.00    +0.000 A 
ATOM      9  N   UNL     1       2.102   2.184  20.372  0.00  0.00    +0.000 NA
ATOM     10  C   UNL     1       2.455   2.635  19.140  0.00  0.00    +0.000 A 
ATOM     11  C   UNL     1       2.657   4.004  18.943  0.00  0.00    +0.000 A 
ATOM     12  C   UNL     1       3.535   4.818  18.158  0.00  0.00    +0.000 A 
ATOM     13  C   UNL     1       4.769   4.589  17.498  0.00  0.00    +0.000 A 
ATOM     14  H   UNL     1       1.711   6.943  19.692  0.00  0.00    +0.000 HD
ENDROOT
BRANCH   1  15
ATOM     15  S   UNL     1       7.237   5.634  16.684  0.00  0.00    +0.000 S 
ATOM     16  O   UNL     1       7.647   4.274  16.990  0.00  0.00    +0.000 OA
ATOM     17  O   UNL     1       7.831   6.767  17.371  0.00  0.00    +0.000 OA
BRANCH  15  18
ATOM     18  O   UNL     1       7.371   5.854  15.066  0.00  0.00    +0.000 OA
BRANCH  18  22
ATOM     19  C   UNL     1       5.862   3.124  12.271  0.00  0.00    +0.000 A 
ATOM     20  C   UNL     1       7.087   3.763  12.092  0.00  0.00    +0.000 A 
ATOM     21  C   UNL     1       7.568   4.663  13.052  0.00  0.00    +0.000 A 
ATOM     22  C   UNL     1       6.809   4.964  14.181  0.00  0.00    +0.000 A 
ATOM     23  C   UNL     1       5.570   4.339  14.352  0.00  0.00    +0.000 A 
ATOM     24  C   UNL     1       5.095   3.418  13.388  0.00  0.00    +0.000 A 
BRANCH  19  26
ATOM     25  C   UNL     1       6.333   1.171  11.012  0.00  0.00    +0.000 C 
ATOM     26  O   UNL     1       5.485   2.282  11.267  0.00  0.00    +0.000 OA
ENDBRANCH  19  26
ENDBRANCH  18  22
ENDBRANCH  15  18
ENDBRANCH   1  15
TORSDOF 4
ENDMDL
MODEL 3
REMARK VINA RESULT:      -8.8      6.431      8.615
REMARK  Name = 
REMARK  5 active torsions:
REMARK  status: ('A' for Active; 'I' for Inactive)
REMARK    1  A    between atoms: C_1  and  O_2
REMARK    2  A    between atoms: O_2  and  C_3
REMARK    3  A    between atoms: C_6  and  O_7
REMARK    4  A    between atoms: O_7  and  S_8
REMARK    5  A    between atoms: S_8  and  C_11
REMARK                            x       y       z     vdW  Elec       q    Type
REMARK                         _______ _______ _______ _____ _____    ______ ____
ROOT
ATOM      1  C   UNL     1       1.486   8.864  19.820  0.00  0.00    +0.000 A 
ATOM      2  C   UNL     1       1.997   9.011  18.523  0.00  0.00    +0.000 A 
ATOM      3  C   UNL     1       2.523   7.923  17.828  0.00  0.00    +0.000 A 
ATOM      4  C   UNL     1       2.441   6.690  18.472  0.00  0.00    +0.000 A 
ATOM      5  N   UNL     1       2.480   5.419  17.942  0.00  0.00    +0.000 N 
ATOM      6  C   UNL     1       2.001   4.538  18.882  0.00  0.00    +0.000 A 
ATOM      7  C   UNL     1       1.353   3.315  18.781  0.00  0.00    +0.000 A 
ATOM      8  C   UNL     1       1.122   2.694  20.001  0.00  0.00    +0.000 A 
ATOM      9  N   UNL     1       1.609   3.116  21.191  0.00  0.00    +0.000 NA
ATOM     10  C   UNL     1       2.191   4.342  21.259  0.00  0.00    +0.000 A 
ATOM     11  C   UNL     1       2.236   5.144  20.115  0.00  0.00    +0.000 A 
ATOM     12  C   UNL     1       2.146   6.544  19.829  0.00  0.00    +0.000 A 
ATOM     13  C   UNL     1       1.660   7.669  20.542  0.00  0.00    +0.000 A 
ATOM     14  H   UNL     1       2.574   5.216  16.957  0.00  0.00    +0.000 HD
ENDROOT
BRANCH   1  15
ATOM     15  S   UNL     1       0.418  10.178  20.426  0.00  0.00    +0.000 S 
ATOM     16  O   UNL     1       1.260  11.036  21.242  0.00  0.00    +0.000 OA
ATOM     17  O   UNL     1      -0.740   9.509  20.992  0.00  0.00    +0.000 OA
BRANCH  15  18
ATOM     18  O   UNL     1      -0.042  11.027  19.103  0.00  0.00    +0.000 OA
BRANCH  18  22
ATOM     19  C   UNL     1      -4.004  10.992  17.743  0.00  0.00    +0.000 A 
ATOM     20  C   UNL     1      -3.578  11.847  18.758  0.00  0.00    +0.000 A 
ATOM     21  C   UNL     1      -2.244  11.841  19.182  0.00  0.00    +0.000 A 
ATOM     22  C   UNL     1      -1.329  10.951  18.624  0.00  0.00    +0.000 A 
ATOM     23  C   UNL     1      -1.760  10.077  17.620  0.00  0.00    +0.000 A 
ATOM     24  C   UNL     1      -3.105  10.098  17.183  0.00  0.00    +0.000 A 
BRANCH  19  26
ATOM     25  C   UNL     1      -5.844  12.368  17.161  0.00  0.00    +0.000 C 
ATOM     26  O   UNL     1      -5.326  11.072  17.423  0.00  0.00    +0.000 OA
ENDBRANCH  19  26
ENDBRANCH  18  22
ENDBRANCH  15  18
ENDBRANCH   1  15
TORSDOF 4
ENDMDL
MODEL 4
REMARK VINA RESULT:      -8.8      5.991      7.984
REMARK  Name = 
REMARK  5 active torsions:
REMARK  status: ('A' for Active; 'I' for Inactive)
REMARK    1  A    between atoms: C_1  and  O_2
REMARK    2  A    between atoms: O_2  and  C_3
REMARK    3  A    between atoms: C_6  and  O_7
REMARK    4  A    between atoms: O_7  and  S_8
REMARK    5  A    between atoms: S_8  and  C_11
REMARK                            x       y       z     vdW  Elec       q    Type
REMARK                         _______ _______ _______ _____ _____    ______ ____
ROOT
ATOM      1  C   UNL     1       1.739   9.095  19.498  0.00  0.00    +0.000 A 
ATOM      2  C   UNL     1       2.274   9.141  18.202  0.00  0.00    +0.000 A 
ATOM      3  C   UNL     1       2.736   7.986  17.573  0.00  0.00    +0.000 A 
ATOM      4  C   UNL     1       2.566   6.796  18.278  0.00  0.00    +0.000 A 
ATOM      5  N   UNL     1       2.529   5.500  17.815  0.00  0.00    +0.000 N 
ATOM      6  C   UNL     1       1.982   4.702  18.792  0.00  0.00    +0.000 A 
ATOM      7  C   UNL     1       1.257   3.519  18.745  0.00  0.00    +0.000 A 
ATOM      8  C   UNL     1       0.972   2.979  19.991  0.00  0.00    +0.000 A 
ATOM      9  N   UNL     1       1.472   3.431  21.165  0.00  0.00    +0.000 NA
ATOM     10  C   UNL     1       2.132   4.619  21.179  0.00  0.00    +0.000 A 
ATOM     11  C   UNL     1       2.242   5.355  19.996  0.00  0.00    +0.000 A 
ATOM     12  C   UNL     1       2.247   6.741  19.636  0.00  0.00    +0.000 A 
ATOM     13  C   UNL     1       1.827   7.931  20.283  0.00  0.00    +0.000 A 
ATOM     14  H   UNL     1       2.621   5.239  16.844  0.00  0.00    +0.000 HD
ENDROOT
BRANCH   1  15
ATOM     15  S   UNL     1       0.753  10.505  20.019  0.00  0.00    +0.000 S 
ATOM     16  O   UNL     1       0.992  11.548  19.037  0.00  0.00    +0.000 OA
ATOM     17  O   UNL     1       1.074  10.708  21.420  0.00  0.00    +0.000 OA
BRANCH  15  18
ATOM     18  O   UNL     1      -0.810  10.032  19.887  0.00  0.00    +0.000 OA
BRANCH  18  22
ATOM     19  C   UNL     1      -3.053  10.884  16.454  0.00  0.00    +0.000 A 
ATOM     20  C   UNL     1      -2.102   9.867  16.481  0.00  0.00    +0.000 A 
ATOM     21  C   UNL     1      -1.377   9.600  17.649  0.00  0.00    +0.000 A 
ATOM     22  C   UNL     1      -1.565  10.376  18.791  0.00  0.00    +0.000 A 
ATOM     23  C   UNL     1      -2.505  11.412  18.758  0.00  0.00    +0.000 A 
ATOM     24  C   UNL     1      -3.247  11.668  17.581  0.00  0.00    +0.000 A 
BRANCH  19  26
ATOM     25  C   UNL     1      -3.328  10.185  14.206  0.00  0.00    +0.000 C 
ATOM     26  O   UNL     1      -3.687  11.066  15.261  0.00  0.00    +0.000 OA
ENDBRANCH  19  26
ENDBRANCH  18  22
ENDBRANCH  15  18
ENDBRANCH   1  15
TORSDOF 4
ENDMDL
MODEL 5
REMARK VINA RESULT:      -8.7      6.040      8.038
REMARK  Name = 
REMARK  5 active torsions:
REMARK  status: ('A' for Active; 'I' for Inactive)
REMARK    1  A    between atoms: C_1  and  O_2
REMARK    2  A    between atoms: O_2  and  C_3
REMARK    3  A    between atoms: C_6  and  O_7
REMARK    4  A    between atoms: O_7  and  S_8
REMARK    5  A    between atoms: S_8  and  C_11
REMARK                            x       y       z     vdW  Elec       q    Type
REMARK                         _______ _______ _______ _____ _____    ______ ____
ROOT
ATOM      1  C   UNL     1       1.581   8.409  20.135  0.00  0.00    +0.000 A 
ATOM      2  C   UNL     1       2.103   8.669  18.859  0.00  0.00    +0.000 A 
ATOM      3  C   UNL     1       2.609   7.640  18.065  0.00  0.00    +0.000 A 
ATOM      4  C   UNL     1       2.494   6.353  18.587  0.00  0.00    +0.000 A 
ATOM      5  N   UNL     1       2.508   5.139  17.937  0.00  0.00    +0.000 N 
ATOM      6  C   UNL     1       2.002   4.183  18.786  0.00  0.00    +0.000 A 
ATOM      7  C   UNL     1       1.328   2.990  18.565  0.00  0.00    +0.000 A 
ATOM      8  C   UNL     1       1.075   2.260  19.718  0.00  0.00    +0.000 A 
ATOM      9  N   UNL     1       1.564   2.555  20.946  0.00  0.00    +0.000 NA
ATOM     10  C   UNL     1       2.173   3.754  21.134  0.00  0.00    +0.000 A 
ATOM     11  C   UNL     1       2.244   4.662  20.073  0.00  0.00    +0.000 A 
ATOM     12  C   UNL     1       2.188   6.085  19.923  0.00  0.00    +0.000 A 
ATOM     13  C   UNL     1       1.723   7.147  20.739  0.00  0.00    +0.000 A 
ATOM     14  H   UNL     1       2.603   5.029  16.938  0.00  0.00    +0.000 HD
ENDROOT
BRANCH   1  15
ATOM     15  S   UNL     1       0.540   9.683  20.860  0.00  0.00    +0.000 S 
ATOM     16  O   UNL     1       1.316  10.270  21.939  0.00  0.00    +0.000 OA
ATOM     17  O   UNL     1      -0.737   9.042  21.120  0.00  0.00    +0.000 OA
BRANCH  15  18
ATOM     18  O   UNL     1       0.346  10.820  19.696  0.00  0.00    +0.000 OA
BRANCH  18  22
ATOM     19  C   UNL     1      -3.052  10.748  17.248  0.00  0.00    +0.000 A 
ATOM     20  C   UNL     1      -1.926   9.975  16.972  0.00  0.00    +0.000 A 
ATOM     21  C   UNL     1      -0.810  10.015  17.818  0.00  0.00    +0.000 A 
ATOM     22  C   UNL     1      -0.792  10.859  18.926  0.00  0.00    +0.000 A 
ATOM     23  C   UNL     1      -1.914  11.651  19.192  0.00  0.00    +0.000 A 
ATOM     24  C   UNL     1      -3.045  11.596  18.345  0.00  0.00    +0.000 A 
BRANCH  19  26
ATOM     25  C   UNL     1      -3.708  10.486  14.985  0.00  0.00    +0.000 C 
ATOM     26  O   UNL     1      -4.071  10.644  16.350  0.00  0.00    +0.000 OA
ENDBRANCH  19  26
ENDBRANCH  18  22
ENDBRANCH  15  18
ENDBRANCH   1  15
TORSDOF 4
ENDMDL
MODEL 6
REMARK VINA RESULT:      -8.6      5.725      8.435
REMARK  Name = 
REMARK  5 active torsions:
REMARK  status: ('A' for Active; 'I' for Inactive)
REMARK    1  A    between atoms: C_1  and  O_2
REMARK    2  A    between atoms: O_2  and  C_3
REMARK    3  A    between atoms: C_6  and  O_7
REMARK    4  A    between atoms: O_7  and  S_8
REMARK    5  A    between atoms: S_8  and  C_11
REMARK                            x       y       z     vdW  Elec       q    Type
REMARK                         _______ _______ _______ _____ _____    ______ ____
ROOT
ATOM      1  C   UNL     1       1.625   7.281  20.286  0.00  0.00    +0.000 A 
ATOM      2  C   UNL     1       1.494   6.047  20.939  0.00  0.00    +0.000 A 
ATOM      3  C   UNL     1       2.300   4.962  20.598  0.00  0.00    +0.000 A 
ATOM      4  C   UNL     1       3.276   5.206  19.633  0.00  0.00    +0.000 A 
ATOM      5  N   UNL     1       4.443   4.522  19.374  0.00  0.00    +0.000 N 
ATOM      6  C   UNL     1       5.254   5.319  18.600  0.00  0.00    +0.000 A 
ATOM      7  C   UNL     1       6.632   5.408  18.465  0.00  0.00    +0.000 A 
ATOM      8  C   UNL     1       7.049   6.297  17.484  0.00  0.00    +0.000 A 
ATOM      9  N   UNL     1       6.231   6.916  16.600  0.00  0.00    +0.000 NA
ATOM     10  C   UNL     1       4.888   6.847  16.796  0.00  0.00    +0.000 A 
ATOM     11  C   UNL     1       4.392   6.176  17.918  0.00  0.00    +0.000 A 
ATOM     12  C   UNL     1       3.290   6.339  18.817  0.00  0.00    +0.000 A 
ATOM     13  C   UNL     1       2.430   7.418  19.140  0.00  0.00    +0.000 A 
ATOM     14  H   UNL     1       4.755   3.712  19.889  0.00  0.00    +0.000 HD
ENDROOT
BRANCH   1  15
ATOM     15  S   UNL     1       0.903   8.711  21.101  0.00  0.00    +0.000 S 
ATOM     16  O   UNL     1       1.786   9.030  22.210  0.00  0.00    +0.000 OA
ATOM     17  O   UNL     1      -0.490   8.369  21.328  0.00  0.00    +0.000 OA
BRANCH  15  18
ATOM     18  O   UNL     1       0.988   9.936  20.015  0.00  0.00    +0.000 OA
BRANCH  18  22
ATOM     19  C   UNL     1      -2.458  11.260  18.036  0.00  0.00    +0.000 A 
ATOM     20  C   UNL     1      -1.611  10.302  17.484  0.00  0.00    +0.000 A 
ATOM     21  C   UNL     1      -0.472   9.872  18.177  0.00  0.00    +0.000 A 
ATOM     22  C   UNL     1      -0.146  10.428  19.412  0.00  0.00    +0.000 A 
ATOM     23  C   UNL     1      -0.984  11.405  19.958  0.00  0.00    +0.000 A 
ATOM     24  C   UNL     1      -2.142  11.824  19.262  0.00  0.00    +0.000 A 
BRANCH  19  26
ATOM     25  C   UNL     1      -3.680  10.930  16.031  0.00  0.00    +0.000 C 
ATOM     26  O   UNL     1      -3.526  11.614  17.267  0.00  0.00    +0.000 OA
ENDBRANCH  19  26
ENDBRANCH  18  22
ENDBRANCH  15  18
ENDBRANCH   1  15
TORSDOF 4
ENDMDL
MODEL 7
REMARK VINA RESULT:      -8.6      6.421      8.637
REMARK  Name = 
REMARK  5 active torsions:
REMARK  status: ('A' for Active; 'I' for Inactive)
REMARK    1  A    between atoms: C_1  and  O_2
REMARK    2  A    between atoms: O_2  and  C_3
REMARK    3  A    between atoms: C_6  and  O_7
REMARK    4  A    between atoms: O_7  and  S_8
REMARK    5  A    between atoms: S_8  and  C_11
REMARK                            x       y       z     vdW  Elec       q    Type
REMARK                         _______ _______ _______ _____ _____    ______ ____
ROOT
ATOM      1  C   UNL     1       1.569   8.785  19.521  0.00  0.00    +0.000 A 
ATOM      2  C   UNL     1       2.215   8.871  18.279  0.00  0.00    +0.000 A 
ATOM      3  C   UNL     1       2.828   7.757  17.707  0.00  0.00    +0.000 A 
ATOM      4  C   UNL     1       2.693   6.559  18.407  0.00  0.00    +0.000 A 
ATOM      5  N   UNL     1       2.807   5.263  17.956  0.00  0.00    +0.000 N 
ATOM      6  C   UNL     1       2.241   4.425  18.889  0.00  0.00    +0.000 A 
ATOM      7  C   UNL     1       1.625   3.185  18.788  0.00  0.00    +0.000 A 
ATOM      8  C   UNL     1       1.273   2.627  20.009  0.00  0.00    +0.000 A 
ATOM      9  N   UNL     1       1.624   3.124  21.219  0.00  0.00    +0.000 NA
ATOM     10  C   UNL     1       2.178   4.363  21.280  0.00  0.00    +0.000 A 
ATOM     11  C   UNL     1       2.334   5.102  20.104  0.00  0.00    +0.000 A 
ATOM     12  C   UNL     1       2.257   6.482  19.731  0.00  0.00    +0.000 A 
ATOM     13  C   UNL     1       1.681   7.635  20.323  0.00  0.00    +0.000 A 
ATOM     14  H   UNL     1       3.009   5.007  17.001  0.00  0.00    +0.000 HD
ENDROOT
BRANCH   1  15
ATOM     15  S   UNL     1       0.425  10.108  19.934  0.00  0.00    +0.000 S 
ATOM     16  O   UNL     1       1.222  11.144  20.569  0.00  0.00    +0.000 OA
ATOM     17  O   UNL     1      -0.671   9.469  20.641  0.00  0.00    +0.000 OA
BRANCH  15  18
ATOM     18  O   UNL     1      -0.122  10.691  18.504  0.00  0.00    +0.000 OA
BRANCH  18  22
ATOM     19  C   UNL     1      -4.219  11.061  17.714  0.00  0.00    +0.000 A 
ATOM     20  C   UNL     1      -3.410  10.162  17.021  0.00  0.00    +0.000 A 
ATOM     21  C   UNL     1      -2.046  10.055  17.318  0.00  0.00    +0.000 A 
ATOM     22  C   UNL     1      -1.466  10.877  18.282  0.00  0.00    +0.000 A 
ATOM     23  C   UNL     1      -2.272  11.795  18.964  0.00  0.00    +0.000 A 
ATOM     24  C   UNL     1      -3.653  11.888  18.672  0.00  0.00    +0.000 A 
BRANCH  19  26
ATOM     25  C   UNL     1      -6.478  11.414  18.336  0.00  0.00    +0.000 C 
ATOM     26  O   UNL     1      -5.526  11.092  17.331  0.00  0.00    +0.000 OA
ENDBRANCH  19  26
ENDBRANCH  18  22
ENDBRANCH  15  18
ENDBRANCH   1  15
TORSDOF 4
ENDMDL
MODEL 8
REMARK VINA RESULT:      -8.5      3.171      5.382
REMARK  Name = 
REMARK  5 active torsions:
REMARK  status: ('A' for Active; 'I' for Inactive)
REMARK    1  A    between atoms: C_1  and  O_2
REMARK    2  A    between atoms: O_2  and  C_3
REMARK    3  A    between atoms: C_6  and  O_7
REMARK    4  A    between atoms: O_7  and  S_8
REMARK    5  A    between atoms: S_8  and  C_11
REMARK                            x       y       z     vdW  Elec       q    Type
REMARK                         _______ _______ _______ _____ _____    ______ ____
ROOT
ATOM      1  C   UNL     1       2.612   4.654  19.025  0.00  0.00    +0.000 A 
ATOM      2  C   UNL     1       2.528   4.454  20.411  0.00  0.00    +0.000 A 
ATOM      3  C   UNL     1       2.258   5.513  21.277  0.00  0.00    +0.000 A 
ATOM      4  C   UNL     1       2.011   6.745  20.676  0.00  0.00    +0.000 A 
ATOM      5  N   UNL     1       1.344   7.844  21.171  0.00  0.00    +0.000 N 
ATOM      6  C   UNL     1       1.028   8.673  20.120  0.00  0.00    +0.000 A 
ATOM      7  C   UNL     1      -0.002   9.581  19.915  0.00  0.00    +0.000 A 
ATOM      8  C   UNL     1       0.103  10.299  18.732  0.00  0.00    +0.000 A 
ATOM      9  N   UNL     1       1.174  10.276  17.903  0.00  0.00    +0.000 NA
ATOM     10  C   UNL     1       2.136   9.339  18.107  0.00  0.00    +0.000 A 
ATOM     11  C   UNL     1       1.977   8.406  19.135  0.00  0.00    +0.000 A 
ATOM     12  C   UNL     1       2.299   7.025  19.338  0.00  0.00    +0.000 A 
ATOM     13  C   UNL     1       2.623   5.949  18.475  0.00  0.00    +0.000 A 
ATOM     14  H   UNL     1       0.921   7.889  22.086  0.00  0.00    +0.000 HD
ENDROOT
BRANCH   1  15
ATOM     15  S   UNL     1       2.482   3.194  17.984  0.00  0.00    +0.000 S 
ATOM     16  O   UNL     1       1.710   3.598  16.821  0.00  0.00    +0.000 OA
ATOM     17  O   UNL     1       2.017   2.132  18.858  0.00  0.00    +0.000 OA
BRANCH  15  18
ATOM     18  O   UNL     1       4.007   2.858  17.491  0.00  0.00    +0.000 OA
BRANCH  18  22
ATOM     19  C   UNL     1       6.801   5.874  16.684  0.00  0.00    +0.000 A 
ATOM     20  C   UNL     1       6.717   5.259  17.931  0.00  0.00    +0.000 A 
ATOM     21  C   UNL     1       5.778   4.246  18.165  0.00  0.00    +0.000 A 
ATOM     22  C   UNL     1       4.885   3.865  17.165  0.00  0.00    +0.000 A 
ATOM     23  C   UNL     1       4.955   4.496  15.919  0.00  0.00    +0.000 A 
ATOM     24  C   UNL     1       5.915   5.508  15.682  0.00  0.00    +0.000 A 
BRANCH  19  26
ATOM     25  C   UNL     1       7.744   7.851  17.589  0.00  0.00    +0.000 C 
ATOM     26  O   UNL     1       7.738   6.857  16.574  0.00  0.00    +0.000 OA
ENDBRANCH  19  26
ENDBRANCH  18  22
ENDBRANCH  15  18
ENDBRANCH   1  15
TORSDOF 4
ENDMDL
MODEL 9
REMARK VINA RESULT:      -8.1      5.872      8.322
REMARK  Name = 
REMARK  5 active torsions:
REMARK  status: ('A' for Active; 'I' for Inactive)
REMARK    1  A    between atoms: C_1  and  O_2
REMARK    2  A    between atoms: O_2  and  C_3
REMARK    3  A    between atoms: C_6  and  O_7
REMARK    4  A    between atoms: O_7  and  S_8
REMARK    5  A    between atoms: S_8  and  C_11
REMARK                            x       y       z     vdW  Elec       q    Type
REMARK                         _______ _______ _______ _____ _____    ______ ____
ROOT
ATOM      1  C   UNL     1       1.510   8.376  19.699  0.00  0.00    +0.000 A 
ATOM      2  C   UNL     1       1.252   7.359  20.629  0.00  0.00    +0.000 A 
ATOM      3  C   UNL     1       1.939   6.147  20.580  0.00  0.00    +0.000 A 
ATOM      4  C   UNL     1       2.932   6.047  19.607  0.00  0.00    +0.000 A 
ATOM      5  N   UNL     1       4.020   5.204  19.548  0.00  0.00    +0.000 N 
ATOM      6  C   UNL     1       4.907   5.701  18.623  0.00  0.00    +0.000 A 
ATOM      7  C   UNL     1       6.287   5.613  18.501  0.00  0.00    +0.000 A 
ATOM      8  C   UNL     1       6.791   6.187  17.342  0.00  0.00    +0.000 A 
ATOM      9  N   UNL     1       6.039   6.652  16.316  0.00  0.00    +0.000 NA
ATOM     10  C   UNL     1       4.698   6.771  16.493  0.00  0.00    +0.000 A 
ATOM     11  C   UNL     1       4.138   6.449  17.733  0.00  0.00    +0.000 A 
ATOM     12  C   UNL     1       3.062   6.939  18.541  0.00  0.00    +0.000 A 
ATOM     13  C   UNL     1       2.320   8.147  18.573  0.00  0.00    +0.000 A 
ATOM     14  H   UNL     1       4.247   4.517  20.252  0.00  0.00    +0.000 HD
ENDROOT
BRANCH   1  15
ATOM     15  S   UNL     1       0.944  10.029  20.125  0.00  0.00    +0.000 S 
ATOM     16  O   UNL     1       1.384  10.895  19.046  0.00  0.00    +0.000 OA
ATOM     17  O   UNL     1       1.385  10.251  21.491  0.00  0.00    +0.000 OA
BRANCH  15  18
ATOM     18  O   UNL     1      -0.693   9.965  20.091  0.00  0.00    +0.000 OA
BRANCH  18  22
ATOM     19  C   UNL     1      -2.785  10.983  16.608  0.00  0.00    +0.000 A 
ATOM     20  C   UNL     1      -1.910   9.900  16.654  0.00  0.00    +0.000 A 
ATOM     21  C   UNL     1      -1.234   9.580  17.839  0.00  0.00    +0.000 A 
ATOM     22  C   UNL     1      -1.394  10.365  18.978  0.00  0.00    +0.000 A 
ATOM     23  C   UNL     1      -2.256  11.465  18.927  0.00  0.00    +0.000 A 
ATOM     24  C   UNL     1      -2.950  11.776  17.733  0.00  0.00    +0.000 A 
BRANCH  19  26
ATOM     25  C   UNL     1      -3.375  10.134  14.474  0.00  0.00    +0.000 C 
ATOM     26  O   UNL     1      -3.375  11.211  15.401  0.00  0.00    +0.000 OA
ENDBRANCH  19  26
ENDBRANCH  18  22
ENDBRANCH  15  18
ENDBRANCH   1  15
TORSDOF 4
ENDMDL
