MODEL 1
REMARK VINA RESULT:      -6.8      0.000      0.000
REMARK  Name = 
REMARK  8 active torsions:
REMARK  status: ('A' for Active; 'I' for Inactive)
REMARK    1  A    between atoms: C_1  and  S_2
REMARK    2  A    between atoms: S_2  and  C_3
REMARK    3  A    between atoms: C_6  and  C_7
REMARK    4  A    between atoms: C_7  and  N_8
REMARK    5  A    between atoms: C_9  and  C_11
REMARK    6  A    between atoms: C_11  and  C_12
REMARK    7  A    between atoms: C_13  and  C_14
REMARK    8  A    between atoms: C_17  and  C_18
REMARK                            x       y       z     vdW  Elec       q    Type
REMARK                         _______ _______ _______ _____ _____    ______ ____
ROOT
ATOM      1  N   UNL     1       3.952   5.639  19.649  0.00  0.00    +0.000 N 
ATOM      2  C   UNL     1       4.383   4.459  19.084  0.00  0.00    +0.000 C 
ATOM      3  O   UNL     1       3.612   3.552  18.780  0.00  0.00    +0.000 OA
ATOM      4  H   UNL     1       4.607   6.389  19.812  0.00  0.00    +0.000 HD
ENDROOT
BRANCH   1   5
ATOM      5  C   UNL     1       2.558   5.853  19.978  0.00  0.00    +0.000 C 
BRANCH   5   9
ATOM      6  C   UNL     1       1.230   9.885  19.134  0.00  0.00    +0.000 A 
ATOM      7  C   UNL     1       1.953   9.162  18.185  0.00  0.00    +0.000 A 
ATOM      8  C   UNL     1       2.387   7.865  18.466  0.00  0.00    +0.000 A 
ATOM      9  C   UNL     1       2.110   7.267  19.702  0.00  0.00    +0.000 A 
ATOM     10  C   UNL     1       1.409   8.007  20.664  0.00  0.00    +0.000 A 
ATOM     11  C   UNL     1       0.974   9.307  20.380  0.00  0.00    +0.000 A 
BRANCH   6  13
ATOM     12  C   UNL     1       2.245  12.312  18.326  0.00  0.00    +0.000 C 
ATOM     13  S   UNL     1       0.671  11.546  18.803  0.00  0.00    +0.000 S 
ENDBRANCH   6  13
ENDBRANCH   5   9
ENDBRANCH   1   5
BRANCH   2  14
ATOM     14  C   UNL     1       5.888   4.357  18.867  0.00  0.00    +0.000 C 
BRANCH  14  15
ATOM     15  C   UNL     1       6.367   5.130  17.679  0.00  0.00    +0.000 A 
ATOM     16  C   UNL     1       7.321   6.195  17.642  0.00  0.00    +0.000 A 
ATOM     17  C   UNL     1       8.070   6.840  18.753  0.00  0.00    +0.000 C 
ATOM     18  N   UNL     1       7.541   6.626  16.397  0.00  0.00    +0.000 NA
ATOM     19  N   UNL     1       6.767   5.847  15.637  0.00  0.00    +0.000 N 
ATOM     20  C   UNL     1       6.033   4.937  16.346  0.00  0.00    +0.000 A 
ATOM     21  C   UNL     1       5.133   3.981  15.660  0.00  0.00    +0.000 C 
ATOM     22  H   UNL     1       6.795   5.985  14.632  0.00  0.00    +0.000 HD
ENDBRANCH  14  15
ENDBRANCH   2  14
TORSDOF 5
ENDMDL
MODEL 2
REMARK VINA RESULT:      -6.8      1.164      2.245
REMARK  Name = 
REMARK  8 active torsions:
REMARK  status: ('A' for Active; 'I' for Inactive)
REMARK    1  A    between atoms: C_1  and  S_2
REMARK    2  A    between atoms: S_2  and  C_3
REMARK    3  A    between atoms: C_6  and  C_7
REMARK    4  A    between atoms: C_7  and  N_8
REMARK    5  A    between atoms: C_9  and  C_11
REMARK    6  A    between atoms: C_11  and  C_12
REMARK    7  A    between atoms: C_13  and  C_14
REMARK    8  A    between atoms: C_17  and  C_18
REMARK                            x       y       z     vdW  Elec       q    Type
REMARK                         _______ _______ _______ _____ _____    ______ ____
ROOT
ATOM      1  N   UNL     1       3.559   5.082  18.202  0.00  0.00    +0.000 N 
ATOM      2  C   UNL     1       4.565   4.143  18.130  0.00  0.00    +0.000 C 
ATOM      3  O   UNL     1       5.104   3.675  19.130  0.00  0.00    +0.000 OA
ATOM      4  H   UNL     1       3.090   5.383  17.361  0.00  0.00    +0.000 HD
ENDROOT
BRANCH   1   5
ATOM      5  C   UNL     1       3.119   5.622  19.471  0.00  0.00    +0.000 C 
BRANCH   5   9
ATOM      6  C   UNL     1       1.249   9.499  19.019  0.00  0.00    +0.000 A 
ATOM      7  C   UNL     1       1.970   8.931  17.968  0.00  0.00    +0.000 A 
ATOM      8  C   UNL     1       2.579   7.684  18.122  0.00  0.00    +0.000 A 
ATOM      9  C   UNL     1       2.483   6.982  19.331  0.00  0.00    +0.000 A 
ATOM     10  C   UNL     1       1.783   7.569  20.394  0.00  0.00    +0.000 A 
ATOM     11  C   UNL     1       1.171   8.819  20.237  0.00  0.00    +0.000 A 
BRANCH   6  13
ATOM     12  C   UNL     1      -0.519  11.117  20.371  0.00  0.00    +0.000 C 
ATOM     13  S   UNL     1       0.468  11.093  18.850  0.00  0.00    +0.000 S 
ENDBRANCH   6  13
ENDBRANCH   5   9
ENDBRANCH   1   5
BRANCH   2  14
ATOM     14  C   UNL     1       4.966   3.730  16.719  0.00  0.00    +0.000 C 
BRANCH  14  15
ATOM     15  C   UNL     1       6.055   4.581  16.143  0.00  0.00    +0.000 A 
ATOM     16  C   UNL     1       6.511   4.634  14.789  0.00  0.00    +0.000 A 
ATOM     17  C   UNL     1       6.064   3.858  13.602  0.00  0.00    +0.000 C 
ATOM     18  N   UNL     1       7.476   5.543  14.623  0.00  0.00    +0.000 NA
ATOM     19  N   UNL     1       7.629   6.085  15.833  0.00  0.00    +0.000 N 
ATOM     20  C   UNL     1       6.813   5.547  16.788  0.00  0.00    +0.000 A 
ATOM     21  C   UNL     1       6.840   6.043  18.183  0.00  0.00    +0.000 C 
ATOM     22  H   UNL     1       8.309   6.832  15.936  0.00  0.00    +0.000 HD
ENDBRANCH  14  15
ENDBRANCH   2  14
TORSDOF 5
ENDMDL
MODEL 3
REMARK VINA RESULT:      -6.7      0.707      1.288
REMARK  Name = 
REMARK  8 active torsions:
REMARK  status: ('A' for Active; 'I' for Inactive)
REMARK    1  A    between atoms: C_1  and  S_2
REMARK    2  A    between atoms: S_2  and  C_3
REMARK    3  A    between atoms: C_6  and  C_7
REMARK    4  A    between atoms: C_7  and  N_8
REMARK    5  A    between atoms: C_9  and  C_11
REMARK    6  A    between atoms: C_11  and  C_12
REMARK    7  A    between atoms: C_13  and  C_14
REMARK    8  A    between atoms: C_17  and  C_18
REMARK                            x       y       z     vdW  Elec       q    Type
REMARK                         _______ _______ _______ _____ _____    ______ ____
ROOT
ATOM      1  N   UNL     1       3.965   5.282  19.819  0.00  0.00    +0.000 N 
ATOM      2  C   UNL     1       4.370   4.496  18.762  0.00  0.00    +0.000 C 
ATOM      3  O   UNL     1       3.576   3.995  17.970  0.00  0.00    +0.000 OA
ATOM      4  H   UNL     1       4.653   5.738  20.400  0.00  0.00    +0.000 HD
ENDROOT
BRANCH   1   5
ATOM      5  C   UNL     1       2.563   5.512  20.094  0.00  0.00    +0.000 C 
BRANCH   5   9
ATOM      6  C   UNL     1       1.377   9.580  19.213  0.00  0.00    +0.000 A 
ATOM      7  C   UNL     1       1.093   9.011  20.455  0.00  0.00    +0.000 A 
ATOM      8  C   UNL     1       1.470   7.695  20.730  0.00  0.00    +0.000 A 
ATOM      9  C   UNL     1       2.134   6.921  19.769  0.00  0.00    +0.000 A 
ATOM     10  C   UNL     1       2.390   7.486  18.513  0.00  0.00    +0.000 A 
ATOM     11  C   UNL     1       2.013   8.807  18.238  0.00  0.00    +0.000 A 
BRANCH   6  13
ATOM     12  C   UNL     1       0.928  11.971  20.499  0.00  0.00    +0.000 C 
ATOM     13  S   UNL     1       0.899  11.256  18.832  0.00  0.00    +0.000 S 
ENDBRANCH   6  13
ENDBRANCH   5   9
ENDBRANCH   1   5
BRANCH   2  14
ATOM     14  C   UNL     1       5.875   4.288  18.649  0.00  0.00    +0.000 C 
BRANCH  14  15
ATOM     15  C   UNL     1       6.484   5.003  17.485  0.00  0.00    +0.000 A 
ATOM     16  C   UNL     1       7.347   6.144  17.501  0.00  0.00    +0.000 A 
ATOM     17  C   UNL     1       7.850   6.940  18.651  0.00  0.00    +0.000 C 
ATOM     18  N   UNL     1       7.737   6.492  16.272  0.00  0.00    +0.000 NA
ATOM     19  N   UNL     1       7.162   5.588  15.475  0.00  0.00    +0.000 N 
ATOM     20  C   UNL     1       6.392   4.675  16.140  0.00  0.00    +0.000 A 
ATOM     21  C   UNL     1       5.695   3.590  15.412  0.00  0.00    +0.000 C 
ATOM     22  H   UNL     1       7.346   5.648  14.479  0.00  0.00    +0.000 HD
ENDBRANCH  14  15
ENDBRANCH   2  14
TORSDOF 5
ENDMDL
MODEL 4
REMARK VINA RESULT:      -6.7      1.120      1.442
REMARK  Name = 
REMARK  8 active torsions:
REMARK  status: ('A' for Active; 'I' for Inactive)
REMARK    1  A    between atoms: C_1  and  S_2
REMARK    2  A    between atoms: S_2  and  C_3
REMARK    3  A    between atoms: C_6  and  C_7
REMARK    4  A    between atoms: C_7  and  N_8
REMARK    5  A    between atoms: C_9  and  C_11
REMARK    6  A    between atoms: C_11  and  C_12
REMARK    7  A    between atoms: C_13  and  C_14
REMARK    8  A    between atoms: C_17  and  C_18
REMARK                            x       y       z     vdW  Elec       q    Type
REMARK                         _______ _______ _______ _____ _____    ______ ____
ROOT
ATOM      1  N   UNL     1       3.446   5.267  18.277  0.00  0.00    +0.000 N 
ATOM      2  C   UNL     1       4.287   4.177  18.232  0.00  0.00    +0.000 C 
ATOM      3  O   UNL     1       4.681   3.605  19.245  0.00  0.00    +0.000 OA
ATOM      4  H   UNL     1       3.083   5.660  17.421  0.00  0.00    +0.000 HD
ENDROOT
BRANCH   1   5
ATOM      5  C   UNL     1       3.024   5.842  19.537  0.00  0.00    +0.000 C 
BRANCH   5   9
ATOM      6  C   UNL     1       1.086   9.675  18.996  0.00  0.00    +0.000 A 
ATOM      7  C   UNL     1       1.748   9.058  17.935  0.00  0.00    +0.000 A 
ATOM      8  C   UNL     1       2.380   7.826  18.117  0.00  0.00    +0.000 A 
ATOM      9  C   UNL     1       2.364   7.189  19.364  0.00  0.00    +0.000 A 
ATOM     10  C   UNL     1       1.723   7.825  20.436  0.00  0.00    +0.000 A 
ATOM     11  C   UNL     1       1.090   9.060  20.251  0.00  0.00    +0.000 A 
BRANCH   6  13
ATOM     12  C   UNL     1      -0.977  11.128  20.095  0.00  0.00    +0.000 C 
ATOM     13  S   UNL     1       0.279  11.252  18.792  0.00  0.00    +0.000 S 
ENDBRANCH   6  13
ENDBRANCH   5   9
ENDBRANCH   1   5
BRANCH   2  14
ATOM     14  C   UNL     1       4.701   3.736  16.833  0.00  0.00    +0.000 C 
BRANCH  14  15
ATOM     15  C   UNL     1       5.805   4.564  16.255  0.00  0.00    +0.000 A 
ATOM     16  C   UNL     1       6.706   5.438  16.941  0.00  0.00    +0.000 A 
ATOM     17  C   UNL     1       6.781   5.785  18.385  0.00  0.00    +0.000 C 
ATOM     18  N   UNL     1       7.598   5.987  16.112  0.00  0.00    +0.000 NA
ATOM     19  N   UNL     1       7.302   5.466  14.918  0.00  0.00    +0.000 N 
ATOM     20  C   UNL     1       6.233   4.614  14.936  0.00  0.00    +0.000 A 
ATOM     21  C   UNL     1       5.778   3.934  13.702  0.00  0.00    +0.000 C 
ATOM     22  H   UNL     1       7.880   5.731  14.128  0.00  0.00    +0.000 HD
ENDBRANCH  14  15
ENDBRANCH   2  14
TORSDOF 5
ENDMDL
MODEL 5
REMARK VINA RESULT:      -6.7      1.183      1.721
REMARK  Name = 
REMARK  8 active torsions:
REMARK  status: ('A' for Active; 'I' for Inactive)
REMARK    1  A    between atoms: C_1  and  S_2
REMARK    2  A    between atoms: S_2  and  C_3
REMARK    3  A    between atoms: C_6  and  C_7
REMARK    4  A    between atoms: C_7  and  N_8
REMARK    5  A    between atoms: C_9  and  C_11
REMARK    6  A    between atoms: C_11  and  C_12
REMARK    7  A    between atoms: C_13  and  C_14
REMARK    8  A    between atoms: C_17  and  C_18
REMARK                            x       y       z     vdW  Elec       q    Type
REMARK                         _______ _______ _______ _____ _____    ______ ____
ROOT
ATOM      1  N   UNL     1       4.026   5.453  19.450  0.00  0.00    +0.000 N 
ATOM      2  C   UNL     1       4.239   4.452  18.528  0.00  0.00    +0.000 C 
ATOM      3  O   UNL     1       3.333   3.732  18.113  0.00  0.00    +0.000 OA
ATOM      4  H   UNL     1       4.780   6.072  19.706  0.00  0.00    +0.000 HD
ENDROOT
BRANCH   1   5
ATOM      5  C   UNL     1       2.720   5.674  20.036  0.00  0.00    +0.000 C 
BRANCH   5   9
ATOM      6  C   UNL     1       1.200   9.642  19.212  0.00  0.00    +0.000 A 
ATOM      7  C   UNL     1       0.998   9.049  20.458  0.00  0.00    +0.000 A 
ATOM      8  C   UNL     1       1.482   7.764  20.716  0.00  0.00    +0.000 A 
ATOM      9  C   UNL     1       2.175   7.047  19.731  0.00  0.00    +0.000 A 
ATOM     10  C   UNL     1       2.351   7.635  18.472  0.00  0.00    +0.000 A 
ATOM     11  C   UNL     1       1.866   8.923  18.215  0.00  0.00    +0.000 A 
BRANCH   6  13
ATOM     12  C   UNL     1      -1.116  10.869  18.373  0.00  0.00    +0.000 C 
ATOM     13  S   UNL     1       0.585  11.277  18.856  0.00  0.00    +0.000 S 
ENDBRANCH   6  13
ENDBRANCH   5   9
ENDBRANCH   1   5
BRANCH   2  14
ATOM     14  C   UNL     1       5.681   4.298  18.062  0.00  0.00    +0.000 C 
BRANCH  14  15
ATOM     15  C   UNL     1       6.365   5.606  17.815  0.00  0.00    +0.000 A 
ATOM     16  C   UNL     1       7.467   6.175  18.526  0.00  0.00    +0.000 A 
ATOM     17  C   UNL     1       8.212   5.654  19.702  0.00  0.00    +0.000 C 
ATOM     18  N   UNL     1       7.849   7.344  18.003  0.00  0.00    +0.000 NA
ATOM     19  N   UNL     1       7.031   7.522  16.962  0.00  0.00    +0.000 N 
ATOM     20  C   UNL     1       6.115   6.520  16.801  0.00  0.00    +0.000 A 
ATOM     21  C   UNL     1       5.140   6.549  15.686  0.00  0.00    +0.000 C 
ATOM     22  H   UNL     1       7.161   8.352  16.393  0.00  0.00    +0.000 HD
ENDBRANCH  14  15
ENDBRANCH   2  14
TORSDOF 5
ENDMDL
MODEL 6
REMARK VINA RESULT:      -6.7      1.209      2.053
REMARK  Name = 
REMARK  8 active torsions:
REMARK  status: ('A' for Active; 'I' for Inactive)
REMARK    1  A    between atoms: C_1  and  S_2
REMARK    2  A    between atoms: S_2  and  C_3
REMARK    3  A    between atoms: C_6  and  C_7
REMARK    4  A    between atoms: C_7  and  N_8
REMARK    5  A    between atoms: C_9  and  C_11
REMARK    6  A    between atoms: C_11  and  C_12
REMARK    7  A    between atoms: C_13  and  C_14
REMARK    8  A    between atoms: C_17  and  C_18
REMARK                            x       y       z     vdW  Elec       q    Type
REMARK                         _______ _______ _______ _____ _____    ______ ____
ROOT
ATOM      1  N   UNL     1       4.084   5.350  19.407  0.00  0.00    +0.000 N 
ATOM      2  C   UNL     1       4.292   4.364  18.468  0.00  0.00    +0.000 C 
ATOM      3  O   UNL     1       3.382   3.662  18.034  0.00  0.00    +0.000 OA
ATOM      4  H   UNL     1       4.843   5.955  19.680  0.00  0.00    +0.000 HD
ENDROOT
BRANCH   1   5
ATOM      5  C   UNL     1       2.777   5.575  19.988  0.00  0.00    +0.000 C 
BRANCH   5   9
ATOM      6  C   UNL     1       1.224   9.524  19.136  0.00  0.00    +0.000 A 
ATOM      7  C   UNL     1       1.930   8.814  18.164  0.00  0.00    +0.000 A 
ATOM      8  C   UNL     1       2.437   7.544  18.448  0.00  0.00    +0.000 A 
ATOM      9  C   UNL     1       2.251   6.961  19.708  0.00  0.00    +0.000 A 
ATOM     10  C   UNL     1       1.567   7.690  20.691  0.00  0.00    +0.000 A 
ATOM     11  C   UNL     1       1.059   8.963  20.405  0.00  0.00    +0.000 A 
BRANCH   6  13
ATOM     12  C   UNL     1      -1.184  10.748  18.609  0.00  0.00    +0.000 C 
ATOM     13  S   UNL     1       0.574  11.151  18.802  0.00  0.00    +0.000 S 
ENDBRANCH   6  13
ENDBRANCH   5   9
ENDBRANCH   1   5
BRANCH   2  14
ATOM     14  C   UNL     1       5.736   4.202  18.009  0.00  0.00    +0.000 C 
BRANCH  14  15
ATOM     15  C   UNL     1       6.438   5.507  17.798  0.00  0.00    +0.000 A 
ATOM     16  C   UNL     1       6.171   6.504  16.808  0.00  0.00    +0.000 A 
ATOM     17  C   UNL     1       5.162   6.514  15.716  0.00  0.00    +0.000 C 
ATOM     18  N   UNL     1       6.970   7.566  16.941  0.00  0.00    +0.000 NA
ATOM     19  N   UNL     1       7.724   7.280  18.005  0.00  0.00    +0.000 N 
ATOM     20  C   UNL     1       7.460   6.058  18.558  0.00  0.00    +0.000 A 
ATOM     21  C   UNL     1       8.193   5.587  19.755  0.00  0.00    +0.000 C 
ATOM     22  H   UNL     1       8.400   7.973  18.308  0.00  0.00    +0.000 HD
ENDBRANCH  14  15
ENDBRANCH   2  14
TORSDOF 5
ENDMDL
MODEL 7
REMARK VINA RESULT:      -6.6      1.134      2.225
REMARK  Name = 
REMARK  8 active torsions:
REMARK  status: ('A' for Active; 'I' for Inactive)
REMARK    1  A    between atoms: C_1  and  S_2
REMARK    2  A    between atoms: S_2  and  C_3
REMARK    3  A    between atoms: C_6  and  C_7
REMARK    4  A    between atoms: C_7  and  N_8
REMARK    5  A    between atoms: C_9  and  C_11
REMARK    6  A    between atoms: C_11  and  C_12
REMARK    7  A    between atoms: C_13  and  C_14
REMARK    8  A    between atoms: C_17  and  C_18
REMARK                            x       y       z     vdW  Elec       q    Type
REMARK                         _______ _______ _______ _____ _____    ______ ____
ROOT
ATOM      1  N   UNL     1       4.083   5.327  19.458  0.00  0.00    +0.000 N 
ATOM      2  C   UNL     1       4.274   4.386  18.470  0.00  0.00    +0.000 C 
ATOM      3  O   UNL     1       3.350   3.731  17.995  0.00  0.00    +0.000 OA
ATOM      4  H   UNL     1       4.856   5.898  19.767  0.00  0.00    +0.000 HD
ENDROOT
BRANCH   1   5
ATOM      5  C   UNL     1       2.778   5.554  20.041  0.00  0.00    +0.000 C 
BRANCH   5   9
ATOM      6  C   UNL     1       1.275   9.526  19.204  0.00  0.00    +0.000 A 
ATOM      7  C   UNL     1       1.059   8.933  20.448  0.00  0.00    +0.000 A 
ATOM      8  C   UNL     1       1.538   7.647  20.710  0.00  0.00    +0.000 A 
ATOM      9  C   UNL     1       2.239   6.929  19.732  0.00  0.00    +0.000 A 
ATOM     10  C   UNL     1       2.428   7.517  18.474  0.00  0.00    +0.000 A 
ATOM     11  C   UNL     1       1.948   8.806  18.213  0.00  0.00    +0.000 A 
BRANCH   6  13
ATOM     12  C   UNL     1       1.078  11.997  20.400  0.00  0.00    +0.000 C 
ATOM     13  S   UNL     1       0.666  11.163  18.843  0.00  0.00    +0.000 S 
ENDBRANCH   6  13
ENDBRANCH   5   9
ENDBRANCH   1   5
BRANCH   2  14
ATOM     14  C   UNL     1       5.718   4.211  18.013  0.00  0.00    +0.000 C 
BRANCH  14  15
ATOM     15  C   UNL     1       6.430   5.510  17.800  0.00  0.00    +0.000 A 
ATOM     16  C   UNL     1       6.170   6.508  16.810  0.00  0.00    +0.000 A 
ATOM     17  C   UNL     1       5.159   6.527  15.720  0.00  0.00    +0.000 C 
ATOM     18  N   UNL     1       6.978   7.564  16.941  0.00  0.00    +0.000 NA
ATOM     19  N   UNL     1       7.732   7.272  18.004  0.00  0.00    +0.000 N 
ATOM     20  C   UNL     1       7.458   6.052  18.558  0.00  0.00    +0.000 A 
ATOM     21  C   UNL     1       8.190   5.575  19.754  0.00  0.00    +0.000 C 
ATOM     22  H   UNL     1       8.414   7.959  18.306  0.00  0.00    +0.000 HD
ENDBRANCH  14  15
ENDBRANCH   2  14
TORSDOF 5
ENDMDL
MODEL 8
REMARK VINA RESULT:      -6.5      0.874      1.022
REMARK  Name = 
REMARK  8 active torsions:
REMARK  status: ('A' for Active; 'I' for Inactive)
REMARK    1  A    between atoms: C_1  and  S_2
REMARK    2  A    between atoms: S_2  and  C_3
REMARK    3  A    between atoms: C_6  and  C_7
REMARK    4  A    between atoms: C_7  and  N_8
REMARK    5  A    between atoms: C_9  and  C_11
REMARK    6  A    between atoms: C_11  and  C_12
REMARK    7  A    between atoms: C_13  and  C_14
REMARK    8  A    between atoms: C_17  and  C_18
REMARK                            x       y       z     vdW  Elec       q    Type
REMARK                         _______ _______ _______ _____ _____    ______ ____
ROOT
ATOM      1  N   UNL     1       4.026   5.955  18.960  0.00  0.00    +0.000 N 
ATOM      2  C   UNL     1       4.709   4.799  19.266  0.00  0.00    +0.000 C 
ATOM      3  O   UNL     1       4.139   3.770  19.621  0.00  0.00    +0.000 OA
ATOM      4  H   UNL     1       4.525   6.754  18.598  0.00  0.00    +0.000 HD
ENDROOT
BRANCH   1   5
ATOM      5  C   UNL     1       2.588   6.042  19.100  0.00  0.00    +0.000 C 
BRANCH   5   9
ATOM      6  C   UNL     1       1.121  10.115  19.097  0.00  0.00    +0.000 A 
ATOM      7  C   UNL     1       1.674   9.559  17.944  0.00  0.00    +0.000 A 
ATOM      8  C   UNL     1       2.155   8.248  17.953  0.00  0.00    +0.000 A 
ATOM      9  C   UNL     1       2.094   7.468  19.115  0.00  0.00    +0.000 A 
ATOM     10  C   UNL     1       1.564   8.039  20.280  0.00  0.00    +0.000 A 
ATOM     11  C   UNL     1       1.082   9.355  20.270  0.00  0.00    +0.000 A 
BRANCH   6  13
ATOM     12  C   UNL     1      -1.155  11.503  19.782  0.00  0.00    +0.000 C 
ATOM     13  S   UNL     1       0.508  11.789  19.115  0.00  0.00    +0.000 S 
ENDBRANCH   6  13
ENDBRANCH   5   9
ENDBRANCH   1   5
BRANCH   2  14
ATOM     14  C   UNL     1       6.225   4.889  19.140  0.00  0.00    +0.000 C 
BRANCH  14  15
ATOM     15  C   UNL     1       6.676   5.422  17.816  0.00  0.00    +0.000 A 
ATOM     16  C   UNL     1       7.517   6.548  17.556  0.00  0.00    +0.000 A 
ATOM     17  C   UNL     1       8.146   7.505  18.505  0.00  0.00    +0.000 C 
ATOM     18  N   UNL     1       7.748   6.709  16.251  0.00  0.00    +0.000 NA
ATOM     19  N   UNL     1       7.093   5.699  15.673  0.00  0.00    +0.000 N 
ATOM     20  C   UNL     1       6.424   4.897  16.556  0.00  0.00    +0.000 A 
ATOM     21  C   UNL     1       5.658   3.720  16.088  0.00  0.00    +0.000 C 
ATOM     22  H   UNL     1       7.152   5.609  14.664  0.00  0.00    +0.000 HD
ENDBRANCH  14  15
ENDBRANCH   2  14
TORSDOF 5
ENDMDL
MODEL 9
REMARK VINA RESULT:      -6.5      0.874      2.296
REMARK  Name = 
REMARK  8 active torsions:
REMARK  status: ('A' for Active; 'I' for Inactive)
REMARK    1  A    between atoms: C_1  and  S_2
REMARK    2  A    between atoms: S_2  and  C_3
REMARK    3  A    between atoms: C_6  and  C_7
REMARK    4  A    between atoms: C_7  and  N_8
REMARK    5  A    between atoms: C_9  and  C_11
REMARK    6  A    between atoms: C_11  and  C_12
REMARK    7  A    between atoms: C_13  and  C_14
REMARK    8  A    between atoms: C_17  and  C_18
REMARK                            x       y       z     vdW  Elec       q    Type
REMARK                         _______ _______ _______ _____ _____    ______ ____
ROOT
ATOM      1  N   UNL     1       4.016   5.044  19.620  0.00  0.00    +0.000 N 
ATOM      2  C   UNL     1       4.314   4.128  18.635  0.00  0.00    +0.000 C 
ATOM      3  O   UNL     1       3.445   3.534  18.002  0.00  0.00    +0.000 OA
ATOM      4  H   UNL     1       4.757   5.568  20.062  0.00  0.00    +0.000 HD
ENDROOT
BRANCH   1   5
ATOM      5  C   UNL     1       2.649   5.315  20.010  0.00  0.00    +0.000 C 
BRANCH   5   9
ATOM      6  C   UNL     1       1.459   9.370  19.077  0.00  0.00    +0.000 A 
ATOM      7  C   UNL     1       1.234   8.839  20.347  0.00  0.00    +0.000 A 
ATOM      8  C   UNL     1       1.611   7.527  20.640  0.00  0.00    +0.000 A 
ATOM      9  C   UNL     1       2.217   6.720  19.668  0.00  0.00    +0.000 A 
ATOM     10  C   UNL     1       2.415   7.247  18.385  0.00  0.00    +0.000 A 
ATOM     11  C   UNL     1       2.036   8.564  18.092  0.00  0.00    +0.000 A 
BRANCH   6  13
ATOM     12  C   UNL     1      -0.810  10.808  18.474  0.00  0.00    +0.000 C 
ATOM     13  S   UNL     1       0.979  11.040  18.675  0.00  0.00    +0.000 S 
ENDBRANCH   6  13
ENDBRANCH   5   9
ENDBRANCH   1   5
BRANCH   2  14
ATOM     14  C   UNL     1       5.801   3.899  18.392  0.00  0.00    +0.000 C 
BRANCH  14  15
ATOM     15  C   UNL     1       6.381   4.826  17.370  0.00  0.00    +0.000 A 
ATOM     16  C   UNL     1       6.148   4.843  15.959  0.00  0.00    +0.000 A 
ATOM     17  C   UNL     1       5.306   3.948  15.123  0.00  0.00    +0.000 C 
ATOM     18  N   UNL     1       6.802   5.841  15.358  0.00  0.00    +0.000 NA
ATOM     19  N   UNL     1       7.427   6.473  16.353  0.00  0.00    +0.000 N 
ATOM     20  C   UNL     1       7.222   5.909  17.582  0.00  0.00    +0.000 A 
ATOM     21  C   UNL     1       7.827   6.493  18.801  0.00  0.00    +0.000 C 
ATOM     22  H   UNL     1       7.975   7.295  16.123  0.00  0.00    +0.000 HD
ENDBRANCH  14  15
ENDBRANCH   2  14
TORSDOF 5
ENDMDL
