MODEL 1
REMARK VINA RESULT:      -9.4      0.000      0.000
REMARK  Name = 
REMARK  5 active torsions:
REMARK  status: ('A' for Active; 'I' for Inactive)
REMARK    1  A    between atoms: C_1  and  C_2
REMARK    2  A    between atoms: N_4  and  C_5
REMARK    3  A    between atoms: C_5  and  C_6
REMARK    4  A    between atoms: C_6  and  C_7
REMARK    5  A    between atoms: C_10  and  N_11
REMARK                            x       y       z     vdW  Elec       q    Type
REMARK                         _______ _______ _______ _____ _____    ______ ____
ROOT
ATOM      1  C   UNL     1       7.672   7.884  18.237  0.00  0.00    +0.000 C 
ATOM      2  C   UNL     1       6.766   7.675  17.021  0.00  0.00    +0.000 C 
ATOM      3  C   UNL     1       5.642   6.687  17.299  0.00  0.00    +0.000 C 
ATOM      4  C   UNL     1       6.194   5.323  17.700  0.00  0.00    +0.000 C 
ATOM      5  C   UNL     1       7.084   5.473  18.949  0.00  0.00    +0.000 C 
ATOM      6  C   UNL     1       8.212   6.515  18.724  0.00  0.00    +0.000 C 
ENDROOT
BRANCH   4   7
ATOM      7  N   UNL     1       5.151   4.287  17.823  0.00  0.00    +0.000 N 
ATOM      8  C   UNL     1       4.342   4.026  16.778  0.00  0.00    +0.000 C 
ATOM      9  O   UNL     1       4.569   4.063  15.577  0.00  0.00    +0.000 OA
ATOM     10  C   UNL     1       3.181   3.387  17.342  0.00  0.00    +0.000 A 
ATOM     11  C   UNL     1       1.923   3.953  17.500  0.00  0.00    +0.000 A 
ATOM     12  C   UNL     1       1.028   3.317  18.354  0.00  0.00    +0.000 A 
ATOM     13  C   UNL     1       1.408   2.117  18.964  0.00  0.00    +0.000 A 
ATOM     14  C   UNL     1       2.762   1.755  18.985  0.00  0.00    +0.000 A 
ATOM     15  C   UNL     1       3.667   2.565  18.322  0.00  0.00    +0.000 A 
ATOM     16  C   UNL     1       4.797   3.431  18.834  0.00  0.00    +0.000 C 
ATOM     17  O   UNL     1       5.182   3.445  20.023  0.00  0.00    +0.000 OA
ENDBRANCH   4   7
BRANCH   1  18
ATOM     18  C   UNL     1       8.788   8.920  17.927  0.00  0.00    +0.000 C 
BRANCH  18  19
ATOM     19  C   UNL     1       8.529  10.288  18.611  0.00  0.00    +0.000 C 
BRANCH  19  23
ATOM     20  C   UNL     1       9.959  13.888  21.630  0.00  0.00    +0.000 C 
ATOM     21  C   UNL     1      10.470  13.145  20.383  0.00  0.00    +0.000 C 
ATOM     22  C   UNL     1       9.311  12.299  19.774  0.00  0.00    +0.000 C 
ATOM     23  N   UNL     1       9.712  11.065  19.062  0.00  0.00    +0.000 NA
ATOM     24  C   UNL     1      10.526  11.352  17.853  0.00  0.00    +0.000 C 
ATOM     25  C   UNL     1      11.901  11.963  18.129  0.00  0.00    +0.000 C 
ATOM     26  C   UNL     1      11.799  13.464  18.249  0.00  0.00    +0.000 A 
ATOM     27  C   UNL     1      12.333  14.266  17.226  0.00  0.00    +0.000 A 
ATOM     28  C   UNL     1      12.195  15.649  17.266  0.00  0.00    +0.000 A 
ATOM     29  C   UNL     1      11.531  16.237  18.336  0.00  0.00    +0.000 A 
ATOM     30 CL   UNL     1      11.352  17.949  18.388  0.00  0.00    +0.000 Cl
ATOM     31  C   UNL     1      10.993  15.452  19.359  0.00  0.00    +0.000 A 
ATOM     32  C   UNL     1      11.106  14.050  19.329  0.00  0.00    +0.000 A 
ENDBRANCH  19  23
ENDBRANCH  18  19
ENDBRANCH   1  18
TORSDOF 4
ENDMDL
MODEL 2
REMARK VINA RESULT:      -9.3      7.560     10.596
REMARK  Name = 
REMARK  5 active torsions:
REMARK  status: ('A' for Active; 'I' for Inactive)
REMARK    1  A    between atoms: C_1  and  C_2
REMARK    2  A    between atoms: N_4  and  C_5
REMARK    3  A    between atoms: C_5  and  C_6
REMARK    4  A    between atoms: C_6  and  C_7
REMARK    5  A    between atoms: C_10  and  N_11
REMARK                            x       y       z     vdW  Elec       q    Type
REMARK                         _______ _______ _______ _____ _____    ______ ____
ROOT
ATOM      1  C   UNL     1       1.489   8.889  18.471  0.00  0.00    +0.000 C 
ATOM      2  C   UNL     1       1.235   8.816  19.979  0.00  0.00    +0.000 C 
ATOM      3  C   UNL     1       0.031   9.645  20.405  0.00  0.00    +0.000 C 
ATOM      4  C   UNL     1       0.219  11.115  20.042  0.00  0.00    +0.000 C 
ATOM      5  C   UNL     1       0.439  11.248  18.523  0.00  0.00    +0.000 C 
ATOM      6  C   UNL     1       1.626  10.372  18.040  0.00  0.00    +0.000 C 
ENDROOT
BRANCH   4   7
ATOM      7  N   UNL     1      -0.845  11.986  20.577  0.00  0.00    +0.000 N 
ATOM      8  C   UNL     1      -0.637  12.672  21.717  0.00  0.00    +0.000 C 
ATOM      9  O   UNL     1       0.389  13.165  22.164  0.00  0.00    +0.000 OA
ATOM     10  C   UNL     1      -1.949  12.992  22.217  0.00  0.00    +0.000 A 
ATOM     11  C   UNL     1      -2.583  12.406  23.304  0.00  0.00    +0.000 A 
ATOM     12  C   UNL     1      -3.954  12.599  23.436  0.00  0.00    +0.000 A 
ATOM     13  C   UNL     1      -4.618  13.413  22.513  0.00  0.00    +0.000 A 
ATOM     14  C   UNL     1      -3.986  13.738  21.305  0.00  0.00    +0.000 A 
ATOM     15  C   UNL     1      -2.686  13.306  21.108  0.00  0.00    +0.000 A 
ATOM     16  C   UNL     1      -2.100  12.310  20.131  0.00  0.00    +0.000 C 
ATOM     17  O   UNL     1      -2.747  11.781  19.203  0.00  0.00    +0.000 OA
ENDBRANCH   4   7
BRANCH   1  18
ATOM     18  C   UNL     1       2.704   8.008  18.069  0.00  0.00    +0.000 C 
BRANCH  18  19
ATOM     19  C   UNL     1       2.826   6.736  18.949  0.00  0.00    +0.000 C 
BRANCH  19  23
ATOM     20  C   UNL     1       7.659   6.221  18.252  0.00  0.00    +0.000 C 
ATOM     21  C   UNL     1       6.350   5.490  17.905  0.00  0.00    +0.000 C 
ATOM     22  C   UNL     1       5.141   6.425  18.205  0.00  0.00    +0.000 C 
ATOM     23  N   UNL     1       3.879   5.752  18.589  0.00  0.00    +0.000 NA
ATOM     24  C   UNL     1       3.331   4.915  17.490  0.00  0.00    +0.000 C 
ATOM     25  C   UNL     1       4.182   3.700  17.116  0.00  0.00    +0.000 C 
ATOM     26  C   UNL     1       5.240   4.084  16.112  0.00  0.00    +0.000 A 
ATOM     27  C   UNL     1       5.117   3.631  14.786  0.00  0.00    +0.000 A 
ATOM     28  C   UNL     1       6.034   4.022  13.817  0.00  0.00    +0.000 A 
ATOM     29  C   UNL     1       7.084   4.861  14.170  0.00  0.00    +0.000 A 
ATOM     30 CL   UNL     1       8.218   5.354  12.972  0.00  0.00    +0.000 Cl
ATOM     31  C   UNL     1       7.217   5.322  15.482  0.00  0.00    +0.000 A 
ATOM     32  C   UNL     1       6.291   4.952  16.475  0.00  0.00    +0.000 A 
ENDBRANCH  19  23
ENDBRANCH  18  19
ENDBRANCH   1  18
TORSDOF 4
ENDMDL
MODEL 3
REMARK VINA RESULT:      -9.2      8.171     11.486
REMARK  Name = 
REMARK  5 active torsions:
REMARK  status: ('A' for Active; 'I' for Inactive)
REMARK    1  A    between atoms: C_1  and  C_2
REMARK    2  A    between atoms: N_4  and  C_5
REMARK    3  A    between atoms: C_5  and  C_6
REMARK    4  A    between atoms: C_6  and  C_7
REMARK    5  A    between atoms: C_10  and  N_11
REMARK                            x       y       z     vdW  Elec       q    Type
REMARK                         _______ _______ _______ _____ _____    ______ ____
ROOT
ATOM      1  C   UNL     1       0.983   9.529  19.497  0.00  0.00    +0.000 C 
ATOM      2  C   UNL     1       0.999   8.189  20.238  0.00  0.00    +0.000 C 
ATOM      3  C   UNL     1       2.280   7.405  19.988  0.00  0.00    +0.000 C 
ATOM      4  C   UNL     1       2.465   7.110  18.503  0.00  0.00    +0.000 C 
ATOM      5  C   UNL     1       2.495   8.432  17.714  0.00  0.00    +0.000 C 
ATOM      6  C   UNL     1       1.229   9.288  17.985  0.00  0.00    +0.000 C 
ENDROOT
BRANCH   4   7
ATOM      7  N   UNL     1       3.604   6.215  18.226  0.00  0.00    +0.000 N 
ATOM      8  C   UNL     1       3.997   5.324  19.157  0.00  0.00    +0.000 C 
ATOM      9  O   UNL     1       3.340   4.705  19.983  0.00  0.00    +0.000 OA
ATOM     10  C   UNL     1       5.356   4.990  18.819  0.00  0.00    +0.000 A 
ATOM     11  C   UNL     1       6.499   5.404  19.490  0.00  0.00    +0.000 A 
ATOM     12  C   UNL     1       7.720   5.264  18.838  0.00  0.00    +0.000 A 
ATOM     13  C   UNL     1       7.751   4.665  17.575  0.00  0.00    +0.000 A 
ATOM     14  C   UNL     1       6.558   4.529  16.850  0.00  0.00    +0.000 A 
ATOM     15  C   UNL     1       5.376   4.920  17.453  0.00  0.00    +0.000 A 
ATOM     16  C   UNL     1       4.413   6.042  17.133  0.00  0.00    +0.000 C 
ATOM     17  O   UNL     1       4.496   6.763  16.116  0.00  0.00    +0.000 OA
ENDBRANCH   4   7
BRANCH   1  18
ATOM     18  C   UNL     1      -0.323  10.315  19.798  0.00  0.00    +0.000 C 
BRANCH  18  19
ATOM     19  C   UNL     1      -1.203  10.503  18.534  0.00  0.00    +0.000 C 
BRANCH  19  23
ATOM     20  C   UNL     1      -3.166  13.999  21.369  0.00  0.00    +0.000 C 
ATOM     21  C   UNL     1      -3.559  13.118  20.170  0.00  0.00    +0.000 C 
ATOM     22  C   UNL     1      -2.500  11.989  19.990  0.00  0.00    +0.000 C 
ATOM     23  N   UNL     1      -2.301  11.501  18.606  0.00  0.00    +0.000 NA
ATOM     24  C   UNL     1      -3.517  10.846  18.060  0.00  0.00    +0.000 C 
ATOM     25  C   UNL     1      -4.713  11.776  17.848  0.00  0.00    +0.000 C 
ATOM     26  C   UNL     1      -5.518  11.901  19.119  0.00  0.00    +0.000 A 
ATOM     27  C   UNL     1      -6.786  11.298  19.184  0.00  0.00    +0.000 A 
ATOM     28  C   UNL     1      -7.526  11.330  20.361  0.00  0.00    +0.000 A 
ATOM     29  C   UNL     1      -7.005  11.976  21.475  0.00  0.00    +0.000 A 
ATOM     30 CL   UNL     1      -7.914  12.015  22.937  0.00  0.00    +0.000 Cl
ATOM     31  C   UNL     1      -5.745  12.578  21.426  0.00  0.00    +0.000 A 
ATOM     32  C   UNL     1      -4.973  12.541  20.251  0.00  0.00    +0.000 A 
ENDBRANCH  19  23
ENDBRANCH  18  19
ENDBRANCH   1  18
TORSDOF 4
ENDMDL
MODEL 4
REMARK VINA RESULT:      -9.0      2.039      2.405
REMARK  Name = 
REMARK  5 active torsions:
REMARK  status: ('A' for Active; 'I' for Inactive)
REMARK    1  A    between atoms: C_1  and  C_2
REMARK    2  A    between atoms: N_4  and  C_5
REMARK    3  A    between atoms: C_5  and  C_6
REMARK    4  A    between atoms: C_6  and  C_7
REMARK    5  A    between atoms: C_10  and  N_11
REMARK                            x       y       z     vdW  Elec       q    Type
REMARK                         _______ _______ _______ _____ _____    ______ ____
ROOT
ATOM      1  C   UNL     1       7.606   8.130  18.189  0.00  0.00    +0.000 C 
ATOM      2  C   UNL     1       6.744   7.868  16.951  0.00  0.00    +0.000 C 
ATOM      3  C   UNL     1       5.650   6.842  17.212  0.00  0.00    +0.000 C 
ATOM      4  C   UNL     1       6.242   5.506  17.650  0.00  0.00    +0.000 C 
ATOM      5  C   UNL     1       7.090   5.708  18.921  0.00  0.00    +0.000 C 
ATOM      6  C   UNL     1       8.183   6.789  18.712  0.00  0.00    +0.000 C 
ENDROOT
BRANCH   4   7
ATOM      7  N   UNL     1       5.236   4.432  17.760  0.00  0.00    +0.000 N 
ATOM      8  C   UNL     1       4.423   4.169  16.719  0.00  0.00    +0.000 C 
ATOM      9  O   UNL     1       4.634   4.244  15.516  0.00  0.00    +0.000 OA
ATOM     10  C   UNL     1       3.291   3.478  17.280  0.00  0.00    +0.000 A 
ATOM     11  C   UNL     1       2.018   3.997  17.467  0.00  0.00    +0.000 A 
ATOM     12  C   UNL     1       1.155   3.311  18.315  0.00  0.00    +0.000 A 
ATOM     13  C   UNL     1       1.582   2.111  18.891  0.00  0.00    +0.000 A 
ATOM     14  C   UNL     1       2.948   1.794  18.887  0.00  0.00    +0.000 A 
ATOM     15  C   UNL     1       3.817   2.650  18.234  0.00  0.00    +0.000 A 
ATOM     16  C   UNL     1       4.924   3.541  18.754  0.00  0.00    +0.000 C 
ATOM     17  O   UNL     1       5.322   3.539  19.937  0.00  0.00    +0.000 OA
ENDBRANCH   4   7
BRANCH   1  18
ATOM     18  C   UNL     1       8.690   9.203  17.894  0.00  0.00    +0.000 C 
BRANCH  18  19
ATOM     19  C   UNL     1       9.276   9.820  19.191  0.00  0.00    +0.000 C 
BRANCH  19  23
ATOM     20  C   UNL     1       9.511  13.763  22.109  0.00  0.00    +0.000 C 
ATOM     21  C   UNL     1       9.366  13.431  20.613  0.00  0.00    +0.000 C 
ATOM     22  C   UNL     1       9.055  11.912  20.449  0.00  0.00    +0.000 C 
ATOM     23  N   UNL     1       9.536  11.283  19.198  0.00  0.00    +0.000 NA
ATOM     24  C   UNL     1       8.872  11.845  17.994  0.00  0.00    +0.000 C 
ATOM     25  C   UNL     1       9.198  13.311  17.700  0.00  0.00    +0.000 C 
ATOM     26  C   UNL     1       8.273  14.223  18.468  0.00  0.00    +0.000 A 
ATOM     27  C   UNL     1       7.290  14.943  17.767  0.00  0.00    +0.000 A 
ATOM     28  C   UNL     1       6.374  15.738  18.447  0.00  0.00    +0.000 A 
ATOM     29  C   UNL     1       6.443  15.824  19.832  0.00  0.00    +0.000 A 
ATOM     30 CL   UNL     1       5.308  16.801  20.680  0.00  0.00    +0.000 Cl
ATOM     31  C   UNL     1       7.412  15.111  20.543  0.00  0.00    +0.000 A 
ATOM     32  C   UNL     1       8.337  14.288  19.876  0.00  0.00    +0.000 A 
ENDBRANCH  19  23
ENDBRANCH  18  19
ENDBRANCH   1  18
TORSDOF 4
ENDMDL
MODEL 5
REMARK VINA RESULT:      -9.0      7.359     10.497
REMARK  Name = 
REMARK  5 active torsions:
REMARK  status: ('A' for Active; 'I' for Inactive)
REMARK    1  A    between atoms: C_1  and  C_2
REMARK    2  A    between atoms: N_4  and  C_5
REMARK    3  A    between atoms: C_5  and  C_6
REMARK    4  A    between atoms: C_6  and  C_7
REMARK    5  A    between atoms: C_10  and  N_11
REMARK                            x       y       z     vdW  Elec       q    Type
REMARK                         _______ _______ _______ _____ _____    ______ ____
ROOT
ATOM      1  C   UNL     1       1.983   8.688  19.030  0.00  0.00    +0.000 C 
ATOM      2  C   UNL     1       0.978   9.554  18.266  0.00  0.00    +0.000 C 
ATOM      3  C   UNL     1       0.452  10.709  19.107  0.00  0.00    +0.000 C 
ATOM      4  C   UNL     1      -0.243  10.202  20.367  0.00  0.00    +0.000 C 
ATOM      5  C   UNL     1       0.742   9.355  21.194  0.00  0.00    +0.000 C 
ATOM      6  C   UNL     1       1.344   8.196  20.355  0.00  0.00    +0.000 C 
ENDROOT
BRANCH   4   7
ATOM      7  N   UNL     1      -0.910  11.272  21.133  0.00  0.00    +0.000 N 
ATOM      8  C   UNL     1      -1.574  12.246  20.481  0.00  0.00    +0.000 C 
ATOM      9  O   UNL     1      -2.206  12.205  19.434  0.00  0.00    +0.000 OA
ATOM     10  C   UNL     1      -1.660  13.341  21.412  0.00  0.00    +0.000 A 
ATOM     11  C   UNL     1      -0.937  14.525  21.363  0.00  0.00    +0.000 A 
ATOM     12  C   UNL     1      -0.903  15.312  22.509  0.00  0.00    +0.000 A 
ATOM     13  C   UNL     1      -1.637  14.913  23.630  0.00  0.00    +0.000 A 
ATOM     14  C   UNL     1      -2.109  13.595  23.708  0.00  0.00    +0.000 A 
ATOM     15  C   UNL     1      -1.897  12.758  22.627  0.00  0.00    +0.000 A 
ATOM     16  C   UNL     1      -1.049  11.514  22.475  0.00  0.00    +0.000 C 
ATOM     17  O   UNL     1      -0.461  10.951  23.422  0.00  0.00    +0.000 OA
ENDBRANCH   4   7
BRANCH   1  18
ATOM     18  C   UNL     1       2.521   7.539  18.133  0.00  0.00    +0.000 C 
BRANCH  18  19
ATOM     19  C   UNL     1       2.757   6.230  18.931  0.00  0.00    +0.000 C 
BRANCH  19  23
ATOM     20  C   UNL     1       7.599   6.377  18.128  0.00  0.00    +0.000 C 
ATOM     21  C   UNL     1       6.396   5.471  17.813  0.00  0.00    +0.000 C 
ATOM     22  C   UNL     1       5.076   6.234  18.137  0.00  0.00    +0.000 C 
ATOM     23  N   UNL     1       3.927   5.397  18.551  0.00  0.00    +0.000 NA
ATOM     24  C   UNL     1       3.476   4.485  17.469  0.00  0.00    +0.000 C 
ATOM     25  C   UNL     1       4.477   3.395  17.081  0.00  0.00    +0.000 C 
ATOM     26  C   UNL     1       5.451   3.914  16.051  0.00  0.00    +0.000 A 
ATOM     27  C   UNL     1       5.363   3.438  14.731  0.00  0.00    +0.000 A 
ATOM     28  C   UNL     1       6.196   3.945  13.740  0.00  0.00    +0.000 A 
ATOM     29  C   UNL     1       7.128   4.922  14.066  0.00  0.00    +0.000 A 
ATOM     30 CL   UNL     1       8.157   5.558  12.841  0.00  0.00    +0.000 Cl
ATOM     31  C   UNL     1       7.225   5.406  15.373  0.00  0.00    +0.000 A 
ATOM     32  C   UNL     1       6.380   4.920  16.388  0.00  0.00    +0.000 A 
ENDBRANCH  19  23
ENDBRANCH  18  19
ENDBRANCH   1  18
TORSDOF 4
ENDMDL
MODEL 6
REMARK VINA RESULT:      -9.0      8.493     10.173
REMARK  Name = 
REMARK  5 active torsions:
REMARK  status: ('A' for Active; 'I' for Inactive)
REMARK    1  A    between atoms: C_1  and  C_2
REMARK    2  A    between atoms: N_4  and  C_5
REMARK    3  A    between atoms: C_5  and  C_6
REMARK    4  A    between atoms: C_6  and  C_7
REMARK    5  A    between atoms: C_10  and  N_11
REMARK                            x       y       z     vdW  Elec       q    Type
REMARK                         _______ _______ _______ _____ _____    ______ ____
ROOT
ATOM      1  C   UNL     1       0.559  10.148  19.057  0.00  0.00    +0.000 C 
ATOM      2  C   UNL     1       1.598   9.761  18.001  0.00  0.00    +0.000 C 
ATOM      3  C   UNL     1       1.863   8.262  17.971  0.00  0.00    +0.000 C 
ATOM      4  C   UNL     1       2.373   7.766  19.320  0.00  0.00    +0.000 C 
ATOM      5  C   UNL     1       1.342   8.096  20.416  0.00  0.00    +0.000 C 
ATOM      6  C   UNL     1       1.003   9.610  20.442  0.00  0.00    +0.000 C 
ENDROOT
BRANCH   4   7
ATOM      7  N   UNL     1       2.798   6.353  19.297  0.00  0.00    +0.000 N 
ATOM      8  C   UNL     1       3.671   5.933  18.362  0.00  0.00    +0.000 C 
ATOM      9  O   UNL     1       4.604   6.521  17.833  0.00  0.00    +0.000 OA
ATOM     10  C   UNL     1       3.494   4.506  18.284  0.00  0.00    +0.000 A 
ATOM     11  C   UNL     1       2.868   3.807  17.261  0.00  0.00    +0.000 A 
ATOM     12  C   UNL     1       2.496   2.490  17.508  0.00  0.00    +0.000 A 
ATOM     13  C   UNL     1       2.817   1.913  18.740  0.00  0.00    +0.000 A 
ATOM     14  C   UNL     1       3.189   2.741  19.810  0.00  0.00    +0.000 A 
ATOM     15  C   UNL     1       3.306   4.100  19.577  0.00  0.00    +0.000 A 
ATOM     16  C   UNL     1       2.507   5.276  20.093  0.00  0.00    +0.000 C 
ATOM     17  O   UNL     1       1.625   5.187  20.974  0.00  0.00    +0.000 OA
ENDBRANCH   4   7
BRANCH   1  18
ATOM     18  C   UNL     1       0.292  11.678  19.038  0.00  0.00    +0.000 C 
BRANCH  18  19
ATOM     19  C   UNL     1      -1.219  12.014  19.147  0.00  0.00    +0.000 C 
BRANCH  19  23
ATOM     20  C   UNL     1      -5.421  12.736  21.583  0.00  0.00    +0.000 C 
ATOM     21  C   UNL     1      -3.914  12.624  21.873  0.00  0.00    +0.000 C 
ATOM     22  C   UNL     1      -3.123  12.696  20.532  0.00  0.00    +0.000 C 
ATOM     23  N   UNL     1      -1.837  11.963  20.497  0.00  0.00    +0.000 NA
ATOM     24  C   UNL     1      -0.843  12.524  21.448  0.00  0.00    +0.000 C 
ATOM     25  C   UNL     1      -1.203  12.367  22.927  0.00  0.00    +0.000 C 
ATOM     26  C   UNL     1      -2.080  13.508  23.383  0.00  0.00    +0.000 A 
ATOM     27  C   UNL     1      -1.543  14.473  24.253  0.00  0.00    +0.000 A 
ATOM     28  C   UNL     1      -2.298  15.576  24.637  0.00  0.00    +0.000 A 
ATOM     29  C   UNL     1      -3.596  15.713  24.162  0.00  0.00    +0.000 A 
ATOM     30 CL   UNL     1      -4.532  17.081  24.629  0.00  0.00    +0.000 Cl
ATOM     31  C   UNL     1      -4.141  14.763  23.294  0.00  0.00    +0.000 A 
ATOM     32  C   UNL     1      -3.389  13.649  22.879  0.00  0.00    +0.000 A 
ENDBRANCH  19  23
ENDBRANCH  18  19
ENDBRANCH   1  18
TORSDOF 4
ENDMDL
MODEL 7
REMARK VINA RESULT:      -9.0      7.375     10.532
REMARK  Name = 
REMARK  5 active torsions:
REMARK  status: ('A' for Active; 'I' for Inactive)
REMARK    1  A    between atoms: C_1  and  C_2
REMARK    2  A    between atoms: N_4  and  C_5
REMARK    3  A    between atoms: C_5  and  C_6
REMARK    4  A    between atoms: C_6  and  C_7
REMARK    5  A    between atoms: C_10  and  N_11
REMARK                            x       y       z     vdW  Elec       q    Type
REMARK                         _______ _______ _______ _____ _____    ______ ____
ROOT
ATOM      1  C   UNL     1       1.472   8.429  18.951  0.00  0.00    +0.000 C 
ATOM      2  C   UNL     1       1.563   8.312  20.475  0.00  0.00    +0.000 C 
ATOM      3  C   UNL     1       0.613   9.266  21.187  0.00  0.00    +0.000 C 
ATOM      4  C   UNL     1       0.911  10.716  20.819  0.00  0.00    +0.000 C 
ATOM      5  C   UNL     1       0.793  10.897  19.293  0.00  0.00    +0.000 C 
ATOM      6  C   UNL     1       1.706   9.902  18.528  0.00  0.00    +0.000 C 
ENDROOT
BRANCH   4   7
ATOM      7  N   UNL     1       0.126  11.688  21.604  0.00  0.00    +0.000 N 
ATOM      8  C   UNL     1      -0.578  11.270  22.673  0.00  0.00    +0.000 C 
ATOM      9  O   UNL     1      -0.338  10.379  23.477  0.00  0.00    +0.000 OA
ATOM     10  C   UNL     1      -1.578  12.282  22.895  0.00  0.00    +0.000 A 
ATOM     11  C   UNL     1      -2.934  12.177  22.619  0.00  0.00    +0.000 A 
ATOM     12  C   UNL     1      -3.682  13.350  22.582  0.00  0.00    +0.000 A 
ATOM     13  C   UNL     1      -3.056  14.564  22.880  0.00  0.00    +0.000 A 
ATOM     14  C   UNL     1      -1.655  14.634  22.873  0.00  0.00    +0.000 A 
ATOM     15  C   UNL     1      -0.941  13.469  22.653  0.00  0.00    +0.000 A 
ATOM     16  C   UNL     1      -0.048  13.044  21.508  0.00  0.00    +0.000 C 
ATOM     17  O   UNL     1       0.295  13.799  20.574  0.00  0.00    +0.000 OA
ENDBRANCH   4   7
BRANCH   1  18
ATOM     18  C   UNL     1       2.431   7.421  18.259  0.00  0.00    +0.000 C 
BRANCH  18  19
ATOM     19  C   UNL     1       2.777   6.215  19.172  0.00  0.00    +0.000 C 
BRANCH  19  23
ATOM     20  C   UNL     1       7.624   6.031  18.408  0.00  0.00    +0.000 C 
ATOM     21  C   UNL     1       6.356   5.251  18.020  0.00  0.00    +0.000 C 
ATOM     22  C   UNL     1       5.098   6.092  18.393  0.00  0.00    +0.000 C 
ATOM     23  N   UNL     1       3.881   5.321  18.737  0.00  0.00    +0.000 NA
ATOM     24  C   UNL     1       3.371   4.532  17.587  0.00  0.00    +0.000 C 
ATOM     25  C   UNL     1       4.285   3.397  17.123  0.00  0.00    +0.000 C 
ATOM     26  C   UNL     1       5.309   3.911  16.141  0.00  0.00    +0.000 A 
ATOM     27  C   UNL     1       5.199   3.543  14.788  0.00  0.00    +0.000 A 
ATOM     28  C   UNL     1       6.080   4.054  13.842  0.00  0.00    +0.000 A 
ATOM     29  C   UNL     1       7.084   4.925  14.246  0.00  0.00    +0.000 A 
ATOM     30 CL   UNL     1       8.175   5.565  13.077  0.00  0.00    +0.000 Cl
ATOM     31  C   UNL     1       7.205   5.301  15.586  0.00  0.00    +0.000 A 
ATOM     32  C   UNL     1       6.312   4.811  16.557  0.00  0.00    +0.000 A 
ENDBRANCH  19  23
ENDBRANCH  18  19
ENDBRANCH   1  18
TORSDOF 4
ENDMDL
MODEL 8
REMARK VINA RESULT:      -8.9      8.642     10.581
REMARK  Name = 
REMARK  5 active torsions:
REMARK  status: ('A' for Active; 'I' for Inactive)
REMARK    1  A    between atoms: C_1  and  C_2
REMARK    2  A    between atoms: N_4  and  C_5
REMARK    3  A    between atoms: C_5  and  C_6
REMARK    4  A    between atoms: C_6  and  C_7
REMARK    5  A    between atoms: C_10  and  N_11
REMARK                            x       y       z     vdW  Elec       q    Type
REMARK                         _______ _______ _______ _____ _____    ______ ____
ROOT
ATOM      1  C   UNL     1       0.464   9.860  19.094  0.00  0.00    +0.000 C 
ATOM      2  C   UNL     1       1.400   9.498  17.938  0.00  0.00    +0.000 C 
ATOM      3  C   UNL     1       1.745   8.015  17.914  0.00  0.00    +0.000 C 
ATOM      4  C   UNL     1       2.429   7.589  19.209  0.00  0.00    +0.000 C 
ATOM      5  C   UNL     1       1.509   7.896  20.406  0.00  0.00    +0.000 C 
ATOM      6  C   UNL     1       1.088   9.390  20.433  0.00  0.00    +0.000 C 
ENDROOT
BRANCH   4   7
ATOM      7  N   UNL     1       2.929   6.201  19.173  0.00  0.00    +0.000 N 
ATOM      8  C   UNL     1       3.679   5.788  18.133  0.00  0.00    +0.000 C 
ATOM      9  O   UNL     1       4.487   6.402  17.450  0.00  0.00    +0.000 OA
ATOM     10  C   UNL     1       3.577   4.352  18.133  0.00  0.00    +0.000 A 
ATOM     11  C   UNL     1       2.850   3.576  17.241  0.00  0.00    +0.000 A 
ATOM     12  C   UNL     1       2.598   2.253  17.587  0.00  0.00    +0.000 A 
ATOM     13  C   UNL     1       3.130   1.749  18.777  0.00  0.00    +0.000 A 
ATOM     14  C   UNL     1       3.606   2.641  19.749  0.00  0.00    +0.000 A 
ATOM     15  C   UNL     1       3.606   3.993  19.453  0.00  0.00    +0.000 A 
ATOM     16  C   UNL     1       2.823   5.146  20.042  0.00  0.00    +0.000 C 
ATOM     17  O   UNL     1       2.088   5.049  21.047  0.00  0.00    +0.000 OA
ENDBRANCH   4   7
BRANCH   1  18
ATOM     18  C   UNL     1       0.108  11.372  19.068  0.00  0.00    +0.000 C 
BRANCH  18  19
ATOM     19  C   UNL     1      -0.086  11.956  20.492  0.00  0.00    +0.000 C 
BRANCH  19  23
ATOM     20  C   UNL     1      -4.855  12.778  19.662  0.00  0.00    +0.000 C 
ATOM     21  C   UNL     1      -3.906  12.542  20.850  0.00  0.00    +0.000 C 
ATOM     22  C   UNL     1      -2.430  12.660  20.364  0.00  0.00    +0.000 C 
ATOM     23  N   UNL     1      -1.437  11.846  21.100  0.00  0.00    +0.000 NA
ATOM     24  C   UNL     1      -1.308  12.264  22.519  0.00  0.00    +0.000 C 
ATOM     25  C   UNL     1      -2.548  12.020  23.382  0.00  0.00    +0.000 C 
ATOM     26  C   UNL     1      -3.506  13.180  23.270  0.00  0.00    +0.000 A 
ATOM     27  C   UNL     1      -3.669  14.038  24.372  0.00  0.00    +0.000 A 
ATOM     28  C   UNL     1      -4.488  15.158  24.282  0.00  0.00    +0.000 A 
ATOM     29  C   UNL     1      -5.158  15.419  23.093  0.00  0.00    +0.000 A 
ATOM     30 CL   UNL     1      -6.169  16.808  22.975  0.00  0.00    +0.000 Cl
ATOM     31  C   UNL     1      -5.004  14.577  21.989  0.00  0.00    +0.000 A 
ATOM     32  C   UNL     1      -4.166  13.449  22.052  0.00  0.00    +0.000 A 
ENDBRANCH  19  23
ENDBRANCH  18  19
ENDBRANCH   1  18
TORSDOF 4
ENDMDL
MODEL 9
REMARK VINA RESULT:      -8.9      7.444     10.583
REMARK  Name = 
REMARK  5 active torsions:
REMARK  status: ('A' for Active; 'I' for Inactive)
REMARK    1  A    between atoms: C_1  and  C_2
REMARK    2  A    between atoms: N_4  and  C_5
REMARK    3  A    between atoms: C_5  and  C_6
REMARK    4  A    between atoms: C_6  and  C_7
REMARK    5  A    between atoms: C_10  and  N_11
REMARK                            x       y       z     vdW  Elec       q    Type
REMARK                         _______ _______ _______ _____ _____    ______ ____
ROOT
ATOM      1  C   UNL     1       2.012   8.370  19.445  0.00  0.00    +0.000 C 
ATOM      2  C   UNL     1       1.223   9.344  18.566  0.00  0.00    +0.000 C 
ATOM      3  C   UNL     1       0.782  10.585  19.330  0.00  0.00    +0.000 C 
ATOM      4  C   UNL     1      -0.104  10.216  20.515  0.00  0.00    +0.000 C 
ATOM      5  C   UNL     1       0.660   9.264  21.455  0.00  0.00    +0.000 C 
ATOM      6  C   UNL     1       1.176   8.010  20.700  0.00  0.00    +0.000 C 
ENDROOT
BRANCH   4   7
ATOM      7  N   UNL     1      -0.690  11.390  21.191  0.00  0.00    +0.000 N 
ATOM      8  C   UNL     1      -0.865  11.374  22.526  0.00  0.00    +0.000 C 
ATOM      9  O   UNL     1      -0.197  10.842  23.402  0.00  0.00    +0.000 OA
ATOM     10  C   UNL     1      -1.864  12.375  22.795  0.00  0.00    +0.000 A 
ATOM     11  C   UNL     1      -3.187  12.148  23.146  0.00  0.00    +0.000 A 
ATOM     12  C   UNL     1      -4.079  13.210  23.040  0.00  0.00    +0.000 A 
ATOM     13  C   UNL     1      -3.599  14.462  22.645  0.00  0.00    +0.000 A 
ATOM     14  C   UNL     1      -2.335  14.556  22.046  0.00  0.00    +0.000 A 
ATOM     15  C   UNL     1      -1.571  13.407  21.944  0.00  0.00    +0.000 A 
ATOM     16  C   UNL     1      -1.112  12.614  20.740  0.00  0.00    +0.000 C 
ATOM     17  O   UNL     1      -1.272  12.985  19.559  0.00  0.00    +0.000 OA
ENDBRANCH   4   7
BRANCH   1  18
ATOM     18  C   UNL     1       2.472   7.132  18.626  0.00  0.00    +0.000 C 
BRANCH  18  19
ATOM     19  C   UNL     1       2.976   5.979  19.535  0.00  0.00    +0.000 C 
BRANCH  19  23
ATOM     20  C   UNL     1       7.772   5.494  18.602  0.00  0.00    +0.000 C 
ATOM     21  C   UNL     1       6.435   4.867  18.170  0.00  0.00    +0.000 C 
ATOM     22  C   UNL     1       5.260   5.759  18.673  0.00  0.00    +0.000 C 
ATOM     23  N   UNL     1       3.991   5.054  18.969  0.00  0.00    +0.000 NA
ATOM     24  C   UNL     1       3.391   4.443  17.755  0.00  0.00    +0.000 C 
ATOM     25  C   UNL     1       4.198   3.298  17.140  0.00  0.00    +0.000 C 
ATOM     26  C   UNL     1       5.239   3.836  16.188  0.00  0.00    +0.000 A 
ATOM     27  C   UNL     1       5.067   3.633  14.808  0.00  0.00    +0.000 A 
ATOM     28  C   UNL     1       5.967   4.175  13.896  0.00  0.00    +0.000 A 
ATOM     29  C   UNL     1       7.048   4.912  14.362  0.00  0.00    +0.000 A 
ATOM     30 CL   UNL     1       8.162   5.590  13.237  0.00  0.00    +0.000 Cl
ATOM     31  C   UNL     1       7.230   5.124  15.731  0.00  0.00    +0.000 A 
ATOM     32  C   UNL     1       6.322   4.600  16.669  0.00  0.00    +0.000 A 
ENDBRANCH  19  23
ENDBRANCH  18  19
ENDBRANCH   1  18
TORSDOF 4
ENDMDL
