MODEL 1
REMARK VINA RESULT:      -7.2      0.000      0.000
REMARK  Name = 
REMARK  12 active torsions:
REMARK  status: ('A' for Active; 'I' for Inactive)
REMARK    1  A    between atoms: C_1  and  O_2
REMARK    2  A    between atoms: O_2  and  C_3
REMARK    3  A    between atoms: C_3  and  C_4
REMARK    4  A    between atoms: C_4  and  O_5
REMARK    5  A    between atoms: O_5  and  C_6
REMARK    6  A    between atoms: C_6  and  C_7
REMARK    7  A    between atoms: C_7  and  O_8
REMARK    8  A    between atoms: O_8  and  C_9
REMARK    9  A    between atoms: C_12  and  C_13
REMARK   10  A    between atoms: C_15  and  C_16
REMARK   11  A    between atoms: C_20  and  C_21
REMARK   12  A    between atoms: C_26  and  C_27
REMARK                            x       y       z     vdW  Elec       q    Type
REMARK                         _______ _______ _______ _____ _____    ______ ____
ROOT
ATOM      1  C   UNL     1       2.419   4.711  19.047  0.00  0.00    +0.000 A 
ATOM      2  C   UNL     1       2.586   5.930  18.377  0.00  0.00    +0.000 A 
ATOM      3  C   UNL     1       2.223   7.134  18.993  0.00  0.00    +0.000 A 
ATOM      4  C   UNL     1       1.673   7.139  20.281  0.00  0.00    +0.000 A 
ATOM      5  C   UNL     1       1.543   5.924  20.958  0.00  0.00    +0.000 A 
ATOM      6  C   UNL     1       1.943   4.719  20.364  0.00  0.00    +0.000 A 
ENDROOT
BRANCH   4   7
ATOM      7  C   UNL     1       1.257   8.378  20.927  0.00  0.00    +0.000 A 
ATOM      8  N   UNL     1       0.462   9.317  20.453  0.00  0.00    +0.000 NA
ATOM      9  C   UNL     1       0.434  10.268  21.451  0.00  0.00    +0.000 A 
ATOM     10  N   UNL     1       1.196   9.962  22.513  0.00  0.00    +0.000 NA
ATOM     11  N   UNL     1       1.682   8.769  22.164  0.00  0.00    +0.000 N 
ATOM     12  H   UNL     1       2.307   8.290  22.796  0.00  0.00    +0.000 HD
BRANCH   9  13
ATOM     13  C   UNL     1      -0.321  11.508  21.351  0.00  0.00    +0.000 A 
ATOM     14  C   UNL     1      -0.657  12.015  20.096  0.00  0.00    +0.000 A 
ATOM     15  C   UNL     1      -1.326  13.221  20.038  0.00  0.00    +0.000 A 
ATOM     16  N   UNL     1      -1.668  13.942  21.125  0.00  0.00    +0.000 NA
ATOM     17  C   UNL     1      -1.341  13.443  22.339  0.00  0.00    +0.000 A 
ATOM     18  C   UNL     1      -1.691  14.285  23.528  0.00  0.00    +0.000 C 
ATOM     19  C   UNL     1      -0.684  12.226  22.493  0.00  0.00    +0.000 A 
ENDBRANCH   9  13
ENDBRANCH   4   7
BRANCH   6  20
ATOM     20  C   UNL     1       1.916   3.548  21.199  0.00  0.00    +0.000 C 
ATOM     21  N   UNL     1       1.903   2.607  21.858  0.00  0.00    +0.000 NA
ENDBRANCH   6  20
BRANCH   1  22
ATOM     22  O   UNL     1       2.816   3.597  18.344  0.00  0.00    +0.000 OA
BRANCH  22  23
ATOM     23  C   UNL     1       4.194   3.588  17.941  0.00  0.00    +0.000 C 
BRANCH  23  24
ATOM     24  C   UNL     1       5.094   3.627  19.163  0.00  0.00    +0.000 C 
BRANCH  24  25
ATOM     25  O   UNL     1       6.262   4.385  18.850  0.00  0.00    +0.000 OA
BRANCH  25  26
ATOM     26  C   UNL     1       6.354   4.636  17.449  0.00  0.00    +0.000 C 
BRANCH  26  27
ATOM     27  C   UNL     1       7.186   5.890  17.203  0.00  0.00    +0.000 C 
BRANCH  27  29
ATOM     28  C   UNL     1       6.976   4.868  15.093  0.00  0.00    +0.000 C 
ATOM     29  O   UNL     1       7.530   5.957  15.819  0.00  0.00    +0.000 OA
ENDBRANCH  27  29
ENDBRANCH  26  27
ENDBRANCH  25  26
ENDBRANCH  24  25
ENDBRANCH  23  24
ENDBRANCH  22  23
ENDBRANCH   1  22
TORSDOF 10
ENDMDL
MODEL 2
REMARK VINA RESULT:      -7.1      4.528      9.337
REMARK  Name = 
REMARK  12 active torsions:
REMARK  status: ('A' for Active; 'I' for Inactive)
REMARK    1  A    between atoms: C_1  and  O_2
REMARK    2  A    between atoms: O_2  and  C_3
REMARK    3  A    between atoms: C_3  and  C_4
REMARK    4  A    between atoms: C_4  and  O_5
REMARK    5  A    between atoms: O_5  and  C_6
REMARK    6  A    between atoms: C_6  and  C_7
REMARK    7  A    between atoms: C_7  and  O_8
REMARK    8  A    between atoms: O_8  and  C_9
REMARK    9  A    between atoms: C_12  and  C_13
REMARK   10  A    between atoms: C_15  and  C_16
REMARK   11  A    between atoms: C_20  and  C_21
REMARK   12  A    between atoms: C_26  and  C_27
REMARK                            x       y       z     vdW  Elec       q    Type
REMARK                         _______ _______ _______ _____ _____    ______ ____
ROOT
ATOM      1  C   UNL     1       0.002  10.457  19.725  0.00  0.00    +0.000 A 
ATOM      2  C   UNL     1       0.503  10.176  18.448  0.00  0.00    +0.000 A 
ATOM      3  C   UNL     1       1.385   9.107  18.249  0.00  0.00    +0.000 A 
ATOM      4  C   UNL     1       1.794   8.311  19.327  0.00  0.00    +0.000 A 
ATOM      5  C   UNL     1       1.262   8.572  20.592  0.00  0.00    +0.000 A 
ATOM      6  C   UNL     1       0.346   9.614  20.790  0.00  0.00    +0.000 A 
ENDROOT
BRANCH   4   7
ATOM      7  C   UNL     1       2.738   7.215  19.149  0.00  0.00    +0.000 A 
ATOM      8  N   UNL     1       3.679   7.090  18.234  0.00  0.00    +0.000 NA
ATOM      9  C   UNL     1       4.249   5.863  18.503  0.00  0.00    +0.000 A 
ATOM     10  N   UNL     1       3.683   5.218  19.535  0.00  0.00    +0.000 NA
ATOM     11  N   UNL     1       2.757   6.094  19.929  0.00  0.00    +0.000 N 
ATOM     12  H   UNL     1       2.162   5.861  20.711  0.00  0.00    +0.000 HD
BRANCH   9  13
ATOM     13  C   UNL     1       5.339   5.301  17.720  0.00  0.00    +0.000 A 
ATOM     14  C   UNL     1       6.583   5.093  18.313  0.00  0.00    +0.000 A 
ATOM     15  C   UNL     1       7.608   4.609  17.526  0.00  0.00    +0.000 A 
ATOM     16  N   UNL     1       7.478   4.332  16.212  0.00  0.00    +0.000 NA
ATOM     17  C   UNL     1       6.268   4.534  15.643  0.00  0.00    +0.000 A 
ATOM     18  C   UNL     1       6.162   4.263  14.173  0.00  0.00    +0.000 C 
ATOM     19  C   UNL     1       5.173   5.000  16.365  0.00  0.00    +0.000 A 
ENDBRANCH   9  13
ENDBRANCH   4   7
BRANCH   6  20
ATOM     20  C   UNL     1      -0.262   9.701  22.090  0.00  0.00    +0.000 C 
ATOM     21  N   UNL     1      -0.747   9.759  23.131  0.00  0.00    +0.000 NA
ENDBRANCH   6  20
BRANCH   1  22
ATOM     22  O   UNL     1      -0.861  11.526  19.794  0.00  0.00    +0.000 OA
BRANCH  22  23
ATOM     23  C   UNL     1      -1.392  11.966  18.535  0.00  0.00    +0.000 C 
BRANCH  23  24
ATOM     24  C   UNL     1      -2.850  11.559  18.414  0.00  0.00    +0.000 C 
BRANCH  24  25
ATOM     25  O   UNL     1      -3.239  11.646  17.043  0.00  0.00    +0.000 OA
BRANCH  25  26
ATOM     26  C   UNL     1      -3.221  10.364  16.419  0.00  0.00    +0.000 C 
BRANCH  26  27
ATOM     27  C   UNL     1      -3.045  10.525  14.914  0.00  0.00    +0.000 C 
BRANCH  27  29
ATOM     28  C   UNL     1      -3.882   9.750  12.856  0.00  0.00    +0.000 C 
ATOM     29  O   UNL     1      -4.140   9.900  14.246  0.00  0.00    +0.000 OA
ENDBRANCH  27  29
ENDBRANCH  26  27
ENDBRANCH  25  26
ENDBRANCH  24  25
ENDBRANCH  23  24
ENDBRANCH  22  23
ENDBRANCH   1  22
TORSDOF 10
ENDMDL
MODEL 3
REMARK VINA RESULT:      -7.1      1.068      1.198
REMARK  Name = 
REMARK  12 active torsions:
REMARK  status: ('A' for Active; 'I' for Inactive)
REMARK    1  A    between atoms: C_1  and  O_2
REMARK    2  A    between atoms: O_2  and  C_3
REMARK    3  A    between atoms: C_3  and  C_4
REMARK    4  A    between atoms: C_4  and  O_5
REMARK    5  A    between atoms: O_5  and  C_6
REMARK    6  A    between atoms: C_6  and  C_7
REMARK    7  A    between atoms: C_7  and  O_8
REMARK    8  A    between atoms: O_8  and  C_9
REMARK    9  A    between atoms: C_12  and  C_13
REMARK   10  A    between atoms: C_15  and  C_16
REMARK   11  A    between atoms: C_20  and  C_21
REMARK   12  A    between atoms: C_26  and  C_27
REMARK                            x       y       z     vdW  Elec       q    Type
REMARK                         _______ _______ _______ _____ _____    ______ ____
ROOT
ATOM      1  C   UNL     1       2.377   5.460  18.627  0.00  0.00    +0.000 A 
ATOM      2  C   UNL     1       2.461   6.799  18.224  0.00  0.00    +0.000 A 
ATOM      3  C   UNL     1       2.054   7.827  19.084  0.00  0.00    +0.000 A 
ATOM      4  C   UNL     1       1.541   7.533  20.353  0.00  0.00    +0.000 A 
ATOM      5  C   UNL     1       1.493   6.199  20.764  0.00  0.00    +0.000 A 
ATOM      6  C   UNL     1       1.938   5.169  19.925  0.00  0.00    +0.000 A 
ENDROOT
BRANCH   4   7
ATOM      7  C   UNL     1       1.080   8.586  21.251  0.00  0.00    +0.000 A 
ATOM      8  N   UNL     1       0.193   9.531  21.010  0.00  0.00    +0.000 NA
ATOM      9  C   UNL     1       0.160  10.266  22.177  0.00  0.00    +0.000 A 
ATOM     10  N   UNL     1       1.006   9.822  23.120  0.00  0.00    +0.000 NA
ATOM     11  N   UNL     1       1.552   8.762  22.520  0.00  0.00    +0.000 N 
ATOM     12  H   UNL     1       2.246   8.222  23.015  0.00  0.00    +0.000 HD
BRANCH   9  13
ATOM     13  C   UNL     1      -0.685  11.436  22.360  0.00  0.00    +0.000 A 
ATOM     14  C   UNL     1      -0.300  12.660  21.815  0.00  0.00    +0.000 A 
ATOM     15  C   UNL     1      -1.098  13.760  22.054  0.00  0.00    +0.000 A 
ATOM     16  N   UNL     1      -2.227  13.722  22.792  0.00  0.00    +0.000 NA
ATOM     17  C   UNL     1      -2.595  12.531  23.316  0.00  0.00    +0.000 A 
ATOM     18  C   UNL     1      -3.827  12.524  24.170  0.00  0.00    +0.000 C 
ATOM     19  C   UNL     1      -1.862  11.366  23.110  0.00  0.00    +0.000 A 
ENDBRANCH   9  13
ENDBRANCH   4   7
BRANCH   6  20
ATOM     20  C   UNL     1       1.996   3.850  20.497  0.00  0.00    +0.000 C 
ATOM     21  N   UNL     1       2.034   2.800  20.963  0.00  0.00    +0.000 NA
ENDBRANCH   6  20
BRANCH   1  22
ATOM     22  O   UNL     1       2.811   4.542  17.701  0.00  0.00    +0.000 OA
BRANCH  22  23
ATOM     23  C   UNL     1       4.225   4.544  17.454  0.00  0.00    +0.000 C 
BRANCH  23  24
ATOM     24  C   UNL     1       4.901   3.465  18.280  0.00  0.00    +0.000 C 
BRANCH  24  25
ATOM     25  O   UNL     1       5.814   4.083  19.186  0.00  0.00    +0.000 OA
BRANCH  25  26
ATOM     26  C   UNL     1       6.476   5.189  18.576  0.00  0.00    +0.000 C 
BRANCH  26  27
ATOM     27  C   UNL     1       7.615   4.687  17.696  0.00  0.00    +0.000 C 
BRANCH  27  29
ATOM     28  C   UNL     1       7.052   4.562  15.414  0.00  0.00    +0.000 C 
ATOM     29  O   UNL     1       7.581   5.381  16.449  0.00  0.00    +0.000 OA
ENDBRANCH  27  29
ENDBRANCH  26  27
ENDBRANCH  25  26
ENDBRANCH  24  25
ENDBRANCH  23  24
ENDBRANCH  22  23
ENDBRANCH   1  22
TORSDOF 10
ENDMDL
MODEL 4
REMARK VINA RESULT:      -7.0      2.309      4.218
REMARK  Name = 
REMARK  12 active torsions:
REMARK  status: ('A' for Active; 'I' for Inactive)
REMARK    1  A    between atoms: C_1  and  O_2
REMARK    2  A    between atoms: O_2  and  C_3
REMARK    3  A    between atoms: C_3  and  C_4
REMARK    4  A    between atoms: C_4  and  O_5
REMARK    5  A    between atoms: O_5  and  C_6
REMARK    6  A    between atoms: C_6  and  C_7
REMARK    7  A    between atoms: C_7  and  O_8
REMARK    8  A    between atoms: O_8  and  C_9
REMARK    9  A    between atoms: C_12  and  C_13
REMARK   10  A    between atoms: C_15  and  C_16
REMARK   11  A    between atoms: C_20  and  C_21
REMARK   12  A    between atoms: C_26  and  C_27
REMARK                            x       y       z     vdW  Elec       q    Type
REMARK                         _______ _______ _______ _____ _____    ______ ____
ROOT
ATOM      1  C   UNL     1       4.200   5.643  18.507  0.00  0.00    +0.000 A 
ATOM      2  C   UNL     1       3.280   5.767  19.556  0.00  0.00    +0.000 A 
ATOM      3  C   UNL     1       2.417   6.868  19.618  0.00  0.00    +0.000 A 
ATOM      4  C   UNL     1       2.470   7.870  18.642  0.00  0.00    +0.000 A 
ATOM      5  C   UNL     1       3.364   7.723  17.579  0.00  0.00    +0.000 A 
ATOM      6  C   UNL     1       4.201   6.603  17.488  0.00  0.00    +0.000 A 
ENDROOT
BRANCH   4   7
ATOM      7  C   UNL     1       1.604   9.042  18.705  0.00  0.00    +0.000 A 
ATOM      8  N   UNL     1       0.691   9.332  19.611  0.00  0.00    +0.000 NA
ATOM      9  C   UNL     1       0.154  10.526  19.176  0.00  0.00    +0.000 A 
ATOM     10  N   UNL     1       0.686  10.972  18.028  0.00  0.00    +0.000 NA
ATOM     11  N   UNL     1       1.601  10.035  17.769  0.00  0.00    +0.000 N 
ATOM     12  H   UNL     1       2.167  10.119  16.937  0.00  0.00    +0.000 HD
BRANCH   9  13
ATOM     13  C   UNL     1      -0.916  11.220  19.875  0.00  0.00    +0.000 A 
ATOM     14  C   UNL     1      -2.025  11.678  19.165  0.00  0.00    +0.000 A 
ATOM     15  C   UNL     1      -2.995  12.381  19.850  0.00  0.00    +0.000 A 
ATOM     16  N   UNL     1      -2.929  12.657  21.169  0.00  0.00    +0.000 NA
ATOM     17  C   UNL     1      -1.851  12.209  21.853  0.00  0.00    +0.000 A 
ATOM     18  C   UNL     1      -1.779  12.568  23.306  0.00  0.00    +0.000 C 
ATOM     19  C   UNL     1      -0.836  11.475  21.247  0.00  0.00    +0.000 A 
ENDBRANCH   9  13
ENDBRANCH   4   7
BRANCH   6  20
ATOM     20  C   UNL     1       4.968   6.466  16.279  0.00  0.00    +0.000 C 
ATOM     21  N   UNL     1       5.591   6.357  15.319  0.00  0.00    +0.000 NA
ENDBRANCH   6  20
BRANCH   1  22
ATOM     22  O   UNL     1       4.989   4.517  18.550  0.00  0.00    +0.000 OA
BRANCH  22  23
ATOM     23  C   UNL     1       4.285   3.284  18.767  0.00  0.00    +0.000 C 
BRANCH  23  24
ATOM     24  C   UNL     1       3.580   2.856  17.493  0.00  0.00    +0.000 C 
BRANCH  24  25
ATOM     25  O   UNL     1       2.253   2.444  17.818  0.00  0.00    +0.000 OA
BRANCH  25  26
ATOM     26  C   UNL     1       2.121   2.184  19.214  0.00  0.00    +0.000 C 
BRANCH  26  27
ATOM     27  C   UNL     1       0.923   2.945  19.769  0.00  0.00    +0.000 C 
BRANCH  27  29
ATOM     28  C   UNL     1       2.244   2.891  21.715  0.00  0.00    +0.000 C 
ATOM     29  O   UNL     1       0.923   2.843  21.193  0.00  0.00    +0.000 OA
ENDBRANCH  27  29
ENDBRANCH  26  27
ENDBRANCH  25  26
ENDBRANCH  24  25
ENDBRANCH  23  24
ENDBRANCH  22  23
ENDBRANCH   1  22
TORSDOF 10
ENDMDL
MODEL 5
REMARK VINA RESULT:      -7.0      1.215      1.670
REMARK  Name = 
REMARK  12 active torsions:
REMARK  status: ('A' for Active; 'I' for Inactive)
REMARK    1  A    between atoms: C_1  and  O_2
REMARK    2  A    between atoms: O_2  and  C_3
REMARK    3  A    between atoms: C_3  and  C_4
REMARK    4  A    between atoms: C_4  and  O_5
REMARK    5  A    between atoms: O_5  and  C_6
REMARK    6  A    between atoms: C_6  and  C_7
REMARK    7  A    between atoms: C_7  and  O_8
REMARK    8  A    between atoms: O_8  and  C_9
REMARK    9  A    between atoms: C_12  and  C_13
REMARK   10  A    between atoms: C_15  and  C_16
REMARK   11  A    between atoms: C_20  and  C_21
REMARK   12  A    between atoms: C_26  and  C_27
REMARK                            x       y       z     vdW  Elec       q    Type
REMARK                         _______ _______ _______ _____ _____    ______ ____
ROOT
ATOM      1  C   UNL     1       2.347   4.640  19.029  0.00  0.00    +0.000 A 
ATOM      2  C   UNL     1       2.549   5.822  18.304  0.00  0.00    +0.000 A 
ATOM      3  C   UNL     1       2.260   7.066  18.877  0.00  0.00    +0.000 A 
ATOM      4  C   UNL     1       1.748   7.149  20.178  0.00  0.00    +0.000 A 
ATOM      5  C   UNL     1       1.582   5.971  20.909  0.00  0.00    +0.000 A 
ATOM      6  C   UNL     1       1.910   4.725  20.357  0.00  0.00    +0.000 A 
ENDROOT
BRANCH   4   7
ATOM      7  C   UNL     1       1.407   8.432  20.782  0.00  0.00    +0.000 A 
ATOM      8  N   UNL     1       0.902   9.499  20.196  0.00  0.00    +0.000 NA
ATOM      9  C   UNL     1       0.808  10.427  21.212  0.00  0.00    +0.000 A 
ATOM     10  N   UNL     1       1.254   9.980  22.396  0.00  0.00    +0.000 NA
ATOM     11  N   UNL     1       1.603   8.726  22.100  0.00  0.00    +0.000 N 
ATOM     12  H   UNL     1       1.985   8.139  22.827  0.00  0.00    +0.000 HD
BRANCH   9  13
ATOM     13  C   UNL     1       0.308  11.779  21.014  0.00  0.00    +0.000 A 
ATOM     14  C   UNL     1      -0.958  12.125  21.485  0.00  0.00    +0.000 A 
ATOM     15  C   UNL     1      -1.422  13.400  21.232  0.00  0.00    +0.000 A 
ATOM     16  N   UNL     1      -0.725  14.330  20.548  0.00  0.00    +0.000 NA
ATOM     17  C   UNL     1       0.503  13.988  20.095  0.00  0.00    +0.000 A 
ATOM     18  C   UNL     1       1.238  15.023  19.298  0.00  0.00    +0.000 C 
ATOM     19  C   UNL     1       1.059  12.733  20.321  0.00  0.00    +0.000 A 
ENDBRANCH   9  13
ENDBRANCH   4   7
BRANCH   6  20
ATOM     20  C   UNL     1       1.855   3.592  21.241  0.00  0.00    +0.000 C 
ATOM     21  N   UNL     1       1.808   2.679  21.937  0.00  0.00    +0.000 NA
ENDBRANCH   6  20
BRANCH   1  22
ATOM     22  O   UNL     1       2.674   3.482  18.364  0.00  0.00    +0.000 OA
BRANCH  22  23
ATOM     23  C   UNL     1       4.034   3.397  17.913  0.00  0.00    +0.000 C 
BRANCH  23  24
ATOM     24  C   UNL     1       4.981   3.504  19.095  0.00  0.00    +0.000 C 
BRANCH  24  25
ATOM     25  O   UNL     1       6.212   4.070  18.648  0.00  0.00    +0.000 OA
BRANCH  25  26
ATOM     26  C   UNL     1       6.298   5.453  18.987  0.00  0.00    +0.000 C 
BRANCH  26  27
ATOM     27  C   UNL     1       7.737   5.809  19.341  0.00  0.00    +0.000 C 
BRANCH  27  29
ATOM     28  C   UNL     1       7.272   7.160  17.471  0.00  0.00    +0.000 C 
ATOM     29  O   UNL     1       8.137   6.947  18.579  0.00  0.00    +0.000 OA
ENDBRANCH  27  29
ENDBRANCH  26  27
ENDBRANCH  25  26
ENDBRANCH  24  25
ENDBRANCH  23  24
ENDBRANCH  22  23
ENDBRANCH   1  22
TORSDOF 10
ENDMDL
MODEL 6
REMARK VINA RESULT:      -6.9      1.045      1.309
REMARK  Name = 
REMARK  12 active torsions:
REMARK  status: ('A' for Active; 'I' for Inactive)
REMARK    1  A    between atoms: C_1  and  O_2
REMARK    2  A    between atoms: O_2  and  C_3
REMARK    3  A    between atoms: C_3  and  C_4
REMARK    4  A    between atoms: C_4  and  O_5
REMARK    5  A    between atoms: O_5  and  C_6
REMARK    6  A    between atoms: C_6  and  C_7
REMARK    7  A    between atoms: C_7  and  O_8
REMARK    8  A    between atoms: O_8  and  C_9
REMARK    9  A    between atoms: C_12  and  C_13
REMARK   10  A    between atoms: C_15  and  C_16
REMARK   11  A    between atoms: C_20  and  C_21
REMARK   12  A    between atoms: C_26  and  C_27
REMARK                            x       y       z     vdW  Elec       q    Type
REMARK                         _______ _______ _______ _____ _____    ______ ____
ROOT
ATOM      1  C   UNL     1       2.746   4.774  19.226  0.00  0.00    +0.000 A 
ATOM      2  C   UNL     1       2.955   5.981  18.547  0.00  0.00    +0.000 A 
ATOM      3  C   UNL     1       2.494   7.189  19.085  0.00  0.00    +0.000 A 
ATOM      4  C   UNL     1       1.802   7.209  20.301  0.00  0.00    +0.000 A 
ATOM      5  C   UNL     1       1.628   6.008  20.993  0.00  0.00    +0.000 A 
ATOM      6  C   UNL     1       2.124   4.801  20.481  0.00  0.00    +0.000 A 
ENDROOT
BRANCH   4   7
ATOM      7  C   UNL     1       1.283   8.451  20.863  0.00  0.00    +0.000 A 
ATOM      8  N   UNL     1       0.556   9.373  20.265  0.00  0.00    +0.000 NA
ATOM      9  C   UNL     1       0.372  10.337  21.235  0.00  0.00    +0.000 A 
ATOM     10  N   UNL     1       0.975  10.053  22.400  0.00  0.00    +0.000 NA
ATOM     11  N   UNL     1       1.519   8.862  22.143  0.00  0.00    +0.000 N 
ATOM     12  H   UNL     1       2.050   8.400  22.866  0.00  0.00    +0.000 HD
BRANCH   9  13
ATOM     13  C   UNL     1      -0.373  11.565  21.008  0.00  0.00    +0.000 A 
ATOM     14  C   UNL     1       0.070  12.479  20.053  0.00  0.00    +0.000 A 
ATOM     15  C   UNL     1      -0.631  13.658  19.903  0.00  0.00    +0.000 A 
ATOM     16  N   UNL     1      -1.718  13.982  20.633  0.00  0.00    +0.000 NA
ATOM     17  C   UNL     1      -2.144  13.091  21.557  0.00  0.00    +0.000 A 
ATOM     18  C   UNL     1      -3.325  13.494  22.386  0.00  0.00    +0.000 C 
ATOM     19  C   UNL     1      -1.510  11.869  21.762  0.00  0.00    +0.000 A 
ENDBRANCH   9  13
ENDBRANCH   4   7
BRANCH   6  20
ATOM     20  C   UNL     1       2.034   3.650  21.339  0.00  0.00    +0.000 C 
ATOM     21  N   UNL     1       1.966   2.723  22.015  0.00  0.00    +0.000 NA
ENDBRANCH   6  20
BRANCH   1  22
ATOM     22  O   UNL     1       3.249   3.656  18.604  0.00  0.00    +0.000 OA
BRANCH  22  23
ATOM     23  C   UNL     1       3.379   3.757  17.177  0.00  0.00    +0.000 C 
BRANCH  23  24
ATOM     24  C   UNL     1       4.847   3.810  16.791  0.00  0.00    +0.000 C 
BRANCH  24  25
ATOM     25  O   UNL     1       4.946   4.132  15.404  0.00  0.00    +0.000 OA
BRANCH  25  26
ATOM     26  C   UNL     1       6.299   4.373  15.025  0.00  0.00    +0.000 C 
BRANCH  26  27
ATOM     27  C   UNL     1       7.127   4.717  16.258  0.00  0.00    +0.000 C 
BRANCH  27  29
ATOM     28  C   UNL     1       7.319   6.812  17.312  0.00  0.00    +0.000 C 
ATOM     29  O   UNL     1       7.603   6.057  16.141  0.00  0.00    +0.000 OA
ENDBRANCH  27  29
ENDBRANCH  26  27
ENDBRANCH  25  26
ENDBRANCH  24  25
ENDBRANCH  23  24
ENDBRANCH  22  23
ENDBRANCH   1  22
TORSDOF 10
ENDMDL
MODEL 7
REMARK VINA RESULT:      -6.9      4.179      9.369
REMARK  Name = 
REMARK  12 active torsions:
REMARK  status: ('A' for Active; 'I' for Inactive)
REMARK    1  A    between atoms: C_1  and  O_2
REMARK    2  A    between atoms: O_2  and  C_3
REMARK    3  A    between atoms: C_3  and  C_4
REMARK    4  A    between atoms: C_4  and  O_5
REMARK    5  A    between atoms: O_5  and  C_6
REMARK    6  A    between atoms: C_6  and  C_7
REMARK    7  A    between atoms: C_7  and  O_8
REMARK    8  A    between atoms: O_8  and  C_9
REMARK    9  A    between atoms: C_12  and  C_13
REMARK   10  A    between atoms: C_15  and  C_16
REMARK   11  A    between atoms: C_20  and  C_21
REMARK   12  A    between atoms: C_26  and  C_27
REMARK                            x       y       z     vdW  Elec       q    Type
REMARK                         _______ _______ _______ _____ _____    ______ ____
ROOT
ATOM      1  C   UNL     1       0.724  10.651  19.947  0.00  0.00    +0.000 A 
ATOM      2  C   UNL     1       1.150  10.586  18.614  0.00  0.00    +0.000 A 
ATOM      3  C   UNL     1       1.784   9.437  18.126  0.00  0.00    +0.000 A 
ATOM      4  C   UNL     1       2.017   8.341  18.965  0.00  0.00    +0.000 A 
ATOM      5  C   UNL     1       1.558   8.396  20.282  0.00  0.00    +0.000 A 
ATOM      6  C   UNL     1       0.885   9.526  20.766  0.00  0.00    +0.000 A 
ENDROOT
BRANCH   4   7
ATOM      7  C   UNL     1       2.706   7.148  18.486  0.00  0.00    +0.000 A 
ATOM      8  N   UNL     1       3.899   7.064  17.930  0.00  0.00    +0.000 NA
ATOM      9  C   UNL     1       4.042   5.722  17.644  0.00  0.00    +0.000 A 
ATOM     10  N   UNL     1       2.976   4.980  17.984  0.00  0.00    +0.000 NA
ATOM     11  N   UNL     1       2.168   5.894  18.524  0.00  0.00    +0.000 N 
ATOM     12  H   UNL     1       1.266   5.605  18.873  0.00  0.00    +0.000 HD
BRANCH   9  13
ATOM     13  C   UNL     1       5.222   5.165  17.000  0.00  0.00    +0.000 A 
ATOM     14  C   UNL     1       6.411   5.046  17.718  0.00  0.00    +0.000 A 
ATOM     15  C   UNL     1       7.525   4.564  17.059  0.00  0.00    +0.000 A 
ATOM     16  N   UNL     1       7.531   4.209  15.758  0.00  0.00    +0.000 NA
ATOM     17  C   UNL     1       6.373   4.325  15.068  0.00  0.00    +0.000 A 
ATOM     18  C   UNL     1       6.418   3.968  13.614  0.00  0.00    +0.000 C 
ATOM     19  C   UNL     1       5.198   4.783  15.656  0.00  0.00    +0.000 A 
ENDBRANCH   9  13
ENDBRANCH   4   7
BRANCH   6  20
ATOM     20  C   UNL     1       0.314   9.424  22.083  0.00  0.00    +0.000 C 
ATOM     21  N   UNL     1      -0.131   9.337  23.138  0.00  0.00    +0.000 NA
ENDBRANCH   6  20
BRANCH   1  22
ATOM     22  O   UNL     1       0.109  11.826  20.309  0.00  0.00    +0.000 OA
BRANCH  22  23
ATOM     23  C   UNL     1      -1.292  11.903  20.002  0.00  0.00    +0.000 C 
BRANCH  23  24
ATOM     24  C   UNL     1      -1.516  12.829  18.820  0.00  0.00    +0.000 C 
BRANCH  24  25
ATOM     25  O   UNL     1      -1.850  12.042  17.677  0.00  0.00    +0.000 OA
BRANCH  25  26
ATOM     26  C   UNL     1      -2.497  10.830  18.056  0.00  0.00    +0.000 C 
BRANCH  26  27
ATOM     27  C   UNL     1      -3.603  10.502  17.061  0.00  0.00    +0.000 C 
BRANCH  27  29
ATOM     28  C   UNL     1      -3.022  10.289  14.790  0.00  0.00    +0.000 C 
ATOM     29  O   UNL     1      -3.082   9.637  16.052  0.00  0.00    +0.000 OA
ENDBRANCH  27  29
ENDBRANCH  26  27
ENDBRANCH  25  26
ENDBRANCH  24  25
ENDBRANCH  23  24
ENDBRANCH  22  23
ENDBRANCH   1  22
TORSDOF 10
ENDMDL
MODEL 8
REMARK VINA RESULT:      -6.9      4.440     10.147
REMARK  Name = 
REMARK  12 active torsions:
REMARK  status: ('A' for Active; 'I' for Inactive)
REMARK    1  A    between atoms: C_1  and  O_2
REMARK    2  A    between atoms: O_2  and  C_3
REMARK    3  A    between atoms: C_3  and  C_4
REMARK    4  A    between atoms: C_4  and  O_5
REMARK    5  A    between atoms: O_5  and  C_6
REMARK    6  A    between atoms: C_6  and  C_7
REMARK    7  A    between atoms: C_7  and  O_8
REMARK    8  A    between atoms: O_8  and  C_9
REMARK    9  A    between atoms: C_12  and  C_13
REMARK   10  A    between atoms: C_15  and  C_16
REMARK   11  A    between atoms: C_20  and  C_21
REMARK   12  A    between atoms: C_26  and  C_27
REMARK                            x       y       z     vdW  Elec       q    Type
REMARK                         _______ _______ _______ _____ _____    ______ ____
ROOT
ATOM      1  C   UNL     1       0.352  10.375  20.198  0.00  0.00    +0.000 A 
ATOM      2  C   UNL     1       0.548  10.127  18.833  0.00  0.00    +0.000 A 
ATOM      3  C   UNL     1       1.274   9.006  18.411  0.00  0.00    +0.000 A 
ATOM      4  C   UNL     1       1.831   8.125  19.346  0.00  0.00    +0.000 A 
ATOM      5  C   UNL     1       1.602   8.357  20.704  0.00  0.00    +0.000 A 
ATOM      6  C   UNL     1       0.840   9.452  21.132  0.00  0.00    +0.000 A 
ENDROOT
BRANCH   4   7
ATOM      7  C   UNL     1       2.619   6.971  18.930  0.00  0.00    +0.000 A 
ATOM      8  N   UNL     1       3.762   6.960  18.271  0.00  0.00    +0.000 NA
ATOM      9  C   UNL     1       4.046   5.619  18.115  0.00  0.00    +0.000 A 
ATOM     10  N   UNL     1       3.114   4.805  18.634  0.00  0.00    +0.000 NA
ATOM     11  N   UNL     1       2.247   5.677  19.152  0.00  0.00    +0.000 N 
ATOM     12  H   UNL     1       1.422   5.329  19.618  0.00  0.00    +0.000 HD
BRANCH   9  13
ATOM     13  C   UNL     1       5.227   5.130  17.419  0.00  0.00    +0.000 A 
ATOM     14  C   UNL     1       6.441   5.035  18.098  0.00  0.00    +0.000 A 
ATOM     15  C   UNL     1       7.552   4.619  17.393  0.00  0.00    +0.000 A 
ATOM     16  N   UNL     1       7.533   4.305  16.081  0.00  0.00    +0.000 NA
ATOM     17  C   UNL     1       6.351   4.398  15.429  0.00  0.00    +0.000 A 
ATOM     18  C   UNL     1       6.366   4.089  13.963  0.00  0.00    +0.000 C 
ATOM     19  C   UNL     1       5.177   4.790  16.065  0.00  0.00    +0.000 A 
ENDBRANCH   9  13
ENDBRANCH   4   7
BRANCH   6  20
ATOM     20  C   UNL     1       0.529   9.515  22.535  0.00  0.00    +0.000 C 
ATOM     21  N   UNL     1       0.279   9.552  23.656  0.00  0.00    +0.000 NA
ENDBRANCH   6  20
BRANCH   1  22
ATOM     22  O   UNL     1      -0.382  11.501  20.489  0.00  0.00    +0.000 OA
BRANCH  22  23
ATOM     23  C   UNL     1      -1.316  11.901  19.475  0.00  0.00    +0.000 C 
BRANCH  23  24
ATOM     24  C   UNL     1      -2.161  13.059  19.974  0.00  0.00    +0.000 C 
BRANCH  24  25
ATOM     25  O   UNL     1      -3.366  12.541  20.536  0.00  0.00    +0.000 OA
BRANCH  25  26
ATOM     26  C   UNL     1      -3.559  13.011  21.868  0.00  0.00    +0.000 C 
BRANCH  26  27
ATOM     27  C   UNL     1      -5.038  12.950  22.229  0.00  0.00    +0.000 C 
BRANCH  27  29
ATOM     28  C   UNL     1      -4.005  12.509  24.297  0.00  0.00    +0.000 C 
ATOM     29  O   UNL     1      -5.181  12.347  23.514  0.00  0.00    +0.000 OA
ENDBRANCH  27  29
ENDBRANCH  26  27
ENDBRANCH  25  26
ENDBRANCH  24  25
ENDBRANCH  23  24
ENDBRANCH  22  23
ENDBRANCH   1  22
TORSDOF 10
ENDMDL
MODEL 9
REMARK VINA RESULT:      -6.8      2.737      4.571
REMARK  Name = 
REMARK  12 active torsions:
REMARK  status: ('A' for Active; 'I' for Inactive)
REMARK    1  A    between atoms: C_1  and  O_2
REMARK    2  A    between atoms: O_2  and  C_3
REMARK    3  A    between atoms: C_3  and  C_4
REMARK    4  A    between atoms: C_4  and  O_5
REMARK    5  A    between atoms: O_5  and  C_6
REMARK    6  A    between atoms: C_6  and  C_7
REMARK    7  A    between atoms: C_7  and  O_8
REMARK    8  A    between atoms: O_8  and  C_9
REMARK    9  A    between atoms: C_12  and  C_13
REMARK   10  A    between atoms: C_15  and  C_16
REMARK   11  A    between atoms: C_20  and  C_21
REMARK   12  A    between atoms: C_26  and  C_27
REMARK                            x       y       z     vdW  Elec       q    Type
REMARK                         _______ _______ _______ _____ _____    ______ ____
ROOT
ATOM      1  C   UNL     1       3.883   6.053  18.731  0.00  0.00    +0.000 A 
ATOM      2  C   UNL     1       2.936   6.236  19.747  0.00  0.00    +0.000 A 
ATOM      3  C   UNL     1       2.079   7.344  19.729  0.00  0.00    +0.000 A 
ATOM      4  C   UNL     1       2.166   8.295  18.706  0.00  0.00    +0.000 A 
ATOM      5  C   UNL     1       3.086   8.089  17.676  0.00  0.00    +0.000 A 
ATOM      6  C   UNL     1       3.918   6.961  17.665  0.00  0.00    +0.000 A 
ENDROOT
BRANCH   4   7
ATOM      7  C   UNL     1       1.307   9.473  18.686  0.00  0.00    +0.000 A 
ATOM      8  N   UNL     1       0.040   9.564  19.042  0.00  0.00    +0.000 NA
ATOM      9  C   UNL     1      -0.284  10.882  18.795  0.00  0.00    +0.000 A 
ATOM     10  N   UNL     1       0.727  11.601  18.283  0.00  0.00    +0.000 NA
ATOM     11  N   UNL     1       1.711  10.700  18.245  0.00  0.00    +0.000 N 
ATOM     12  H   UNL     1       2.615  10.976  17.890  0.00  0.00    +0.000 HD
BRANCH   9  13
ATOM     13  C   UNL     1      -1.608  11.435  19.032  0.00  0.00    +0.000 A 
ATOM     14  C   UNL     1      -1.847  12.197  20.175  0.00  0.00    +0.000 A 
ATOM     15  C   UNL     1      -3.128  12.660  20.396  0.00  0.00    +0.000 A 
ATOM     16  N   UNL     1      -4.167  12.412  19.571  0.00  0.00    +0.000 NA
ATOM     17  C   UNL     1      -3.928  11.674  18.463  0.00  0.00    +0.000 A 
ATOM     18  C   UNL     1      -5.107  11.374  17.588  0.00  0.00    +0.000 C 
ATOM     19  C   UNL     1      -2.664  11.183  18.152  0.00  0.00    +0.000 A 
ENDBRANCH   9  13
ENDBRANCH   4   7
BRANCH   6  20
ATOM     20  C   UNL     1       4.716   6.758  16.485  0.00  0.00    +0.000 C 
ATOM     21  N   UNL     1       5.352   6.584  15.544  0.00  0.00    +0.000 NA
ENDBRANCH   6  20
BRANCH   1  22
ATOM     22  O   UNL     1       4.662   4.927  18.853  0.00  0.00    +0.000 OA
BRANCH  22  23
ATOM     23  C   UNL     1       4.255   3.811  18.046  0.00  0.00    +0.000 C 
BRANCH  23  24
ATOM     24  C   UNL     1       4.159   2.559  18.900  0.00  0.00    +0.000 C 
BRANCH  24  25
ATOM     25  O   UNL     1       3.048   1.783  18.453  0.00  0.00    +0.000 OA
BRANCH  25  26
ATOM     26  C   UNL     1       1.959   2.617  18.062  0.00  0.00    +0.000 C 
BRANCH  26  27
ATOM     27  C   UNL     1       0.789   2.420  19.019  0.00  0.00    +0.000 C 
BRANCH  27  29
ATOM     28  C   UNL     1       1.260   2.896  21.275  0.00  0.00    +0.000 C 
ATOM     29  O   UNL     1       0.836   3.429  20.028  0.00  0.00    +0.000 OA
ENDBRANCH  27  29
ENDBRANCH  26  27
ENDBRANCH  25  26
ENDBRANCH  24  25
ENDBRANCH  23  24
ENDBRANCH  22  23
ENDBRANCH   1  22
TORSDOF 10
ENDMDL
