MODEL 1
REMARK VINA RESULT:      -8.5      0.000      0.000
REMARK  Name = 
REMARK  7 active torsions:
REMARK  status: ('A' for Active; 'I' for Inactive)
REMARK    1  A    between atoms: C_1  and  C_2
REMARK    2  A    between atoms: C_4  and  C_5
REMARK    3  A    between atoms: C_7  and  N_8
REMARK    4  A    between atoms: C_9  and  C_11
REMARK    5  A    between atoms: C_11  and  S_12
REMARK    6  A    between atoms: S_12  and  C_13
REMARK    7  A    between atoms: C_22  and  N_23
REMARK                            x       y       z     vdW  Elec       q    Type
REMARK                         _______ _______ _______ _____ _____    ______ ____
ROOT
ATOM      1  C   UNL     1       5.949   5.508  16.777  0.00  0.00    +0.000 A 
ATOM      2  N   UNL     1       6.825   5.843  15.792  0.00  0.00    +0.000 NA
ATOM      3  C   UNL     1       6.729   5.160  14.641  0.00  0.00    +0.000 A 
ATOM      4  C   UNL     1       7.627   5.434  13.614  0.00  0.00    +0.000 A 
ATOM      5  C   UNL     1       7.595   4.726  12.410  0.00  0.00    +0.000 A 
ATOM      6  C   UNL     1       6.642   3.736  12.229  0.00  0.00    +0.000 A 
ATOM      7  C   UNL     1       5.730   3.461  13.250  0.00  0.00    +0.000 A 
ATOM      8  C   UNL     1       5.755   4.152  14.460  0.00  0.00    +0.000 A 
ATOM      9  N   UNL     1       4.866   3.851  15.431  0.00  0.00    +0.000 NA
ATOM     10  C   UNL     1       4.945   4.517  16.613  0.00  0.00    +0.000 A 
ENDROOT
BRANCH  10  11
ATOM     11  N   UNL     1       4.062   4.178  17.647  0.00  0.00    +0.000 N 
ATOM     12  C   UNL     1       3.783   2.760  17.885  0.00  0.00    +0.000 C 
ATOM     13  C   UNL     1       2.271   2.624  17.757  0.00  0.00    +0.000 C 
ATOM     14  C   UNL     1       1.765   3.974  18.224  0.00  0.00    +0.000 C 
ATOM     15  C   UNL     1       2.807   4.947  17.675  0.00  0.00    +0.000 C 
ENDBRANCH  10  11
BRANCH   1  16
ATOM     16  S   UNL     1       6.265   6.259  18.375  0.00  0.00    +0.000 S 
BRANCH  16  17
ATOM     17  C   UNL     1       8.008   6.735  18.190  0.00  0.00    +0.000 C 
BRANCH  17  19
ATOM     18  N   UNL     1       9.047   8.766  19.043  0.00  0.00    +0.000 N 
ATOM     19  C   UNL     1       8.102   8.249  18.162  0.00  0.00    +0.000 C 
ATOM     20  O   UNL     1       7.422   8.901  17.374  0.00  0.00    +0.000 OA
ATOM     21  H   UNL     1       9.639   8.099  19.527  0.00  0.00    +0.000 HD
BRANCH  18  28
ATOM     22  C   UNL     1      10.333  13.181  17.253  0.00  0.00    +0.000 C 
ATOM     23  C   UNL     1       9.940  12.313  18.413  0.00  0.00    +0.000 A 
ATOM     24  C   UNL     1       9.757  12.872  19.686  0.00  0.00    +0.000 A 
ATOM     25  C   UNL     1       9.368  12.071  20.763  0.00  0.00    +0.000 A 
ATOM     26  C   UNL     1       9.182  12.641  22.138  0.00  0.00    +0.000 C 
ATOM     27  C   UNL     1       9.139  10.706  20.555  0.00  0.00    +0.000 A 
ATOM     28  C   UNL     1       9.297  10.132  19.293  0.00  0.00    +0.000 A 
ATOM     29  C   UNL     1       9.732  10.936  18.232  0.00  0.00    +0.000 A 
ENDBRANCH  18  28
ENDBRANCH  17  19
ENDBRANCH  16  17
ENDBRANCH   1  16
TORSDOF 5
ENDMDL
MODEL 2
REMARK VINA RESULT:      -8.5      0.097      1.632
REMARK  Name = 
REMARK  7 active torsions:
REMARK  status: ('A' for Active; 'I' for Inactive)
REMARK    1  A    between atoms: C_1  and  C_2
REMARK    2  A    between atoms: C_4  and  C_5
REMARK    3  A    between atoms: C_7  and  N_8
REMARK    4  A    between atoms: C_9  and  C_11
REMARK    5  A    between atoms: C_11  and  S_12
REMARK    6  A    between atoms: S_12  and  C_13
REMARK    7  A    between atoms: C_22  and  N_23
REMARK                            x       y       z     vdW  Elec       q    Type
REMARK                         _______ _______ _______ _____ _____    ______ ____
ROOT
ATOM      1  C   UNL     1       5.921   5.500  16.802  0.00  0.00    +0.000 A 
ATOM      2  N   UNL     1       6.816   5.816  15.829  0.00  0.00    +0.000 NA
ATOM      3  C   UNL     1       6.713   5.144  14.672  0.00  0.00    +0.000 A 
ATOM      4  C   UNL     1       7.630   5.398  13.657  0.00  0.00    +0.000 A 
ATOM      5  C   UNL     1       7.591   4.699  12.449  0.00  0.00    +0.000 A 
ATOM      6  C   UNL     1       6.613   3.737  12.251  0.00  0.00    +0.000 A 
ATOM      7  C   UNL     1       5.682   3.481  13.261  0.00  0.00    +0.000 A 
ATOM      8  C   UNL     1       5.714   4.164  14.475  0.00  0.00    +0.000 A 
ATOM      9  N   UNL     1       4.806   3.883  15.435  0.00  0.00    +0.000 NA
ATOM     10  C   UNL     1       4.890   4.539  16.621  0.00  0.00    +0.000 A 
ENDROOT
BRANCH  10  11
ATOM     11  N   UNL     1       3.988   4.218  17.643  0.00  0.00    +0.000 N 
ATOM     12  C   UNL     1       3.838   2.812  18.023  0.00  0.00    +0.000 C 
ATOM     13  C   UNL     1       2.357   2.503  17.839  0.00  0.00    +0.000 C 
ATOM     14  C   UNL     1       1.693   3.834  18.131  0.00  0.00    +0.000 C 
ATOM     15  C   UNL     1       2.662   4.849  17.527  0.00  0.00    +0.000 C 
ENDBRANCH  10  11
BRANCH   1  16
ATOM     16  S   UNL     1       6.240   6.232  18.409  0.00  0.00    +0.000 S 
BRANCH  16  17
ATOM     17  C   UNL     1       7.979   6.720  18.222  0.00  0.00    +0.000 C 
BRANCH  17  19
ATOM     18  N   UNL     1       9.024   8.781  18.992  0.00  0.00    +0.000 N 
ATOM     19  C   UNL     1       8.058   8.234  18.152  0.00  0.00    +0.000 C 
ATOM     20  O   UNL     1       7.349   8.860  17.368  0.00  0.00    +0.000 OA
ATOM     21  H   UNL     1       9.635   8.131  19.475  0.00  0.00    +0.000 HD
BRANCH  18  28
ATOM     22  C   UNL     1       9.313  12.549  22.165  0.00  0.00    +0.000 C 
ATOM     23  C   UNL     1       9.405  12.020  20.763  0.00  0.00    +0.000 A 
ATOM     24  C   UNL     1       9.799  12.862  19.713  0.00  0.00    +0.000 A 
ATOM     25  C   UNL     1       9.909  12.367  18.410  0.00  0.00    +0.000 A 
ATOM     26  C   UNL     1      10.312  13.251  17.267  0.00  0.00    +0.000 C 
ATOM     27  C   UNL     1       9.645  11.015  18.166  0.00  0.00    +0.000 A 
ATOM     28  C   UNL     1       9.269  10.155  19.199  0.00  0.00    +0.000 A 
ATOM     29  C   UNL     1       9.117  10.673  20.492  0.00  0.00    +0.000 A 
ENDBRANCH  18  28
ENDBRANCH  17  19
ENDBRANCH  16  17
ENDBRANCH   1  16
TORSDOF 5
ENDMDL
MODEL 3
REMARK VINA RESULT:      -8.4      1.126      2.042
REMARK  Name = 
REMARK  7 active torsions:
REMARK  status: ('A' for Active; 'I' for Inactive)
REMARK    1  A    between atoms: C_1  and  C_2
REMARK    2  A    between atoms: C_4  and  C_5
REMARK    3  A    between atoms: C_7  and  N_8
REMARK    4  A    between atoms: C_9  and  C_11
REMARK    5  A    between atoms: C_11  and  S_12
REMARK    6  A    between atoms: S_12  and  C_13
REMARK    7  A    between atoms: C_22  and  N_23
REMARK                            x       y       z     vdW  Elec       q    Type
REMARK                         _______ _______ _______ _____ _____    ______ ____
ROOT
ATOM      1  C   UNL     1       6.679   5.693  16.537  0.00  0.00    +0.000 A 
ATOM      2  N   UNL     1       7.416   5.809  15.401  0.00  0.00    +0.000 NA
ATOM      3  C   UNL     1       7.039   5.054  14.357  0.00  0.00    +0.000 A 
ATOM      4  C   UNL     1       7.783   5.104  13.182  0.00  0.00    +0.000 A 
ATOM      5  C   UNL     1       7.457   4.310  12.080  0.00  0.00    +0.000 A 
ATOM      6  C   UNL     1       6.364   3.461  12.153  0.00  0.00    +0.000 A 
ATOM      7  C   UNL     1       5.605   3.412  13.325  0.00  0.00    +0.000 A 
ATOM      8  C   UNL     1       5.923   4.190  14.435  0.00  0.00    +0.000 A 
ATOM      9  N   UNL     1       5.175   4.109  15.557  0.00  0.00    +0.000 NA
ATOM     10  C   UNL     1       5.537   4.852  16.635  0.00  0.00    +0.000 A 
ENDROOT
BRANCH  10  11
ATOM     11  N   UNL     1       4.801   4.737  17.822  0.00  0.00    +0.000 N 
ATOM     12  C   UNL     1       5.106   3.623  18.723  0.00  0.00    +0.000 C 
ATOM     13  C   UNL     1       3.792   2.870  18.886  0.00  0.00    +0.000 C 
ATOM     14  C   UNL     1       2.752   3.963  18.745  0.00  0.00    +0.000 C 
ATOM     15  C   UNL     1       3.343   4.873  17.668  0.00  0.00    +0.000 C 
ENDBRANCH  10  11
BRANCH   1  16
ATOM     16  S   UNL     1       7.353   6.520  17.979  0.00  0.00    +0.000 S 
BRANCH  16  17
ATOM     17  C   UNL     1       7.258   8.255  17.453  0.00  0.00    +0.000 C 
BRANCH  17  19
ATOM     18  N   UNL     1       8.361  10.394  17.831  0.00  0.00    +0.000 N 
ATOM     19  C   UNL     1       8.313   9.052  18.198  0.00  0.00    +0.000 C 
ATOM     20  O   UNL     1       8.992   8.521  19.072  0.00  0.00    +0.000 OA
ATOM     21  H   UNL     1       7.639  10.724  17.200  0.00  0.00    +0.000 HD
BRANCH  18  28
ATOM     22  C   UNL     1       9.999  13.174  21.564  0.00  0.00    +0.000 C 
ATOM     23  C   UNL     1      10.094  12.734  20.132  0.00  0.00    +0.000 A 
ATOM     24  C   UNL     1      11.124  13.213  19.311  0.00  0.00    +0.000 A 
ATOM     25  C   UNL     1      11.230  12.786  17.984  0.00  0.00    +0.000 A 
ATOM     26  C   UNL     1      12.314  13.296  17.080  0.00  0.00    +0.000 C 
ATOM     27  C   UNL     1      10.310  11.856  17.488  0.00  0.00    +0.000 A 
ATOM     28  C   UNL     1       9.287  11.353  18.292  0.00  0.00    +0.000 A 
ATOM     29  C   UNL     1       9.164  11.822  19.606  0.00  0.00    +0.000 A 
ENDBRANCH  18  28
ENDBRANCH  17  19
ENDBRANCH  16  17
ENDBRANCH   1  16
TORSDOF 5
ENDMDL
MODEL 4
REMARK VINA RESULT:      -8.2      5.506      7.505
REMARK  Name = 
REMARK  7 active torsions:
REMARK  status: ('A' for Active; 'I' for Inactive)
REMARK    1  A    between atoms: C_1  and  C_2
REMARK    2  A    between atoms: C_4  and  C_5
REMARK    3  A    between atoms: C_7  and  N_8
REMARK    4  A    between atoms: C_9  and  C_11
REMARK    5  A    between atoms: C_11  and  S_12
REMARK    6  A    between atoms: S_12  and  C_13
REMARK    7  A    between atoms: C_22  and  N_23
REMARK                            x       y       z     vdW  Elec       q    Type
REMARK                         _______ _______ _______ _____ _____    ______ ____
ROOT
ATOM      1  C   UNL     1       2.932   6.453  18.252  0.00  0.00    +0.000 A 
ATOM      2  N   UNL     1       3.796   6.829  17.272  0.00  0.00    +0.000 NA
ATOM      3  C   UNL     1       4.535   5.858  16.713  0.00  0.00    +0.000 A 
ATOM      4  C   UNL     1       5.464   6.193  15.734  0.00  0.00    +0.000 A 
ATOM      5  C   UNL     1       6.286   5.227  15.147  0.00  0.00    +0.000 A 
ATOM      6  C   UNL     1       6.166   3.903  15.542  0.00  0.00    +0.000 A 
ATOM      7  C   UNL     1       5.228   3.556  16.517  0.00  0.00    +0.000 A 
ATOM      8  C   UNL     1       4.409   4.509  17.117  0.00  0.00    +0.000 A 
ATOM      9  N   UNL     1       3.522   4.141  18.066  0.00  0.00    +0.000 NA
ATOM     10  C   UNL     1       2.767   5.102  18.659  0.00  0.00    +0.000 A 
ENDROOT
BRANCH  10  11
ATOM     11  N   UNL     1       1.881   4.739  19.682  0.00  0.00    +0.000 N 
ATOM     12  C   UNL     1       2.366   4.764  21.063  0.00  0.00    +0.000 C 
ATOM     13  C   UNL     1       2.145   3.351  21.590  0.00  0.00    +0.000 C 
ATOM     14  C   UNL     1       0.920   2.890  20.827  0.00  0.00    +0.000 C 
ATOM     15  C   UNL     1       1.121   3.502  19.440  0.00  0.00    +0.000 C 
ENDBRANCH  10  11
BRANCH   1  16
ATOM     16  S   UNL     1       2.148   7.797  19.144  0.00  0.00    +0.000 S 
BRANCH  16  17
ATOM     17  C   UNL     1       2.279   9.138  17.925  0.00  0.00    +0.000 C 
BRANCH  17  19
ATOM     18  N   UNL     1       0.039   9.847  18.567  0.00  0.00    +0.000 N 
ATOM     19  C   UNL     1       1.346  10.263  18.332  0.00  0.00    +0.000 C 
ATOM     20  O   UNL     1       1.775  11.404  18.480  0.00  0.00    +0.000 OA
ATOM     21  H   UNL     1      -0.136   8.848  18.548  0.00  0.00    +0.000 HD
BRANCH  18  28
ATOM     22  C   UNL     1      -4.422  11.535  17.306  0.00  0.00    +0.000 C 
ATOM     23  C   UNL     1      -3.259  11.519  18.254  0.00  0.00    +0.000 A 
ATOM     24  C   UNL     1      -3.309  12.253  19.448  0.00  0.00    +0.000 A 
ATOM     25  C   UNL     1      -2.238  12.221  20.346  0.00  0.00    +0.000 A 
ATOM     26  C   UNL     1      -2.259  13.009  21.622  0.00  0.00    +0.000 C 
ATOM     27  C   UNL     1      -1.121  11.429  20.052  0.00  0.00    +0.000 A 
ATOM     28  C   UNL     1      -1.058  10.677  18.879  0.00  0.00    +0.000 A 
ATOM     29  C   UNL     1      -2.118  10.753  17.966  0.00  0.00    +0.000 A 
ENDBRANCH  18  28
ENDBRANCH  17  19
ENDBRANCH  16  17
ENDBRANCH   1  16
TORSDOF 5
ENDMDL
MODEL 5
REMARK VINA RESULT:      -8.2      5.488      7.708
REMARK  Name = 
REMARK  7 active torsions:
REMARK  status: ('A' for Active; 'I' for Inactive)
REMARK    1  A    between atoms: C_1  and  C_2
REMARK    2  A    between atoms: C_4  and  C_5
REMARK    3  A    between atoms: C_7  and  N_8
REMARK    4  A    between atoms: C_9  and  C_11
REMARK    5  A    between atoms: C_11  and  S_12
REMARK    6  A    between atoms: S_12  and  C_13
REMARK    7  A    between atoms: C_22  and  N_23
REMARK                            x       y       z     vdW  Elec       q    Type
REMARK                         _______ _______ _______ _____ _____    ______ ____
ROOT
ATOM      1  C   UNL     1       2.967   6.442  18.234  0.00  0.00    +0.000 A 
ATOM      2  N   UNL     1       3.829   6.809  17.249  0.00  0.00    +0.000 NA
ATOM      3  C   UNL     1       4.543   5.827  16.675  0.00  0.00    +0.000 A 
ATOM      4  C   UNL     1       5.470   6.152  15.690  0.00  0.00    +0.000 A 
ATOM      5  C   UNL     1       6.266   5.174  15.088  0.00  0.00    +0.000 A 
ATOM      6  C   UNL     1       6.122   3.850  15.473  0.00  0.00    +0.000 A 
ATOM      7  C   UNL     1       5.187   3.513  16.453  0.00  0.00    +0.000 A 
ATOM      8  C   UNL     1       4.393   4.478  17.069  0.00  0.00    +0.000 A 
ATOM      9  N   UNL     1       3.507   4.120  18.024  0.00  0.00    +0.000 NA
ATOM     10  C   UNL     1       2.778   5.091  18.631  0.00  0.00    +0.000 A 
ENDROOT
BRANCH  10  11
ATOM     11  N   UNL     1       1.894   4.738  19.660  0.00  0.00    +0.000 N 
ATOM     12  C   UNL     1       2.388   4.754  21.038  0.00  0.00    +0.000 C 
ATOM     13  C   UNL     1       2.152   3.344  21.564  0.00  0.00    +0.000 C 
ATOM     14  C   UNL     1       0.916   2.900  20.807  0.00  0.00    +0.000 C 
ATOM     15  C   UNL     1       1.116   3.511  19.421  0.00  0.00    +0.000 C 
ENDBRANCH  10  11
BRANCH   1  16
ATOM     16  S   UNL     1       2.219   7.795  19.144  0.00  0.00    +0.000 S 
BRANCH  16  17
ATOM     17  C   UNL     1       2.178   9.085  17.867  0.00  0.00    +0.000 C 
BRANCH  17  19
ATOM     18  N   UNL     1      -0.123   9.725  18.343  0.00  0.00    +0.000 N 
ATOM     19  C   UNL     1       1.197  10.162  18.289  0.00  0.00    +0.000 C 
ATOM     20  O   UNL     1       1.596  11.282  18.598  0.00  0.00    +0.000 OA
ATOM     21  H   UNL     1      -0.285   8.734  18.202  0.00  0.00    +0.000 HD
BRANCH  18  28
ATOM     22  C   UNL     1      -2.310  12.992  21.325  0.00  0.00    +0.000 C 
ATOM     23  C   UNL     1      -2.342  12.127  20.099  0.00  0.00    +0.000 A 
ATOM     24  C   UNL     1      -3.439  12.175  19.227  0.00  0.00    +0.000 A 
ATOM     25  C   UNL     1      -3.461  11.388  18.072  0.00  0.00    +0.000 A 
ATOM     26  C   UNL     1      -4.630  11.409  17.131  0.00  0.00    +0.000 C 
ATOM     27  C   UNL     1      -2.366  10.568  17.779  0.00  0.00    +0.000 A 
ATOM     28  C   UNL     1      -1.255  10.519  18.623  0.00  0.00    +0.000 A 
ATOM     29  C   UNL     1      -1.265  11.276  19.801  0.00  0.00    +0.000 A 
ENDBRANCH  18  28
ENDBRANCH  17  19
ENDBRANCH  16  17
ENDBRANCH   1  16
TORSDOF 5
ENDMDL
MODEL 6
REMARK VINA RESULT:      -8.1      5.213      5.757
REMARK  Name = 
REMARK  7 active torsions:
REMARK  status: ('A' for Active; 'I' for Inactive)
REMARK    1  A    between atoms: C_1  and  C_2
REMARK    2  A    between atoms: C_4  and  C_5
REMARK    3  A    between atoms: C_7  and  N_8
REMARK    4  A    between atoms: C_9  and  C_11
REMARK    5  A    between atoms: C_11  and  S_12
REMARK    6  A    between atoms: S_12  and  C_13
REMARK    7  A    between atoms: C_22  and  N_23
REMARK                            x       y       z     vdW  Elec       q    Type
REMARK                         _______ _______ _______ _____ _____    ______ ____
ROOT
ATOM      1  C   UNL     1       2.873   6.477  18.365  0.00  0.00    +0.000 A 
ATOM      2  N   UNL     1       3.715   6.893  17.382  0.00  0.00    +0.000 NA
ATOM      3  C   UNL     1       4.450   5.947  16.776  0.00  0.00    +0.000 A 
ATOM      4  C   UNL     1       5.358   6.323  15.791  0.00  0.00    +0.000 A 
ATOM      5  C   UNL     1       6.175   5.384  15.157  0.00  0.00    +0.000 A 
ATOM      6  C   UNL     1       6.073   4.047  15.510  0.00  0.00    +0.000 A 
ATOM      7  C   UNL     1       5.158   3.659  16.490  0.00  0.00    +0.000 A 
ATOM      8  C   UNL     1       4.343   4.585  17.138  0.00  0.00    +0.000 A 
ATOM      9  N   UNL     1       3.478   4.178  18.091  0.00  0.00    +0.000 NA
ATOM     10  C   UNL     1       2.727   5.112  18.730  0.00  0.00    +0.000 A 
ENDROOT
BRANCH  10  11
ATOM     11  N   UNL     1       1.864   4.708  19.757  0.00  0.00    +0.000 N 
ATOM     12  C   UNL     1       2.383   4.668  21.126  0.00  0.00    +0.000 C 
ATOM     13  C   UNL     1       2.166   3.234  21.594  0.00  0.00    +0.000 C 
ATOM     14  C   UNL     1       0.920   2.814  20.841  0.00  0.00    +0.000 C 
ATOM     15  C   UNL     1       1.091   3.486  19.479  0.00  0.00    +0.000 C 
ENDBRANCH  10  11
BRANCH   1  16
ATOM     16  S   UNL     1       2.096   7.785  19.316  0.00  0.00    +0.000 S 
BRANCH  16  17
ATOM     17  C   UNL     1       1.741   8.993  18.009  0.00  0.00    +0.000 C 
BRANCH  17  19
ATOM     18  N   UNL     1       1.963  11.413  17.842  0.00  0.00    +0.000 N 
ATOM     19  C   UNL     1       1.540  10.357  18.643  0.00  0.00    +0.000 C 
ATOM     20  O   UNL     1       0.998  10.459  19.740  0.00  0.00    +0.000 OA
ATOM     21  H   UNL     1       2.257  11.185  16.898  0.00  0.00    +0.000 HD
BRANCH  18  28
ATOM     22  C   UNL     1       4.566  15.567  18.408  0.00  0.00    +0.000 C 
ATOM     23  C   UNL     1       3.260  14.830  18.486  0.00  0.00    +0.000 A 
ATOM     24  C   UNL     1       2.083  15.510  18.828  0.00  0.00    +0.000 A 
ATOM     25  C   UNL     1       0.861  14.833  18.878  0.00  0.00    +0.000 A 
ATOM     26  C   UNL     1      -0.409  15.534  19.258  0.00  0.00    +0.000 C 
ATOM     27  C   UNL     1       0.819  13.471  18.558  0.00  0.00    +0.000 A 
ATOM     28  C   UNL     1       1.976  12.778  18.197  0.00  0.00    +0.000 A 
ATOM     29  C   UNL     1       3.201  13.457  18.196  0.00  0.00    +0.000 A 
ENDBRANCH  18  28
ENDBRANCH  17  19
ENDBRANCH  16  17
ENDBRANCH   1  16
TORSDOF 5
ENDMDL
MODEL 7
REMARK VINA RESULT:      -8.1      5.479      9.162
REMARK  Name = 
REMARK  7 active torsions:
REMARK  status: ('A' for Active; 'I' for Inactive)
REMARK    1  A    between atoms: C_1  and  C_2
REMARK    2  A    between atoms: C_4  and  C_5
REMARK    3  A    between atoms: C_7  and  N_8
REMARK    4  A    between atoms: C_9  and  C_11
REMARK    5  A    between atoms: C_11  and  S_12
REMARK    6  A    between atoms: S_12  and  C_13
REMARK    7  A    between atoms: C_22  and  N_23
REMARK                            x       y       z     vdW  Elec       q    Type
REMARK                         _______ _______ _______ _____ _____    ______ ____
ROOT
ATOM      1  C   UNL     1       2.933   6.788  18.641  0.00  0.00    +0.000 A 
ATOM      2  N   UNL     1       1.980   6.294  19.474  0.00  0.00    +0.000 NA
ATOM      3  C   UNL     1       2.145   5.031  19.900  0.00  0.00    +0.000 A 
ATOM      4  C   UNL     1       1.178   4.462  20.722  0.00  0.00    +0.000 A 
ATOM      5  C   UNL     1       1.282   3.140  21.161  0.00  0.00    +0.000 A 
ATOM      6  C   UNL     1       2.377   2.381  20.777  0.00  0.00    +0.000 A 
ATOM      7  C   UNL     1       3.358   2.947  19.961  0.00  0.00    +0.000 A 
ATOM      8  C   UNL     1       3.264   4.261  19.507  0.00  0.00    +0.000 A 
ATOM      9  N   UNL     1       4.224   4.773  18.708  0.00  0.00    +0.000 NA
ATOM     10  C   UNL     1       4.080   6.045  18.252  0.00  0.00    +0.000 A 
ENDROOT
BRANCH  10  11
ATOM     11  N   UNL     1       5.042   6.569  17.379  0.00  0.00    +0.000 N 
ATOM     12  C   UNL     1       5.122   6.024  16.023  0.00  0.00    +0.000 C 
ATOM     13  C   UNL     1       6.555   5.528  15.875  0.00  0.00    +0.000 C 
ATOM     14  C   UNL     1       7.337   6.473  16.765  0.00  0.00    +0.000 C 
ATOM     15  C   UNL     1       6.395   6.701  17.946  0.00  0.00    +0.000 C 
ENDBRANCH  10  11
BRANCH   1  16
ATOM     16  S   UNL     1       2.556   8.377  17.897  0.00  0.00    +0.000 S 
BRANCH  16  17
ATOM     17  C   UNL     1       1.557   9.139  19.209  0.00  0.00    +0.000 C 
BRANCH  17  19
ATOM     18  N   UNL     1      -0.711   9.435  18.373  0.00  0.00    +0.000 N 
ATOM     19  C   UNL     1       0.523  10.047  18.571  0.00  0.00    +0.000 C 
ATOM     20  O   UNL     1       0.791  11.220  18.327  0.00  0.00    +0.000 OA
ATOM     21  H   UNL     1      -0.830   8.504  18.759  0.00  0.00    +0.000 HD
BRANCH  18  28
ATOM     22  C   UNL     1      -4.747  12.254  18.714  0.00  0.00    +0.000 C 
ATOM     23  C   UNL     1      -3.831  11.388  17.899  0.00  0.00    +0.000 A 
ATOM     24  C   UNL     1      -4.053  11.221  16.524  0.00  0.00    +0.000 A 
ATOM     25  C   UNL     1      -3.188  10.435  15.757  0.00  0.00    +0.000 A 
ATOM     26  C   UNL     1      -3.413  10.227  14.288  0.00  0.00    +0.000 C 
ATOM     27  C   UNL     1      -2.082   9.835  16.369  0.00  0.00    +0.000 A 
ATOM     28  C   UNL     1      -1.832  10.003  17.732  0.00  0.00    +0.000 A 
ATOM     29  C   UNL     1      -2.731  10.754  18.499  0.00  0.00    +0.000 A 
ENDBRANCH  18  28
ENDBRANCH  17  19
ENDBRANCH  16  17
ENDBRANCH   1  16
TORSDOF 5
ENDMDL
MODEL 8
REMARK VINA RESULT:      -8.0      5.459      8.954
REMARK  Name = 
REMARK  7 active torsions:
REMARK  status: ('A' for Active; 'I' for Inactive)
REMARK    1  A    between atoms: C_1  and  C_2
REMARK    2  A    between atoms: C_4  and  C_5
REMARK    3  A    between atoms: C_7  and  N_8
REMARK    4  A    between atoms: C_9  and  C_11
REMARK    5  A    between atoms: C_11  and  S_12
REMARK    6  A    between atoms: S_12  and  C_13
REMARK    7  A    between atoms: C_22  and  N_23
REMARK                            x       y       z     vdW  Elec       q    Type
REMARK                         _______ _______ _______ _____ _____    ______ ____
ROOT
ATOM      1  C   UNL     1       2.866   6.787  18.509  0.00  0.00    +0.000 A 
ATOM      2  N   UNL     1       1.936   6.298  19.372  0.00  0.00    +0.000 NA
ATOM      3  C   UNL     1       2.150   5.064  19.854  0.00  0.00    +0.000 A 
ATOM      4  C   UNL     1       1.209   4.499  20.710  0.00  0.00    +0.000 A 
ATOM      5  C   UNL     1       1.364   3.203  21.209  0.00  0.00    +0.000 A 
ATOM      6  C   UNL     1       2.483   2.467  20.853  0.00  0.00    +0.000 A 
ATOM      7  C   UNL     1       3.438   3.030  20.003  0.00  0.00    +0.000 A 
ATOM      8  C   UNL     1       3.293   4.317  19.490  0.00  0.00    +0.000 A 
ATOM      9  N   UNL     1       4.229   4.825  18.660  0.00  0.00    +0.000 NA
ATOM     10  C   UNL     1       4.037   6.068  18.146  0.00  0.00    +0.000 A 
ENDROOT
BRANCH  10  11
ATOM     11  N   UNL     1       4.974   6.585  17.243  0.00  0.00    +0.000 N 
ATOM     12  C   UNL     1       5.237   5.839  16.010  0.00  0.00    +0.000 C 
ATOM     13  C   UNL     1       6.735   5.560  16.023  0.00  0.00    +0.000 C 
ATOM     14  C   UNL     1       7.298   6.754  16.769  0.00  0.00    +0.000 C 
ATOM     15  C   UNL     1       6.245   7.024  17.843  0.00  0.00    +0.000 C 
ENDBRANCH  10  11
BRANCH   1  16
ATOM     16  S   UNL     1       2.427   8.324  17.695  0.00  0.00    +0.000 S 
BRANCH  16  17
ATOM     17  C   UNL     1       1.847   9.305  19.109  0.00  0.00    +0.000 C 
BRANCH  17  19
ATOM     18  N   UNL     1      -0.465   9.566  18.388  0.00  0.00    +0.000 N 
ATOM     19  C   UNL     1       0.734  10.225  18.643  0.00  0.00    +0.000 C 
ATOM     20  O   UNL     1       0.917  11.437  18.572  0.00  0.00    +0.000 OA
ATOM     21  H   UNL     1      -0.509   8.582  18.632  0.00  0.00    +0.000 HD
BRANCH  18  28
ATOM     22  C   UNL     1      -3.485  10.168  14.534  0.00  0.00    +0.000 C 
ATOM     23  C   UNL     1      -3.133  10.450  15.965  0.00  0.00    +0.000 A 
ATOM     24  C   UNL     1      -3.997  11.204  16.771  0.00  0.00    +0.000 A 
ATOM     25  C   UNL     1      -3.683  11.449  18.112  0.00  0.00    +0.000 A 
ATOM     26  C   UNL     1      -4.582  12.266  18.991  0.00  0.00    +0.000 C 
ATOM     27  C   UNL     1      -2.508  10.913  18.649  0.00  0.00    +0.000 A 
ATOM     28  C   UNL     1      -1.642  10.144  17.870  0.00  0.00    +0.000 A 
ATOM     29  C   UNL     1      -1.944   9.945  16.517  0.00  0.00    +0.000 A 
ENDBRANCH  18  28
ENDBRANCH  17  19
ENDBRANCH  16  17
ENDBRANCH   1  16
TORSDOF 5
ENDMDL
MODEL 9
REMARK VINA RESULT:      -8.0      5.227      5.859
REMARK  Name = 
REMARK  7 active torsions:
REMARK  status: ('A' for Active; 'I' for Inactive)
REMARK    1  A    between atoms: C_1  and  C_2
REMARK    2  A    between atoms: C_4  and  C_5
REMARK    3  A    between atoms: C_7  and  N_8
REMARK    4  A    between atoms: C_9  and  C_11
REMARK    5  A    between atoms: C_11  and  S_12
REMARK    6  A    between atoms: S_12  and  C_13
REMARK    7  A    between atoms: C_22  and  N_23
REMARK                            x       y       z     vdW  Elec       q    Type
REMARK                         _______ _______ _______ _____ _____    ______ ____
ROOT
ATOM      1  C   UNL     1       2.886   6.501  18.374  0.00  0.00    +0.000 A 
ATOM      2  N   UNL     1       3.726   6.911  17.387  0.00  0.00    +0.000 NA
ATOM      3  C   UNL     1       4.452   5.959  16.778  0.00  0.00    +0.000 A 
ATOM      4  C   UNL     1       5.358   6.328  15.790  0.00  0.00    +0.000 A 
ATOM      5  C   UNL     1       6.165   5.383  15.152  0.00  0.00    +0.000 A 
ATOM      6  C   UNL     1       6.055   4.047  15.504  0.00  0.00    +0.000 A 
ATOM      7  C   UNL     1       5.140   3.665  16.488  0.00  0.00    +0.000 A 
ATOM      8  C   UNL     1       4.335   4.598  17.140  0.00  0.00    +0.000 A 
ATOM      9  N   UNL     1       3.471   4.196  18.097  0.00  0.00    +0.000 NA
ATOM     10  C   UNL     1       2.730   5.136  18.739  0.00  0.00    +0.000 A 
ENDROOT
BRANCH  10  11
ATOM     11  N   UNL     1       1.869   4.739  19.770  0.00  0.00    +0.000 N 
ATOM     12  C   UNL     1       2.391   4.700  21.137  0.00  0.00    +0.000 C 
ATOM     13  C   UNL     1       2.169   3.269  21.610  0.00  0.00    +0.000 C 
ATOM     14  C   UNL     1       0.919   2.852  20.861  0.00  0.00    +0.000 C 
ATOM     15  C   UNL     1       1.089   3.520  19.497  0.00  0.00    +0.000 C 
ENDBRANCH  10  11
BRANCH   1  16
ATOM     16  S   UNL     1       2.123   7.814  19.329  0.00  0.00    +0.000 S 
BRANCH  16  17
ATOM     17  C   UNL     1       1.724   9.003  18.016  0.00  0.00    +0.000 C 
BRANCH  17  19
ATOM     18  N   UNL     1       1.995  11.418  17.851  0.00  0.00    +0.000 N 
ATOM     19  C   UNL     1       1.524  10.372  18.640  0.00  0.00    +0.000 C 
ATOM     20  O   UNL     1       0.945  10.488  19.716  0.00  0.00    +0.000 OA
ATOM     21  H   UNL     1       2.318  11.182  16.919  0.00  0.00    +0.000 HD
BRANCH  18  28
ATOM     22  C   UNL     1      -0.515  15.412  19.300  0.00  0.00    +0.000 C 
ATOM     23  C   UNL     1       0.781  14.761  18.911  0.00  0.00    +0.000 A 
ATOM     24  C   UNL     1       1.982  15.482  18.975  0.00  0.00    +0.000 A 
ATOM     25  C   UNL     1       3.194  14.872  18.637  0.00  0.00    +0.000 A 
ATOM     26  C   UNL     1       4.490  15.625  18.681  0.00  0.00    +0.000 C 
ATOM     27  C   UNL     1       3.200  13.525  18.256  0.00  0.00    +0.000 A 
ATOM     28  C   UNL     1       2.019  12.784  18.203  0.00  0.00    +0.000 A 
ATOM     29  C   UNL     1       0.806  13.419  18.500  0.00  0.00    +0.000 A 
ENDBRANCH  18  28
ENDBRANCH  17  19
ENDBRANCH  16  17
ENDBRANCH   1  16
TORSDOF 5
ENDMDL
