MODEL 1
REMARK VINA RESULT:      -7.5      0.000      0.000
REMARK  Name = 
REMARK  5 active torsions:
REMARK  status: ('A' for Active; 'I' for Inactive)
REMARK    1  A    between atoms: C_2  and  C_3
REMARK    2  A    between atoms: C_2  and  N_4
REMARK    3  A    between atoms: N_7  and  C_8
REMARK    4  A    between atoms: C_8  and  C_9
REMARK    5  A    between atoms: C_14  and  C_15
REMARK                            x       y       z     vdW  Elec       q    Type
REMARK                         _______ _______ _______ _____ _____    ______ ____
ROOT
ATOM      1  N   UNL     1       6.396   5.712  17.829  0.00  0.00    +0.000 N 
ATOM      2  C   UNL     1       5.060   5.603  18.372  0.00  0.00    +0.000 A 
ATOM      3  O   UNL     1       4.663   5.912  19.487  0.00  0.00    +0.000 OA
ATOM      4  N   UNL     1       4.247   5.077  17.347  0.00  0.00    +0.000 N 
ATOM      5  C   UNL     1       5.028   4.821  16.220  0.00  0.00    +0.000 A 
ATOM      6  C   UNL     1       4.665   4.238  15.018  0.00  0.00    +0.000 A 
ATOM      7  C   UNL     1       5.661   4.051  14.063  0.00  0.00    +0.000 A 
ATOM      8  C   UNL     1       6.986   4.441  14.328  0.00  0.00    +0.000 A 
ATOM      9  C   UNL     1       7.333   5.024  15.553  0.00  0.00    +0.000 A 
ATOM     10  C   UNL     1       6.337   5.223  16.494  0.00  0.00    +0.000 A 
ENDROOT
BRANCH   1  12
ATOM     11  C   UNL     1       8.027   5.588  19.577  0.00  0.00    +0.000 C 
ATOM     12  C   UNL     1       7.480   6.232  18.530  0.00  0.00    +0.000 C 
ATOM     13  C   UNL     1       8.004   7.595  18.168  0.00  0.00    +0.000 C 
ENDBRANCH   1  12
BRANCH   4  14
ATOM     14  C   UNL     1       2.838   4.783  17.489  0.00  0.00    +0.000 C 
BRANCH  14  15
ATOM     15  C   UNL     1       2.491   4.061  18.779  0.00  0.00    +0.000 A 
ATOM     16  C   UNL     1       1.771   4.744  19.779  0.00  0.00    +0.000 A 
ATOM     17  C   UNL     1       1.462   4.136  20.993  0.00  0.00    +0.000 A 
ATOM     18  C   UNL     1       1.844   2.822  21.223  0.00  0.00    +0.000 A 
ATOM     19  C   UNL     1       2.508   2.107  20.225  0.00  0.00    +0.000 A 
ATOM     20  C   UNL     1       2.823   2.706  18.994  0.00  0.00    +0.000 A 
ATOM     21  C   UNL     1       3.507   1.872  17.943  0.00  0.00    +0.000 C 
ENDBRANCH  14  15
ENDBRANCH   4  14
TORSDOF 3
ENDMDL
MODEL 2
REMARK VINA RESULT:      -7.4      1.773      5.899
REMARK  Name = 
REMARK  5 active torsions:
REMARK  status: ('A' for Active; 'I' for Inactive)
REMARK    1  A    between atoms: C_2  and  C_3
REMARK    2  A    between atoms: C_2  and  N_4
REMARK    3  A    between atoms: N_7  and  C_8
REMARK    4  A    between atoms: C_8  and  C_9
REMARK    5  A    between atoms: C_14  and  C_15
REMARK                            x       y       z     vdW  Elec       q    Type
REMARK                         _______ _______ _______ _____ _____    ______ ____
ROOT
ATOM      1  N   UNL     1       2.834   4.040  19.714  0.00  0.00    +0.000 N 
ATOM      2  C   UNL     1       4.180   3.562  19.493  0.00  0.00    +0.000 A 
ATOM      3  O   UNL     1       4.688   2.513  19.864  0.00  0.00    +0.000 OA
ATOM      4  N   UNL     1       4.839   4.544  18.723  0.00  0.00    +0.000 N 
ATOM      5  C   UNL     1       3.973   5.615  18.499  0.00  0.00    +0.000 A 
ATOM      6  C   UNL     1       4.218   6.819  17.860  0.00  0.00    +0.000 A 
ATOM      7  C   UNL     1       3.182   7.748  17.815  0.00  0.00    +0.000 A 
ATOM      8  C   UNL     1       1.939   7.462  18.405  0.00  0.00    +0.000 A 
ATOM      9  C   UNL     1       1.713   6.239  19.050  0.00  0.00    +0.000 A 
ATOM     10  C   UNL     1       2.741   5.311  19.080  0.00  0.00    +0.000 A 
ENDROOT
BRANCH   1  12
ATOM     11  C   UNL     1       1.900   3.168  21.738  0.00  0.00    +0.000 C 
ATOM     12  C   UNL     1       1.859   3.325  20.403  0.00  0.00    +0.000 C 
ATOM     13  C   UNL     1       0.772   2.630  19.628  0.00  0.00    +0.000 C 
ENDBRANCH   1  12
BRANCH   4  14
ATOM     14  C   UNL     1       6.221   4.468  18.307  0.00  0.00    +0.000 C 
BRANCH  14  15
ATOM     15  C   UNL     1       6.416   4.600  16.807  0.00  0.00    +0.000 A 
ATOM     16  C   UNL     1       5.871   3.622  15.951  0.00  0.00    +0.000 A 
ATOM     17  C   UNL     1       6.055   3.681  14.573  0.00  0.00    +0.000 A 
ATOM     18  C   UNL     1       6.765   4.735  14.017  0.00  0.00    +0.000 A 
ATOM     19  C   UNL     1       7.264   5.746  14.838  0.00  0.00    +0.000 A 
ATOM     20  C   UNL     1       7.084   5.702  16.231  0.00  0.00    +0.000 A 
ATOM     21  C   UNL     1       7.614   6.842  17.061  0.00  0.00    +0.000 C 
ENDBRANCH  14  15
ENDBRANCH   4  14
TORSDOF 3
ENDMDL
MODEL 3
REMARK VINA RESULT:      -7.3      0.579      1.588
REMARK  Name = 
REMARK  5 active torsions:
REMARK  status: ('A' for Active; 'I' for Inactive)
REMARK    1  A    between atoms: C_2  and  C_3
REMARK    2  A    between atoms: C_2  and  N_4
REMARK    3  A    between atoms: N_7  and  C_8
REMARK    4  A    between atoms: C_8  and  C_9
REMARK    5  A    between atoms: C_14  and  C_15
REMARK                            x       y       z     vdW  Elec       q    Type
REMARK                         _______ _______ _______ _____ _____    ______ ____
ROOT
ATOM      1  N   UNL     1       6.446   5.804  17.941  0.00  0.00    +0.000 N 
ATOM      2  C   UNL     1       5.102   5.881  18.470  0.00  0.00    +0.000 A 
ATOM      3  O   UNL     1       4.736   6.269  19.572  0.00  0.00    +0.000 OA
ATOM      4  N   UNL     1       4.238   5.435  17.449  0.00  0.00    +0.000 N 
ATOM      5  C   UNL     1       4.990   5.051  16.339  0.00  0.00    +0.000 A 
ATOM      6  C   UNL     1       4.567   4.487  15.147  0.00  0.00    +0.000 A 
ATOM      7  C   UNL     1       5.541   4.149  14.211  0.00  0.00    +0.000 A 
ATOM      8  C   UNL     1       6.902   4.373  14.482  0.00  0.00    +0.000 A 
ATOM      9  C   UNL     1       7.309   4.941  15.696  0.00  0.00    +0.000 A 
ATOM     10  C   UNL     1       6.337   5.290  16.619  0.00  0.00    +0.000 A 
ENDROOT
BRANCH   1  12
ATOM     11  C   UNL     1       8.101   5.456  19.635  0.00  0.00    +0.000 C 
ATOM     12  C   UNL     1       7.580   6.200  18.643  0.00  0.00    +0.000 C 
ATOM     13  C   UNL     1       8.195   7.542  18.349  0.00  0.00    +0.000 C 
ENDBRANCH   1  12
BRANCH   4  14
ATOM     14  C   UNL     1       2.802   5.328  17.580  0.00  0.00    +0.000 C 
BRANCH  14  15
ATOM     15  C   UNL     1       2.354   4.198  18.490  0.00  0.00    +0.000 A 
ATOM     16  C   UNL     1       2.524   2.864  18.069  0.00  0.00    +0.000 A 
ATOM     17  C   UNL     1       2.097   1.796  18.853  0.00  0.00    +0.000 A 
ATOM     18  C   UNL     1       1.512   2.038  20.087  0.00  0.00    +0.000 A 
ATOM     19  C   UNL     1       1.385   3.348  20.551  0.00  0.00    +0.000 A 
ATOM     20  C   UNL     1       1.816   4.435  19.773  0.00  0.00    +0.000 A 
ATOM     21  C   UNL     1       1.686   5.823  20.344  0.00  0.00    +0.000 C 
ENDBRANCH  14  15
ENDBRANCH   4  14
TORSDOF 3
ENDMDL
MODEL 4
REMARK VINA RESULT:      -7.3      0.840      1.552
REMARK  Name = 
REMARK  5 active torsions:
REMARK  status: ('A' for Active; 'I' for Inactive)
REMARK    1  A    between atoms: C_2  and  C_3
REMARK    2  A    between atoms: C_2  and  N_4
REMARK    3  A    between atoms: N_7  and  C_8
REMARK    4  A    between atoms: C_8  and  C_9
REMARK    5  A    between atoms: C_14  and  C_15
REMARK                            x       y       z     vdW  Elec       q    Type
REMARK                         _______ _______ _______ _____ _____    ______ ____
ROOT
ATOM      1  N   UNL     1       6.655   5.230  17.730  0.00  0.00    +0.000 N 
ATOM      2  C   UNL     1       5.682   4.424  18.435  0.00  0.00    +0.000 A 
ATOM      3  O   UNL     1       5.470   4.363  19.638  0.00  0.00    +0.000 OA
ATOM      4  N   UNL     1       4.969   3.701  17.456  0.00  0.00    +0.000 N 
ATOM      5  C   UNL     1       5.486   3.994  16.194  0.00  0.00    +0.000 A 
ATOM      6  C   UNL     1       5.143   3.461  14.963  0.00  0.00    +0.000 A 
ATOM      7  C   UNL     1       5.856   3.897  13.849  0.00  0.00    +0.000 A 
ATOM      8  C   UNL     1       6.888   4.842  13.986  0.00  0.00    +0.000 A 
ATOM      9  C   UNL     1       7.222   5.365  15.242  0.00  0.00    +0.000 A 
ATOM     10  C   UNL     1       6.501   4.941  16.346  0.00  0.00    +0.000 A 
ENDROOT
BRANCH   1  12
ATOM     11  C   UNL     1       8.201   5.789  19.470  0.00  0.00    +0.000 C 
ATOM     12  C   UNL     1       7.526   6.117  18.354  0.00  0.00    +0.000 C 
ATOM     13  C   UNL     1       7.654   7.519  17.820  0.00  0.00    +0.000 C 
ENDBRANCH   1  12
BRANCH   4  14
ATOM     14  C   UNL     1       3.920   2.749  17.744  0.00  0.00    +0.000 C 
BRANCH  14  15
ATOM     15  C   UNL     1       3.086   3.108  18.961  0.00  0.00    +0.000 A 
ATOM     16  C   UNL     1       3.316   2.437  20.178  0.00  0.00    +0.000 A 
ATOM     17  C   UNL     1       2.552   2.706  21.311  0.00  0.00    +0.000 A 
ATOM     18  C   UNL     1       1.558   3.672  21.258  0.00  0.00    +0.000 A 
ATOM     19  C   UNL     1       1.350   4.391  20.080  0.00  0.00    +0.000 A 
ATOM     20  C   UNL     1       2.115   4.133  18.930  0.00  0.00    +0.000 A 
ATOM     21  C   UNL     1       1.868   4.967  17.700  0.00  0.00    +0.000 C 
ENDBRANCH  14  15
ENDBRANCH   4  14
TORSDOF 3
ENDMDL
MODEL 5
REMARK VINA RESULT:      -7.1      9.064     11.414
REMARK  Name = 
REMARK  5 active torsions:
REMARK  status: ('A' for Active; 'I' for Inactive)
REMARK    1  A    between atoms: C_2  and  C_3
REMARK    2  A    between atoms: C_2  and  N_4
REMARK    3  A    between atoms: N_7  and  C_8
REMARK    4  A    between atoms: C_8  and  C_9
REMARK    5  A    between atoms: C_14  and  C_15
REMARK                            x       y       z     vdW  Elec       q    Type
REMARK                         _______ _______ _______ _____ _____    ______ ____
ROOT
ATOM      1  N   UNL     1      -4.909  12.297  19.163  0.00  0.00    +0.000 N 
ATOM      2  C   UNL     1      -3.857  12.635  20.096  0.00  0.00    +0.000 A 
ATOM      3  O   UNL     1      -3.952  13.178  21.189  0.00  0.00    +0.000 OA
ATOM      4  N   UNL     1      -2.647  12.195  19.522  0.00  0.00    +0.000 N 
ATOM      5  C   UNL     1      -2.903  11.643  18.266  0.00  0.00    +0.000 A 
ATOM      6  C   UNL     1      -2.011  11.157  17.325  0.00  0.00    +0.000 A 
ATOM      7  C   UNL     1      -2.532  10.700  16.117  0.00  0.00    +0.000 A 
ATOM      8  C   UNL     1      -3.916  10.742  15.874  0.00  0.00    +0.000 A 
ATOM      9  C   UNL     1      -4.801  11.241  16.838  0.00  0.00    +0.000 A 
ATOM     10  C   UNL     1      -4.281  11.681  18.045  0.00  0.00    +0.000 A 
ENDROOT
BRANCH   1  12
ATOM     11  C   UNL     1      -6.817  13.743  19.182  0.00  0.00    +0.000 C 
ATOM     12  C   UNL     1      -6.260  12.537  19.394  0.00  0.00    +0.000 C 
ATOM     13  C   UNL     1      -7.109  11.445  19.985  0.00  0.00    +0.000 C 
ENDBRANCH   1  12
BRANCH   4  14
ATOM     14  C   UNL     1      -1.344  12.368  20.123  0.00  0.00    +0.000 C 
BRANCH  14  15
ATOM     15  C   UNL     1      -0.929  11.218  21.024  0.00  0.00    +0.000 A 
ATOM     16  C   UNL     1      -0.438  10.031  20.446  0.00  0.00    +0.000 A 
ATOM     17  C   UNL     1      -0.081   8.936  21.229  0.00  0.00    +0.000 A 
ATOM     18  C   UNL     1      -0.182   9.015  22.610  0.00  0.00    +0.000 A 
ATOM     19  C   UNL     1      -0.610  10.201  23.209  0.00  0.00    +0.000 A 
ATOM     20  C   UNL     1      -0.971  11.314  22.432  0.00  0.00    +0.000 A 
ATOM     21  C   UNL     1      -1.391  12.577  23.137  0.00  0.00    +0.000 C 
ENDBRANCH  14  15
ENDBRANCH   4  14
TORSDOF 3
ENDMDL
MODEL 6
REMARK VINA RESULT:      -7.0      1.763      5.869
REMARK  Name = 
REMARK  5 active torsions:
REMARK  status: ('A' for Active; 'I' for Inactive)
REMARK    1  A    between atoms: C_2  and  C_3
REMARK    2  A    between atoms: C_2  and  N_4
REMARK    3  A    between atoms: N_7  and  C_8
REMARK    4  A    between atoms: C_8  and  C_9
REMARK    5  A    between atoms: C_14  and  C_15
REMARK                            x       y       z     vdW  Elec       q    Type
REMARK                         _______ _______ _______ _____ _____    ______ ____
ROOT
ATOM      1  N   UNL     1       2.716   6.489  19.263  0.00  0.00    +0.000 N 
ATOM      2  C   UNL     1       4.040   6.347  18.699  0.00  0.00    +0.000 A 
ATOM      3  O   UNL     1       4.709   7.180  18.103  0.00  0.00    +0.000 OA
ATOM      4  N   UNL     1       4.464   5.032  18.983  0.00  0.00    +0.000 N 
ATOM      5  C   UNL     1       3.447   4.352  19.655  0.00  0.00    +0.000 A 
ATOM      6  C   UNL     1       3.399   3.028  20.059  0.00  0.00    +0.000 A 
ATOM      7  C   UNL     1       2.232   2.584  20.675  0.00  0.00    +0.000 A 
ATOM      8  C   UNL     1       1.148   3.458  20.869  0.00  0.00    +0.000 A 
ATOM      9  C   UNL     1       1.217   4.792  20.449  0.00  0.00    +0.000 A 
ATOM     10  C   UNL     1       2.384   5.236  19.849  0.00  0.00    +0.000 A 
ENDROOT
BRANCH   1  12
ATOM     11  C   UNL     1       1.731   8.316  18.070  0.00  0.00    +0.000 C 
ATOM     12  C   UNL     1       1.977   7.667  19.223  0.00  0.00    +0.000 C 
ATOM     13  C   UNL     1       1.512   8.287  20.513  0.00  0.00    +0.000 C 
ENDBRANCH   1  12
BRANCH   4  14
ATOM     14  C   UNL     1       5.729   4.471  18.565  0.00  0.00    +0.000 C 
BRANCH  14  15
ATOM     15  C   UNL     1       5.961   4.536  17.066  0.00  0.00    +0.000 A 
ATOM     16  C   UNL     1       5.184   3.729  16.212  0.00  0.00    +0.000 A 
ATOM     17  C   UNL     1       5.385   3.726  14.834  0.00  0.00    +0.000 A 
ATOM     18  C   UNL     1       6.351   4.551  14.278  0.00  0.00    +0.000 A 
ATOM     19  C   UNL     1       7.094   5.402  15.097  0.00  0.00    +0.000 A 
ATOM     20  C   UNL     1       6.899   5.418  16.488  0.00  0.00    +0.000 A 
ATOM     21  C   UNL     1       7.705   6.385  17.316  0.00  0.00    +0.000 C 
ENDBRANCH  14  15
ENDBRANCH   4  14
TORSDOF 3
ENDMDL
MODEL 7
REMARK VINA RESULT:      -6.9      4.885      7.560
REMARK  Name = 
REMARK  5 active torsions:
REMARK  status: ('A' for Active; 'I' for Inactive)
REMARK    1  A    between atoms: C_2  and  C_3
REMARK    2  A    between atoms: C_2  and  N_4
REMARK    3  A    between atoms: N_7  and  C_8
REMARK    4  A    between atoms: C_8  and  C_9
REMARK    5  A    between atoms: C_14  and  C_15
REMARK                            x       y       z     vdW  Elec       q    Type
REMARK                         _______ _______ _______ _____ _____    ______ ____
ROOT
ATOM      1  N   UNL     1      -0.111  10.050  19.145  0.00  0.00    +0.000 N 
ATOM      2  C   UNL     1       0.947   9.161  18.718  0.00  0.00    +0.000 A 
ATOM      3  O   UNL     1       1.302   8.890  17.580  0.00  0.00    +0.000 OA
ATOM      4  N   UNL     1       1.545   8.650  19.889  0.00  0.00    +0.000 N 
ATOM      5  C   UNL     1       0.879   9.151  21.007  0.00  0.00    +0.000 A 
ATOM      6  C   UNL     1       1.077   8.861  22.347  0.00  0.00    +0.000 A 
ATOM      7  C   UNL     1       0.231   9.470  23.271  0.00  0.00    +0.000 A 
ATOM      8  C   UNL     1      -0.786  10.341  22.844  0.00  0.00    +0.000 A 
ATOM      9  C   UNL     1      -0.972  10.617  21.484  0.00  0.00    +0.000 A 
ATOM     10  C   UNL     1      -0.120  10.022  20.567  0.00  0.00    +0.000 A 
ENDROOT
BRANCH   1  12
ATOM     11  C   UNL     1      -0.871  12.126  18.227  0.00  0.00    +0.000 C 
ATOM     12  C   UNL     1      -0.910  10.782  18.273  0.00  0.00    +0.000 C 
ATOM     13  C   UNL     1      -1.914  10.060  17.415  0.00  0.00    +0.000 C 
ENDBRANCH   1  12
BRANCH   4  14
ATOM     14  C   UNL     1       2.631   7.696  19.904  0.00  0.00    +0.000 C 
BRANCH  14  15
ATOM     15  C   UNL     1       2.192   6.267  19.640  0.00  0.00    +0.000 A 
ATOM     16  C   UNL     1       1.297   5.643  20.532  0.00  0.00    +0.000 A 
ATOM     17  C   UNL     1       0.894   4.323  20.351  0.00  0.00    +0.000 A 
ATOM     18  C   UNL     1       1.358   3.604  19.260  0.00  0.00    +0.000 A 
ATOM     19  C   UNL     1       2.199   4.218  18.331  0.00  0.00    +0.000 A 
ATOM     20  C   UNL     1       2.611   5.551  18.498  0.00  0.00    +0.000 A 
ATOM     21  C   UNL     1       3.490   6.169  17.442  0.00  0.00    +0.000 C 
ENDBRANCH  14  15
ENDBRANCH   4  14
TORSDOF 3
ENDMDL
MODEL 8
REMARK VINA RESULT:      -6.9      2.723      5.023
REMARK  Name = 
REMARK  5 active torsions:
REMARK  status: ('A' for Active; 'I' for Inactive)
REMARK    1  A    between atoms: C_2  and  C_3
REMARK    2  A    between atoms: C_2  and  N_4
REMARK    3  A    between atoms: N_7  and  C_8
REMARK    4  A    between atoms: C_8  and  C_9
REMARK    5  A    between atoms: C_14  and  C_15
REMARK                            x       y       z     vdW  Elec       q    Type
REMARK                         _______ _______ _______ _____ _____    ______ ____
ROOT
ATOM      1  N   UNL     1       4.598   4.676  17.485  0.00  0.00    +0.000 N 
ATOM      2  C   UNL     1       4.498   5.863  18.304  0.00  0.00    +0.000 A 
ATOM      3  O   UNL     1       5.245   6.832  18.337  0.00  0.00    +0.000 OA
ATOM      4  N   UNL     1       3.329   5.724  19.080  0.00  0.00    +0.000 N 
ATOM      5  C   UNL     1       2.734   4.493  18.805  0.00  0.00    +0.000 A 
ATOM      6  C   UNL     1       1.619   3.910  19.386  0.00  0.00    +0.000 A 
ATOM      7  C   UNL     1       1.260   2.636  18.957  0.00  0.00    +0.000 A 
ATOM      8  C   UNL     1       2.014   1.973  17.972  0.00  0.00    +0.000 A 
ATOM      9  C   UNL     1       3.140   2.578  17.401  0.00  0.00    +0.000 A 
ATOM     10  C   UNL     1       3.487   3.853  17.819  0.00  0.00    +0.000 A 
ENDROOT
BRANCH   1  12
ATOM     11  C   UNL     1       6.898   4.356  16.904  0.00  0.00    +0.000 C 
ATOM     12  C   UNL     1       5.605   4.460  16.549  0.00  0.00    +0.000 C 
ATOM     13  C   UNL     1       5.255   4.431  15.086  0.00  0.00    +0.000 C 
ENDBRANCH   1  12
BRANCH   4  14
ATOM     14  C   UNL     1       2.877   6.686  20.060  0.00  0.00    +0.000 C 
BRANCH  14  15
ATOM     15  C   UNL     1       2.065   7.825  19.468  0.00  0.00    +0.000 A 
ATOM     16  C   UNL     1       2.052   8.010  18.072  0.00  0.00    +0.000 A 
ATOM     17  C   UNL     1       1.353   9.062  17.486  0.00  0.00    +0.000 A 
ATOM     18  C   UNL     1       0.630   9.937  18.283  0.00  0.00    +0.000 A 
ATOM     19  C   UNL     1       0.581   9.740  19.664  0.00  0.00    +0.000 A 
ATOM     20  C   UNL     1       1.278   8.681  20.268  0.00  0.00    +0.000 A 
ATOM     21  C   UNL     1       1.156   8.498  21.759  0.00  0.00    +0.000 C 
ENDBRANCH  14  15
ENDBRANCH   4  14
TORSDOF 3
ENDMDL
MODEL 9
REMARK VINA RESULT:      -6.9      1.777      5.715
REMARK  Name = 
REMARK  5 active torsions:
REMARK  status: ('A' for Active; 'I' for Inactive)
REMARK    1  A    between atoms: C_2  and  C_3
REMARK    2  A    between atoms: C_2  and  N_4
REMARK    3  A    between atoms: N_7  and  C_8
REMARK    4  A    between atoms: C_8  and  C_9
REMARK    5  A    between atoms: C_14  and  C_15
REMARK                            x       y       z     vdW  Elec       q    Type
REMARK                         _______ _______ _______ _____ _____    ______ ____
ROOT
ATOM      1  N   UNL     1       2.827   6.451  19.257  0.00  0.00    +0.000 N 
ATOM      2  C   UNL     1       4.130   6.251  18.663  0.00  0.00    +0.000 A 
ATOM      3  O   UNL     1       4.803   7.041  18.014  0.00  0.00    +0.000 OA
ATOM      4  N   UNL     1       4.528   4.937  18.989  0.00  0.00    +0.000 N 
ATOM      5  C   UNL     1       3.515   4.313  19.717  0.00  0.00    +0.000 A 
ATOM      6  C   UNL     1       3.444   3.009  20.177  0.00  0.00    +0.000 A 
ATOM      7  C   UNL     1       2.285   2.621  20.844  0.00  0.00    +0.000 A 
ATOM      8  C   UNL     1       1.230   3.532  21.032  0.00  0.00    +0.000 A 
ATOM      9  C   UNL     1       1.320   4.845  20.555  0.00  0.00    +0.000 A 
ATOM     10  C   UNL     1       2.481   5.232  19.905  0.00  0.00    +0.000 A 
ENDROOT
BRANCH   1  12
ATOM     11  C   UNL     1       1.916   8.290  18.026  0.00  0.00    +0.000 C 
ATOM     12  C   UNL     1       2.118   7.646  19.189  0.00  0.00    +0.000 C 
ATOM     13  C   UNL     1       1.636   8.288  20.462  0.00  0.00    +0.000 C 
ENDBRANCH   1  12
BRANCH   4  14
ATOM     14  C   UNL     1       5.766   4.326  18.560  0.00  0.00    +0.000 C 
BRANCH  14  15
ATOM     15  C   UNL     1       5.995   4.398  17.060  0.00  0.00    +0.000 A 
ATOM     16  C   UNL     1       7.210   4.917  16.572  0.00  0.00    +0.000 A 
ATOM     17  C   UNL     1       7.451   5.038  15.206  0.00  0.00    +0.000 A 
ATOM     18  C   UNL     1       6.491   4.617  14.298  0.00  0.00    +0.000 A 
ATOM     19  C   UNL     1       5.304   4.046  14.756  0.00  0.00    +0.000 A 
ATOM     20  C   UNL     1       5.048   3.914  16.131  0.00  0.00    +0.000 A 
ATOM     21  C   UNL     1       3.764   3.256  16.565  0.00  0.00    +0.000 C 
ENDBRANCH  14  15
ENDBRANCH   4  14
TORSDOF 3
ENDMDL
