MODEL 1
REMARK VINA RESULT:      -6.7      0.000      0.000
REMARK  Name = 
REMARK  14 active torsions:
REMARK  status: ('A' for Active; 'I' for Inactive)
REMARK    1  A    between atoms: C_1  and  C_2
REMARK    2  A    between atoms: C_2  and  C_3
REMARK    3  A    between atoms: C_3  and  C_4
REMARK    4  A    between atoms: C_4  and  C_5
REMARK    5  A    between atoms: C_5  and  O_6
REMARK    6  A    between atoms: O_6  and  C_7
REMARK    7  A    between atoms: C_10  and  C_11
REMARK    8  A    between atoms: C_10  and  C_12
REMARK    9  A    between atoms: C_14  and  C_15
REMARK   10  A    between atoms: C_15  and  N_16
REMARK   11  A    between atoms: N_16  and  C_17
REMARK   12  A    between atoms: C_17  and  C_18
REMARK   13  A    between atoms: C_18  and  C_19
REMARK   14  A    between atoms: C_19  and  N_20
REMARK                            x       y       z     vdW  Elec       q    Type
REMARK                         _______ _______ _______ _____ _____    ______ ____
ROOT
ATOM      1  C   UNL     1       3.868   4.821  18.492  0.00  0.00    +0.000 C 
ATOM      2  O   UNL     1       3.616   3.396  18.368  0.00  0.00    +0.000 OA
ATOM      3  O   UNL     1       3.240   2.868  19.680  0.00  0.00    +0.000 OA
ATOM      4  C   UNL     1       1.881   3.251  19.924  0.00  0.00    +0.000 C 
ATOM      5  C   UNL     1       1.478   2.644  21.273  0.00  0.00    +0.000 C 
ATOM      6  C   UNL     1       0.928   2.717  18.844  0.00  0.00    +0.000 C 
ATOM      7  C   UNL     1       1.845   4.779  20.019  0.00  0.00    +0.000 C 
ATOM      8  C   UNL     1       2.456   5.460  18.760  0.00  0.00    +0.000 C 
ENDROOT
BRANCH   1   9
ATOM      9  O   UNL     1       4.703   5.177  19.606  0.00  0.00    +0.000 OA
ATOM     10  C   UNL     1       6.080   5.379  19.328  0.00  0.00    +0.000 C 
ENDBRANCH   1   9
BRANCH   1  11
ATOM     11  C   UNL     1       4.467   5.271  17.121  0.00  0.00    +0.000 C 
BRANCH  11  12
ATOM     12  C   UNL     1       4.829   4.106  16.172  0.00  0.00    +0.000 C 
BRANCH  12  14
ATOM     13  C   UNL     1       6.117   3.914  14.039  0.00  0.00    +0.000 C 
ATOM     14  C   UNL     1       6.217   4.191  15.539  0.00  0.00    +0.000 C 
ENDBRANCH  12  14
ENDBRANCH  11  12
ENDBRANCH   1  11
BRANCH   8  15
ATOM     15  C   UNL     1       2.402   7.004  18.917  0.00  0.00    +0.000 C 
BRANCH  15  16
ATOM     16  N   UNL     1       2.305   7.332  20.355  0.00  0.00    +0.000 NA
ATOM     17  H   UNL     1       3.217   7.633  20.695  0.00  0.00    +0.000 HD
BRANCH  16  18
ATOM     18  C   UNL     1       1.338   8.370  20.703  0.00  0.00    +0.000 C 
BRANCH  18  19
ATOM     19  C   UNL     1       1.181   9.291  19.479  0.00  0.00    +0.000 C 
BRANCH  19  20
ATOM     20  C   UNL     1      -0.117  10.096  19.512  0.00  0.00    +0.000 C 
BRANCH  20  21
ATOM     21  N   UNL     1       0.071  11.472  19.088  0.00  0.00    +0.000 N 
ATOM     22  C   UNL     1       1.260  12.136  18.982  0.00  0.00    +0.000 A 
ATOM     23  C   UNL     1       0.928  13.386  18.511  0.00  0.00    +0.000 A 
ATOM     24  N   UNL     1      -0.424  13.495  18.327  0.00  0.00    +0.000 NA
ATOM     25  C   UNL     1      -0.915  12.329  18.684  0.00  0.00    +0.000 A 
ENDBRANCH  20  21
ENDBRANCH  19  20
ENDBRANCH  18  19
ENDBRANCH  16  18
ENDBRANCH  15  16
ENDBRANCH   8  15
TORSDOF 10
ENDMDL
MODEL 2
REMARK VINA RESULT:      -6.6      1.089      1.475
REMARK  Name = 
REMARK  14 active torsions:
REMARK  status: ('A' for Active; 'I' for Inactive)
REMARK    1  A    between atoms: C_1  and  C_2
REMARK    2  A    between atoms: C_2  and  C_3
REMARK    3  A    between atoms: C_3  and  C_4
REMARK    4  A    between atoms: C_4  and  C_5
REMARK    5  A    between atoms: C_5  and  O_6
REMARK    6  A    between atoms: O_6  and  C_7
REMARK    7  A    between atoms: C_10  and  C_11
REMARK    8  A    between atoms: C_10  and  C_12
REMARK    9  A    between atoms: C_14  and  C_15
REMARK   10  A    between atoms: C_15  and  N_16
REMARK   11  A    between atoms: N_16  and  C_17
REMARK   12  A    between atoms: C_17  and  C_18
REMARK   13  A    between atoms: C_18  and  C_19
REMARK   14  A    between atoms: C_19  and  N_20
REMARK                            x       y       z     vdW  Elec       q    Type
REMARK                         _______ _______ _______ _____ _____    ______ ____
ROOT
ATOM      1  C   UNL     1       3.817   5.110  18.595  0.00  0.00    +0.000 C 
ATOM      2  O   UNL     1       3.572   3.689  18.427  0.00  0.00    +0.000 OA
ATOM      3  O   UNL     1       3.384   3.083  19.746  0.00  0.00    +0.000 OA
ATOM      4  C   UNL     1       2.065   3.422  20.190  0.00  0.00    +0.000 C 
ATOM      5  C   UNL     1       1.857   2.734  21.544  0.00  0.00    +0.000 C 
ATOM      6  C   UNL     1       0.984   2.925  19.220  0.00  0.00    +0.000 C 
ATOM      7  C   UNL     1       2.019   4.941  20.375  0.00  0.00    +0.000 C 
ATOM      8  C   UNL     1       2.444   5.702  19.086  0.00  0.00    +0.000 C 
ENDROOT
BRANCH   1   9
ATOM      9  O   UNL     1       4.789   5.425  19.606  0.00  0.00    +0.000 OA
ATOM     10  C   UNL     1       6.153   5.348  19.221  0.00  0.00    +0.000 C 
ENDBRANCH   1   9
BRANCH   1  11
ATOM     11  C   UNL     1       4.219   5.647  17.184  0.00  0.00    +0.000 C 
BRANCH  11  12
ATOM     12  C   UNL     1       4.709   4.556  16.205  0.00  0.00    +0.000 C 
BRANCH  12  14
ATOM     13  C   UNL     1       6.073   4.013  14.184  0.00  0.00    +0.000 C 
ATOM     14  C   UNL     1       5.969   4.909  15.417  0.00  0.00    +0.000 C 
ENDBRANCH  12  14
ENDBRANCH  11  12
ENDBRANCH   1  11
BRANCH   8  15
ATOM     15  C   UNL     1       2.388   7.234  19.335  0.00  0.00    +0.000 C 
BRANCH  15  16
ATOM     16  N   UNL     1       2.019   7.472  20.746  0.00  0.00    +0.000 NA
ATOM     17  H   UNL     1       2.854   7.712  21.278  0.00  0.00    +0.000 HD
BRANCH  16  18
ATOM     18  C   UNL     1       1.032   8.525  20.972  0.00  0.00    +0.000 C 
BRANCH  18  19
ATOM     19  C   UNL     1       1.008   9.419  19.718  0.00  0.00    +0.000 C 
BRANCH  19  20
ATOM     20  C   UNL     1       0.193  10.695  19.922  0.00  0.00    +0.000 C 
BRANCH  20  21
ATOM     21  N   UNL     1      -0.903  10.811  18.976  0.00  0.00    +0.000 N 
ATOM     22  C   UNL     1      -1.951  11.684  19.048  0.00  0.00    +0.000 A 
ATOM     23  C   UNL     1      -2.696  11.438  17.917  0.00  0.00    +0.000 A 
ATOM     24  N   UNL     1      -2.127  10.446  17.164  0.00  0.00    +0.000 NA
ATOM     25  C   UNL     1      -1.051  10.085  17.827  0.00  0.00    +0.000 A 
ENDBRANCH  20  21
ENDBRANCH  19  20
ENDBRANCH  18  19
ENDBRANCH  16  18
ENDBRANCH  15  16
ENDBRANCH   8  15
TORSDOF 10
ENDMDL
MODEL 3
REMARK VINA RESULT:      -6.6      1.618      2.255
REMARK  Name = 
REMARK  14 active torsions:
REMARK  status: ('A' for Active; 'I' for Inactive)
REMARK    1  A    between atoms: C_1  and  C_2
REMARK    2  A    between atoms: C_2  and  C_3
REMARK    3  A    between atoms: C_3  and  C_4
REMARK    4  A    between atoms: C_4  and  C_5
REMARK    5  A    between atoms: C_5  and  O_6
REMARK    6  A    between atoms: O_6  and  C_7
REMARK    7  A    between atoms: C_10  and  C_11
REMARK    8  A    between atoms: C_10  and  C_12
REMARK    9  A    between atoms: C_14  and  C_15
REMARK   10  A    between atoms: C_15  and  N_16
REMARK   11  A    between atoms: N_16  and  C_17
REMARK   12  A    between atoms: C_17  and  C_18
REMARK   13  A    between atoms: C_18  and  C_19
REMARK   14  A    between atoms: C_19  and  N_20
REMARK                            x       y       z     vdW  Elec       q    Type
REMARK                         _______ _______ _______ _____ _____    ______ ____
ROOT
ATOM      1  C   UNL     1       3.908   5.001  18.401  0.00  0.00    +0.000 C 
ATOM      2  O   UNL     1       3.618   3.592  18.202  0.00  0.00    +0.000 OA
ATOM      3  O   UNL     1       3.263   2.996  19.492  0.00  0.00    +0.000 OA
ATOM      4  C   UNL     1       1.922   3.396  19.795  0.00  0.00    +0.000 C 
ATOM      5  C   UNL     1       1.540   2.720  21.117  0.00  0.00    +0.000 C 
ATOM      6  C   UNL     1       0.928   2.948  18.713  0.00  0.00    +0.000 C 
ATOM      7  C   UNL     1       1.925   4.916  19.979  0.00  0.00    +0.000 C 
ATOM      8  C   UNL     1       2.520   5.656  18.746  0.00  0.00    +0.000 C 
ENDROOT
BRANCH   1   9
ATOM      9  O   UNL     1       4.780   5.272  19.510  0.00  0.00    +0.000 OA
ATOM     10  C   UNL     1       6.167   5.359  19.220  0.00  0.00    +0.000 C 
ENDBRANCH   1   9
BRANCH   1  11
ATOM     11  C   UNL     1       4.482   5.516  17.042  0.00  0.00    +0.000 C 
BRANCH  11  12
ATOM     12  C   UNL     1       4.986   4.400  16.100  0.00  0.00    +0.000 C 
BRANCH  12  14
ATOM     13  C   UNL     1       6.041   3.854  13.902  0.00  0.00    +0.000 C 
ATOM     14  C   UNL     1       6.024   4.840  15.070  0.00  0.00    +0.000 C 
ENDBRANCH  12  14
ENDBRANCH  11  12
ENDBRANCH   1  11
BRANCH   8  15
ATOM     15  C   UNL     1       2.508   7.189  18.992  0.00  0.00    +0.000 C 
BRANCH  15  16
ATOM     16  N   UNL     1       1.661   7.828  17.963  0.00  0.00    +0.000 NA
ATOM     17  H   UNL     1       0.680   7.668  18.186  0.00  0.00    +0.000 HD
BRANCH  16  18
ATOM     18  C   UNL     1       1.849   9.266  17.794  0.00  0.00    +0.000 C 
BRANCH  18  19
ATOM     19  C   UNL     1       1.609   9.932  19.162  0.00  0.00    +0.000 C 
BRANCH  19  20
ATOM     20  C   UNL     1       0.136   9.929  19.566  0.00  0.00    +0.000 C 
BRANCH  20  21
ATOM     21  N   UNL     1      -0.046   9.976  21.007  0.00  0.00    +0.000 N 
ATOM     22  C   UNL     1       0.107   8.937  21.880  0.00  0.00    +0.000 A 
ATOM     23  C   UNL     1      -0.133   9.480  23.122  0.00  0.00    +0.000 A 
ATOM     24  N   UNL     1      -0.424  10.815  23.024  0.00  0.00    +0.000 NA
ATOM     25  C   UNL     1      -0.366  11.085  21.739  0.00  0.00    +0.000 A 
ENDBRANCH  20  21
ENDBRANCH  19  20
ENDBRANCH  18  19
ENDBRANCH  16  18
ENDBRANCH  15  16
ENDBRANCH   8  15
TORSDOF 10
ENDMDL
MODEL 4
REMARK VINA RESULT:      -6.5      0.997      1.176
REMARK  Name = 
REMARK  14 active torsions:
REMARK  status: ('A' for Active; 'I' for Inactive)
REMARK    1  A    between atoms: C_1  and  C_2
REMARK    2  A    between atoms: C_2  and  C_3
REMARK    3  A    between atoms: C_3  and  C_4
REMARK    4  A    between atoms: C_4  and  C_5
REMARK    5  A    between atoms: C_5  and  O_6
REMARK    6  A    between atoms: O_6  and  C_7
REMARK    7  A    between atoms: C_10  and  C_11
REMARK    8  A    between atoms: C_10  and  C_12
REMARK    9  A    between atoms: C_14  and  C_15
REMARK   10  A    between atoms: C_15  and  N_16
REMARK   11  A    between atoms: N_16  and  C_17
REMARK   12  A    between atoms: C_17  and  C_18
REMARK   13  A    between atoms: C_18  and  C_19
REMARK   14  A    between atoms: C_19  and  N_20
REMARK                            x       y       z     vdW  Elec       q    Type
REMARK                         _______ _______ _______ _____ _____    ______ ____
ROOT
ATOM      1  C   UNL     1       3.977   4.839  18.330  0.00  0.00    +0.000 C 
ATOM      2  O   UNL     1       3.789   3.400  18.306  0.00  0.00    +0.000 OA
ATOM      3  O   UNL     1       3.332   2.962  19.627  0.00  0.00    +0.000 OA
ATOM      4  C   UNL     1       1.945   3.303  19.736  0.00  0.00    +0.000 C 
ATOM      5  C   UNL     1       1.462   2.789  21.096  0.00  0.00    +0.000 C 
ATOM      6  C   UNL     1       1.100   2.643  18.636  0.00  0.00    +0.000 C 
ATOM      7  C   UNL     1       1.844   4.830  19.701  0.00  0.00    +0.000 C 
ATOM      8  C   UNL     1       2.525   5.435  18.439  0.00  0.00    +0.000 C 
ENDROOT
BRANCH   1   9
ATOM      9  O   UNL     1       4.708   5.320  19.470  0.00  0.00    +0.000 OA
ATOM     10  C   UNL     1       6.121   5.368  19.343  0.00  0.00    +0.000 C 
ENDBRANCH   1   9
BRANCH   1  11
ATOM     11  C   UNL     1       4.663   5.205  16.975  0.00  0.00    +0.000 C 
BRANCH  11  12
ATOM     12  C   UNL     1       5.099   3.984  16.133  0.00  0.00    +0.000 C 
BRANCH  12  14
ATOM     13  C   UNL     1       6.094   3.977  13.841  0.00  0.00    +0.000 C 
ATOM     14  C   UNL     1       6.384   4.174  15.329  0.00  0.00    +0.000 C 
ENDBRANCH  12  14
ENDBRANCH  11  12
ENDBRANCH   1  11
BRANCH   8  15
ATOM     15  C   UNL     1       2.400   6.983  18.462  0.00  0.00    +0.000 C 
BRANCH  15  16
ATOM     16  N   UNL     1       2.214   7.423  19.861  0.00  0.00    +0.000 NA
ATOM     17  H   UNL     1       3.124   7.518  20.309  0.00  0.00    +0.000 HD
BRANCH  16  18
ATOM     18  C   UNL     1       1.499   8.684  20.037  0.00  0.00    +0.000 C 
BRANCH  18  19
ATOM     19  C   UNL     1       1.317   9.316  18.644  0.00  0.00    +0.000 C 
BRANCH  19  20
ATOM     20  C   UNL     1       0.508  10.611  18.688  0.00  0.00    +0.000 C 
BRANCH  20  21
ATOM     21  N   UNL     1       1.311  11.755  19.085  0.00  0.00    +0.000 N 
ATOM     22  C   UNL     1       1.285  12.387  20.295  0.00  0.00    +0.000 A 
ATOM     23  C   UNL     1       2.239  13.375  20.200  0.00  0.00    +0.000 A 
ATOM     24  N   UNL     1       2.841  13.355  18.970  0.00  0.00    +0.000 NA
ATOM     25  C   UNL     1       2.262  12.371  18.319  0.00  0.00    +0.000 A 
ENDBRANCH  20  21
ENDBRANCH  19  20
ENDBRANCH  18  19
ENDBRANCH  16  18
ENDBRANCH  15  16
ENDBRANCH   8  15
TORSDOF 10
ENDMDL
MODEL 5
REMARK VINA RESULT:      -6.4      1.821      2.122
REMARK  Name = 
REMARK  14 active torsions:
REMARK  status: ('A' for Active; 'I' for Inactive)
REMARK    1  A    between atoms: C_1  and  C_2
REMARK    2  A    between atoms: C_2  and  C_3
REMARK    3  A    between atoms: C_3  and  C_4
REMARK    4  A    between atoms: C_4  and  C_5
REMARK    5  A    between atoms: C_5  and  O_6
REMARK    6  A    between atoms: O_6  and  C_7
REMARK    7  A    between atoms: C_10  and  C_11
REMARK    8  A    between atoms: C_10  and  C_12
REMARK    9  A    between atoms: C_14  and  C_15
REMARK   10  A    between atoms: C_15  and  N_16
REMARK   11  A    between atoms: N_16  and  C_17
REMARK   12  A    between atoms: C_17  and  C_18
REMARK   13  A    between atoms: C_18  and  C_19
REMARK   14  A    between atoms: C_19  and  N_20
REMARK                            x       y       z     vdW  Elec       q    Type
REMARK                         _______ _______ _______ _____ _____    ______ ____
ROOT
ATOM      1  C   UNL     1       4.018   4.747  18.454  0.00  0.00    +0.000 C 
ATOM      2  O   UNL     1       3.694   3.335  18.357  0.00  0.00    +0.000 OA
ATOM      3  O   UNL     1       3.335   2.841  19.688  0.00  0.00    +0.000 OA
ATOM      4  C   UNL     1       2.005   3.293  19.969  0.00  0.00    +0.000 C 
ATOM      5  C   UNL     1       1.617   2.722  21.338  0.00  0.00    +0.000 C 
ATOM      6  C   UNL     1       0.993   2.794  18.927  0.00  0.00    +0.000 C 
ATOM      7  C   UNL     1       2.046   4.822  20.046  0.00  0.00    +0.000 C 
ATOM      8  C   UNL     1       2.648   5.458  18.760  0.00  0.00    +0.000 C 
ENDROOT
BRANCH   1   9
ATOM      9  O   UNL     1       4.905   5.075  19.537  0.00  0.00    +0.000 OA
ATOM     10  C   UNL     1       6.246   5.381  19.188  0.00  0.00    +0.000 C 
ENDBRANCH   1   9
BRANCH   1  11
ATOM     11  C   UNL     1       4.594   5.152  17.059  0.00  0.00    +0.000 C 
BRANCH  11  12
ATOM     12  C   UNL     1       4.701   3.985  16.052  0.00  0.00    +0.000 C 
BRANCH  12  14
ATOM     13  C   UNL     1       6.794   5.053  15.203  0.00  0.00    +0.000 C 
ATOM     14  C   UNL     1       6.104   3.723  15.508  0.00  0.00    +0.000 C 
ENDBRANCH  12  14
ENDBRANCH  11  12
ENDBRANCH   1  11
BRANCH   8  15
ATOM     15  C   UNL     1       2.674   7.005  18.897  0.00  0.00    +0.000 C 
BRANCH  15  16
ATOM     16  N   UNL     1       2.093   7.374  20.206  0.00  0.00    +0.000 NA
ATOM     17  H   UNL     1       2.844   7.558  20.869  0.00  0.00    +0.000 HD
BRANCH  16  18
ATOM     18  C   UNL     1       1.211   8.538  20.200  0.00  0.00    +0.000 C 
BRANCH  18  19
ATOM     19  C   UNL     1       0.336   8.468  21.465  0.00  0.00    +0.000 C 
BRANCH  19  20
ATOM     20  C   UNL     1       0.698   9.541  22.490  0.00  0.00    +0.000 C 
BRANCH  20  21
ATOM     21  N   UNL     1      -0.225  10.663  22.470  0.00  0.00    +0.000 N 
ATOM     22  C   UNL     1      -0.130  11.781  21.693  0.00  0.00    +0.000 A 
ATOM     23  C   UNL     1      -1.246  12.525  22.003  0.00  0.00    +0.000 A 
ATOM     24  N   UNL     1      -2.013  11.886  22.941  0.00  0.00    +0.000 NA
ATOM     25  C   UNL     1      -1.373  10.769  23.205  0.00  0.00    +0.000 A 
ENDBRANCH  20  21
ENDBRANCH  19  20
ENDBRANCH  18  19
ENDBRANCH  16  18
ENDBRANCH  15  16
ENDBRANCH   8  15
TORSDOF 10
ENDMDL
MODEL 6
REMARK VINA RESULT:      -6.4      0.922      1.035
REMARK  Name = 
REMARK  14 active torsions:
REMARK  status: ('A' for Active; 'I' for Inactive)
REMARK    1  A    between atoms: C_1  and  C_2
REMARK    2  A    between atoms: C_2  and  C_3
REMARK    3  A    between atoms: C_3  and  C_4
REMARK    4  A    between atoms: C_4  and  C_5
REMARK    5  A    between atoms: C_5  and  O_6
REMARK    6  A    between atoms: O_6  and  C_7
REMARK    7  A    between atoms: C_10  and  C_11
REMARK    8  A    between atoms: C_10  and  C_12
REMARK    9  A    between atoms: C_14  and  C_15
REMARK   10  A    between atoms: C_15  and  N_16
REMARK   11  A    between atoms: N_16  and  C_17
REMARK   12  A    between atoms: C_17  and  C_18
REMARK   13  A    between atoms: C_18  and  C_19
REMARK   14  A    between atoms: C_19  and  N_20
REMARK                            x       y       z     vdW  Elec       q    Type
REMARK                         _______ _______ _______ _____ _____    ______ ____
ROOT
ATOM      1  C   UNL     1       3.844   4.859  18.449  0.00  0.00    +0.000 C 
ATOM      2  O   UNL     1       3.601   3.438  18.273  0.00  0.00    +0.000 OA
ATOM      3  O   UNL     1       3.277   2.850  19.574  0.00  0.00    +0.000 OA
ATOM      4  C   UNL     1       1.925   3.207  19.882  0.00  0.00    +0.000 C 
ATOM      5  C   UNL     1       1.577   2.539  21.216  0.00  0.00    +0.000 C 
ATOM      6  C   UNL     1       0.939   2.709  18.814  0.00  0.00    +0.000 C 
ATOM      7  C   UNL     1       1.877   4.729  20.044  0.00  0.00    +0.000 C 
ATOM      8  C   UNL     1       2.436   5.471  18.795  0.00  0.00    +0.000 C 
ENDROOT
BRANCH   1   9
ATOM      9  O   UNL     1       4.715   5.176  19.547  0.00  0.00    +0.000 OA
ATOM     10  C   UNL     1       6.101   5.265  19.253  0.00  0.00    +0.000 C 
ENDBRANCH   1   9
BRANCH   1  11
ATOM     11  C   UNL     1       4.389   5.374  17.078  0.00  0.00    +0.000 C 
BRANCH  11  12
ATOM     12  C   UNL     1       4.889   4.258  16.133  0.00  0.00    +0.000 C 
BRANCH  12  14
ATOM     13  C   UNL     1       7.008   4.730  14.896  0.00  0.00    +0.000 C 
ATOM     14  C   UNL     1       5.482   4.744  14.812  0.00  0.00    +0.000 C 
ENDBRANCH  12  14
ENDBRANCH  11  12
ENDBRANCH   1  11
BRANCH   8  15
ATOM     15  C   UNL     1       2.373   7.006  19.020  0.00  0.00    +0.000 C 
BRANCH  15  16
ATOM     16  N   UNL     1       2.387   7.273  20.474  0.00  0.00    +0.000 NA
ATOM     17  H   UNL     1       3.269   7.715  20.728  0.00  0.00    +0.000 HD
BRANCH  16  18
ATOM     18  C   UNL     1       1.307   8.122  20.970  0.00  0.00    +0.000 C 
BRANCH  18  19
ATOM     19  C   UNL     1       1.008   9.177  19.889  0.00  0.00    +0.000 C 
BRANCH  19  20
ATOM     20  C   UNL     1       0.806  10.575  20.473  0.00  0.00    +0.000 C 
BRANCH  20  21
ATOM     21  N   UNL     1      -0.187  11.344  19.743  0.00  0.00    +0.000 N 
ATOM     22  C   UNL     1      -0.783  10.993  18.566  0.00  0.00    +0.000 A 
ATOM     23  C   UNL     1      -1.666  12.015  18.298  0.00  0.00    +0.000 A 
ATOM     24  N   UNL     1      -1.621  12.969  19.279  0.00  0.00    +0.000 NA
ATOM     25  C   UNL     1      -0.721  12.540  20.135  0.00  0.00    +0.000 A 
ENDBRANCH  20  21
ENDBRANCH  19  20
ENDBRANCH  18  19
ENDBRANCH  16  18
ENDBRANCH  15  16
ENDBRANCH   8  15
TORSDOF 10
ENDMDL
MODEL 7
REMARK VINA RESULT:      -6.3      1.762      2.104
REMARK  Name = 
REMARK  14 active torsions:
REMARK  status: ('A' for Active; 'I' for Inactive)
REMARK    1  A    between atoms: C_1  and  C_2
REMARK    2  A    between atoms: C_2  and  C_3
REMARK    3  A    between atoms: C_3  and  C_4
REMARK    4  A    between atoms: C_4  and  C_5
REMARK    5  A    between atoms: C_5  and  O_6
REMARK    6  A    between atoms: O_6  and  C_7
REMARK    7  A    between atoms: C_10  and  C_11
REMARK    8  A    between atoms: C_10  and  C_12
REMARK    9  A    between atoms: C_14  and  C_15
REMARK   10  A    between atoms: C_15  and  N_16
REMARK   11  A    between atoms: N_16  and  C_17
REMARK   12  A    between atoms: C_17  and  C_18
REMARK   13  A    between atoms: C_18  and  C_19
REMARK   14  A    between atoms: C_19  and  N_20
REMARK                            x       y       z     vdW  Elec       q    Type
REMARK                         _______ _______ _______ _____ _____    ______ ____
ROOT
ATOM      1  C   UNL     1       3.727   5.128  18.812  0.00  0.00    +0.000 C 
ATOM      2  O   UNL     1       3.486   3.719  18.556  0.00  0.00    +0.000 OA
ATOM      3  O   UNL     1       3.321   3.029  19.837  0.00  0.00    +0.000 OA
ATOM      4  C   UNL     1       2.007   3.332  20.322  0.00  0.00    +0.000 C 
ATOM      5  C   UNL     1       1.823   2.558  21.632  0.00  0.00    +0.000 C 
ATOM      6  C   UNL     1       0.913   2.892  19.337  0.00  0.00    +0.000 C 
ATOM      7  C   UNL     1       1.957   4.836  20.604  0.00  0.00    +0.000 C 
ATOM      8  C   UNL     1       2.360   5.680  19.360  0.00  0.00    +0.000 C 
ENDROOT
BRANCH   1   9
ATOM      9  O   UNL     1       4.713   5.383  19.826  0.00  0.00    +0.000 OA
ATOM     10  C   UNL     1       6.072   5.322  19.420  0.00  0.00    +0.000 C 
ENDBRANCH   1   9
BRANCH   1  11
ATOM     11  C   UNL     1       4.105   5.756  17.432  0.00  0.00    +0.000 C 
BRANCH  11  12
ATOM     12  C   UNL     1       4.513   4.725  16.355  0.00  0.00    +0.000 C 
BRANCH  12  14
ATOM     13  C   UNL     1       6.072   4.083  14.511  0.00  0.00    +0.000 C 
ATOM     14  C   UNL     1       5.451   5.255  15.272  0.00  0.00    +0.000 C 
ENDBRANCH  12  14
ENDBRANCH  11  12
ENDBRANCH   1  11
BRANCH   8  15
ATOM     15  C   UNL     1       2.301   7.193  19.707  0.00  0.00    +0.000 C 
BRANCH  15  16
ATOM     16  N   UNL     1       1.523   7.364  20.953  0.00  0.00    +0.000 NA
ATOM     17  H   UNL     1       1.904   6.755  21.675  0.00  0.00    +0.000 HD
BRANCH  16  18
ATOM     18  C   UNL     1       1.483   8.720  21.492  0.00  0.00    +0.000 C 
BRANCH  18  19
ATOM     19  C   UNL     1       0.538   9.549  20.602  0.00  0.00    +0.000 C 
BRANCH  19  20
ATOM     20  C   UNL     1       0.570  11.039  20.940  0.00  0.00    +0.000 C 
BRANCH  20  21
ATOM     21  N   UNL     1      -0.650  11.488  21.589  0.00  0.00    +0.000 N 
ATOM     22  C   UNL     1      -1.659  12.207  21.015  0.00  0.00    +0.000 A 
ATOM     23  C   UNL     1      -2.600  12.353  22.010  0.00  0.00    +0.000 A 
ATOM     24  N   UNL     1      -2.189  11.741  23.164  0.00  0.00    +0.000 NA
ATOM     25  C   UNL     1      -1.011  11.230  22.882  0.00  0.00    +0.000 A 
ENDBRANCH  20  21
ENDBRANCH  19  20
ENDBRANCH  18  19
ENDBRANCH  16  18
ENDBRANCH  15  16
ENDBRANCH   8  15
TORSDOF 10
ENDMDL
MODEL 8
REMARK VINA RESULT:      -6.3      1.789      2.546
REMARK  Name = 
REMARK  14 active torsions:
REMARK  status: ('A' for Active; 'I' for Inactive)
REMARK    1  A    between atoms: C_1  and  C_2
REMARK    2  A    between atoms: C_2  and  C_3
REMARK    3  A    between atoms: C_3  and  C_4
REMARK    4  A    between atoms: C_4  and  C_5
REMARK    5  A    between atoms: C_5  and  O_6
REMARK    6  A    between atoms: O_6  and  C_7
REMARK    7  A    between atoms: C_10  and  C_11
REMARK    8  A    between atoms: C_10  and  C_12
REMARK    9  A    between atoms: C_14  and  C_15
REMARK   10  A    between atoms: C_15  and  N_16
REMARK   11  A    between atoms: N_16  and  C_17
REMARK   12  A    between atoms: C_17  and  C_18
REMARK   13  A    between atoms: C_18  and  C_19
REMARK   14  A    between atoms: C_19  and  N_20
REMARK                            x       y       z     vdW  Elec       q    Type
REMARK                         _______ _______ _______ _____ _____    ______ ____
ROOT
ATOM      1  C   UNL     1       5.092   5.360  17.592  0.00  0.00    +0.000 C 
ATOM      2  O   UNL     1       4.876   3.936  17.407  0.00  0.00    +0.000 OA
ATOM      3  O   UNL     1       4.355   3.372  18.653  0.00  0.00    +0.000 OA
ATOM      4  C   UNL     1       2.972   3.735  18.744  0.00  0.00    +0.000 C 
ATOM      5  C   UNL     1       2.422   3.091  20.021  0.00  0.00    +0.000 C 
ATOM      6  C   UNL     1       2.161   3.216  17.547  0.00  0.00    +0.000 C 
ATOM      7  C   UNL     1       2.904   5.259  18.868  0.00  0.00    +0.000 C 
ATOM      8  C   UNL     1       3.649   5.977  17.706  0.00  0.00    +0.000 C 
ENDROOT
BRANCH   1   9
ATOM      9  O   UNL     1       5.785   5.699  18.804  0.00  0.00    +0.000 OA
ATOM     10  C   UNL     1       7.196   5.818  18.716  0.00  0.00    +0.000 C 
ENDBRANCH   1   9
BRANCH   1  11
ATOM     11  C   UNL     1       5.842   5.850  16.311  0.00  0.00    +0.000 C 
BRANCH  11  12
ATOM     12  C   UNL     1       5.498   5.057  15.030  0.00  0.00    +0.000 C 
BRANCH  12  14
ATOM     13  C   UNL     1       6.216   3.689  13.067  0.00  0.00    +0.000 C 
ATOM     14  C   UNL     1       6.685   4.382  14.346  0.00  0.00    +0.000 C 
ENDBRANCH  12  14
ENDBRANCH  11  12
ENDBRANCH   1  11
BRANCH   8  15
ATOM     15  C   UNL     1       3.556   7.516  17.890  0.00  0.00    +0.000 C 
BRANCH  15  16
ATOM     16  N   UNL     1       2.255   7.841  18.513  0.00  0.00    +0.000 NA
ATOM     17  H   UNL     1       2.406   8.132  19.478  0.00  0.00    +0.000 HD
BRANCH  16  18
ATOM     18  C   UNL     1       1.481   8.887  17.850  0.00  0.00    +0.000 C 
BRANCH  18  19
ATOM     19  C   UNL     1       1.326  10.055  18.843  0.00  0.00    +0.000 C 
BRANCH  19  20
ATOM     20  C   UNL     1      -0.117  10.244  19.307  0.00  0.00    +0.000 C 
BRANCH  20  21
ATOM     21  N   UNL     1      -0.264  10.086  20.744  0.00  0.00    +0.000 N 
ATOM     22  C   UNL     1      -0.625  11.055  21.636  0.00  0.00    +0.000 A 
ATOM     23  C   UNL     1      -0.663  10.418  22.856  0.00  0.00    +0.000 A 
ATOM     24  N   UNL     1      -0.338   9.094  22.725  0.00  0.00    +0.000 NA
ATOM     25  C   UNL     1      -0.101   8.923  21.444  0.00  0.00    +0.000 A 
ENDBRANCH  20  21
ENDBRANCH  19  20
ENDBRANCH  18  19
ENDBRANCH  16  18
ENDBRANCH  15  16
ENDBRANCH   8  15
TORSDOF 10
ENDMDL
MODEL 9
REMARK VINA RESULT:      -6.3      3.655      6.143
REMARK  Name = 
REMARK  14 active torsions:
REMARK  status: ('A' for Active; 'I' for Inactive)
REMARK    1  A    between atoms: C_1  and  C_2
REMARK    2  A    between atoms: C_2  and  C_3
REMARK    3  A    between atoms: C_3  and  C_4
REMARK    4  A    between atoms: C_4  and  C_5
REMARK    5  A    between atoms: C_5  and  O_6
REMARK    6  A    between atoms: O_6  and  C_7
REMARK    7  A    between atoms: C_10  and  C_11
REMARK    8  A    between atoms: C_10  and  C_12
REMARK    9  A    between atoms: C_14  and  C_15
REMARK   10  A    between atoms: C_15  and  N_16
REMARK   11  A    between atoms: N_16  and  C_17
REMARK   12  A    between atoms: C_17  and  C_18
REMARK   13  A    between atoms: C_18  and  C_19
REMARK   14  A    between atoms: C_19  and  N_20
REMARK                            x       y       z     vdW  Elec       q    Type
REMARK                         _______ _______ _______ _____ _____    ______ ____
ROOT
ATOM      1  C   UNL     1       7.394   5.828  17.572  0.00  0.00    +0.000 C 
ATOM      2  O   UNL     1       7.481   6.437  16.257  0.00  0.00    +0.000 OA
ATOM      3  O   UNL     1       7.216   5.412  15.244  0.00  0.00    +0.000 OA
ATOM      4  C   UNL     1       5.802   5.185  15.223  0.00  0.00    +0.000 C 
ATOM      5  C   UNL     1       5.530   4.155  14.121  0.00  0.00    +0.000 C 
ATOM      6  C   UNL     1       5.017   6.464  14.901  0.00  0.00    +0.000 C 
ATOM      7  C   UNL     1       5.412   4.596  16.582  0.00  0.00    +0.000 C 
ATOM      8  C   UNL     1       5.868   5.497  17.766  0.00  0.00    +0.000 C 
ENDROOT
BRANCH   1   9
ATOM      9  O   UNL     1       8.106   4.586  17.695  0.00  0.00    +0.000 OA
ATOM     10  C   UNL     1       8.835   4.388  18.896  0.00  0.00    +0.000 C 
ENDBRANCH   1   9
BRANCH   1  11
ATOM     11  C   UNL     1       7.894   6.912  18.580  0.00  0.00    +0.000 C 
BRANCH  11  12
ATOM     12  C   UNL     1       8.088   8.315  17.961  0.00  0.00    +0.000 C 
BRANCH  12  14
ATOM     13  C   UNL     1       8.948  10.655  18.117  0.00  0.00    +0.000 C 
ATOM     14  C   UNL     1       8.878   9.300  18.821  0.00  0.00    +0.000 C 
ENDBRANCH  12  14
ENDBRANCH  11  12
ENDBRANCH   1  11
BRANCH   8  15
ATOM     15  C   UNL     1       5.455   4.848  19.114  0.00  0.00    +0.000 C 
BRANCH  15  16
ATOM     16  N   UNL     1       5.310   3.390  18.913  0.00  0.00    +0.000 NA
ATOM     17  H   UNL     1       6.196   2.931  19.118  0.00  0.00    +0.000 HD
BRANCH  16  18
ATOM     18  C   UNL     1       4.278   2.742  19.718  0.00  0.00    +0.000 C 
BRANCH  18  19
ATOM     19  C   UNL     1       3.078   2.454  18.795  0.00  0.00    +0.000 C 
BRANCH  19  20
ATOM     20  C   UNL     1       1.828   3.235  19.197  0.00  0.00    +0.000 C 
BRANCH  20  21
ATOM     21  N   UNL     1       2.036   4.672  19.165  0.00  0.00    +0.000 N 
ATOM     22  C   UNL     1       2.163   5.451  18.050  0.00  0.00    +0.000 A 
ATOM     23  C   UNL     1       2.303   6.734  18.529  0.00  0.00    +0.000 A 
ATOM     24  N   UNL     1       2.262   6.752  19.897  0.00  0.00    +0.000 NA
ATOM     25  C   UNL     1       2.102   5.497  20.253  0.00  0.00    +0.000 A 
ENDBRANCH  20  21
ENDBRANCH  19  20
ENDBRANCH  18  19
ENDBRANCH  16  18
ENDBRANCH  15  16
ENDBRANCH   8  15
TORSDOF 10
ENDMDL
