MODEL 1
REMARK VINA RESULT:      -8.1      0.000      0.000
REMARK  Name = 
REMARK  5 active torsions:
REMARK  status: ('A' for Active; 'I' for Inactive)
REMARK    1  A    between atoms: C_1  and  O_2
REMARK    2  A    between atoms: O_2  and  C_3
REMARK    3  A    between atoms: C_7  and  O_8
REMARK    4  A    between atoms: O_8  and  C_9
REMARK    5  A    between atoms: C_14  and  C_15
REMARK                            x       y       z     vdW  Elec       q    Type
REMARK                         _______ _______ _______ _____ _____    ______ ____
ROOT
ATOM      1  C   UNL     1       6.920   4.850  15.568  0.00  0.00    +0.000 A 
ATOM      2  C   UNL     1       5.678   4.109  15.506  0.00  0.00    +0.000 A 
ATOM      3  C   UNL     1       4.914   3.763  16.660  0.00  0.00    +0.000 A 
ATOM      4  C   UNL     1       5.571   4.169  17.872  0.00  0.00    +0.000 A 
ATOM      5  C   UNL     1       6.816   4.860  17.947  0.00  0.00    +0.000 A 
ATOM      6  C   UNL     1       7.469   5.233  16.800  0.00  0.00    +0.000 A 
ATOM      7  C   UNL     1       4.866   4.210  19.076  0.00  0.00    +0.000 C 
ATOM      8  O   UNL     1       4.470   3.252  19.691  0.00  0.00    +0.000 OA
ATOM      9  O   UNL     1       4.475   5.526  19.111  0.00  0.00    +0.000 OA
ATOM     10  C   UNL     1       3.081   5.610  19.242  0.00  0.00    +0.000 C 
ATOM     11  C   UNL     1       2.404   6.566  18.275  0.00  0.00    +0.000 C 
ATOM     12  C   UNL     1       2.692   5.552  20.751  0.00  0.00    +0.000 C 
ATOM     13  C   UNL     1       1.603   4.504  20.757  0.00  0.00    +0.000 C 
ATOM     14  C   UNL     1       1.083   3.148  21.210  0.00  0.00    +0.000 C 
ATOM     15  C   UNL     1       1.255   2.205  19.894  0.00  0.00    +0.000 C 
ATOM     16  C   UNL     1       1.183   2.789  18.659  0.00  0.00    +0.000 C 
ATOM     17  C   UNL     1       1.978   2.885  17.296  0.00  0.00    +0.000 C 
ATOM     18  C   UNL     1       3.546   2.930  16.614  0.00  0.00    +0.000 C 
ENDROOT
BRANCH   1  20
ATOM     19  C   UNL     1       7.365   4.922  13.200  0.00  0.00    +0.000 C 
ATOM     20  O   UNL     1       7.554   5.453  14.506  0.00  0.00    +0.000 OA
ENDBRANCH   1  20
BRANCH   5  21
ATOM     21  O   UNL     1       7.285   5.099  19.211  0.00  0.00    +0.000 OA
ATOM     22  C   UNL     1       8.164   6.204  19.412  0.00  0.00    +0.000 C 
ENDBRANCH   5  21
TORSDOF 2
ENDMDL
MODEL 2
REMARK VINA RESULT:      -7.2      1.083      1.129
REMARK  Name = 
REMARK  5 active torsions:
REMARK  status: ('A' for Active; 'I' for Inactive)
REMARK    1  A    between atoms: C_1  and  O_2
REMARK    2  A    between atoms: O_2  and  C_3
REMARK    3  A    between atoms: C_7  and  O_8
REMARK    4  A    between atoms: O_8  and  C_9
REMARK    5  A    between atoms: C_14  and  C_15
REMARK                            x       y       z     vdW  Elec       q    Type
REMARK                         _______ _______ _______ _____ _____    ______ ____
ROOT
ATOM      1  C   UNL     1       6.517   4.343  14.839  0.00  0.00    +0.000 A 
ATOM      2  C   UNL     1       5.551   3.360  15.284  0.00  0.00    +0.000 A 
ATOM      3  C   UNL     1       5.032   3.317  16.611  0.00  0.00    +0.000 A 
ATOM      4  C   UNL     1       5.645   4.307  17.453  0.00  0.00    +0.000 A 
ATOM      5  C   UNL     1       6.630   5.251  17.038  0.00  0.00    +0.000 A 
ATOM      6  C   UNL     1       7.037   5.294  15.729  0.00  0.00    +0.000 A 
ATOM      7  C   UNL     1       5.071   4.641  18.681  0.00  0.00    +0.000 C 
ATOM      8  O   UNL     1       5.035   3.933  19.655  0.00  0.00    +0.000 OA
ATOM      9  O   UNL     1       4.312   5.732  18.332  0.00  0.00    +0.000 OA
ATOM     10  C   UNL     1       2.974   5.521  18.696  0.00  0.00    +0.000 C 
ATOM     11  C   UNL     1       1.959   5.832  17.609  0.00  0.00    +0.000 C 
ATOM     12  C   UNL     1       2.757   5.963  20.175  0.00  0.00    +0.000 C 
ATOM     13  C   UNL     1       2.034   4.770  20.758  0.00  0.00    +0.000 C 
ATOM     14  C   UNL     1       1.984   3.615  21.747  0.00  0.00    +0.000 C 
ATOM     15  C   UNL     1       2.309   2.306  20.834  0.00  0.00    +0.000 C 
ATOM     16  C   UNL     1       1.955   2.329  19.513  0.00  0.00    +0.000 C 
ATOM     17  C   UNL     1       2.559   2.076  18.075  0.00  0.00    +0.000 C 
ATOM     18  C   UNL     1       3.975   2.228  17.127  0.00  0.00    +0.000 C 
ENDROOT
BRANCH   1  20
ATOM     19  C   UNL     1       6.607   3.629  12.539  0.00  0.00    +0.000 C 
ATOM     20  O   UNL     1       6.845   4.619  13.532  0.00  0.00    +0.000 OA
ENDBRANCH   1  20
BRANCH   5  21
ATOM     21  O   UNL     1       7.120   6.068  18.022  0.00  0.00    +0.000 OA
ATOM     22  C   UNL     1       7.424   7.422  17.693  0.00  0.00    +0.000 C 
ENDBRANCH   5  21
TORSDOF 2
ENDMDL
MODEL 3
REMARK VINA RESULT:      -6.9      1.910      3.565
REMARK  Name = 
REMARK  5 active torsions:
REMARK  status: ('A' for Active; 'I' for Inactive)
REMARK    1  A    between atoms: C_1  and  O_2
REMARK    2  A    between atoms: O_2  and  C_3
REMARK    3  A    between atoms: C_7  and  O_8
REMARK    4  A    between atoms: O_8  and  C_9
REMARK    5  A    between atoms: C_14  and  C_15
REMARK                            x       y       z     vdW  Elec       q    Type
REMARK                         _______ _______ _______ _____ _____    ______ ____
ROOT
ATOM      1  C   UNL     1       6.727   6.884  16.852  0.00  0.00    +0.000 A 
ATOM      2  C   UNL     1       5.632   7.065  17.782  0.00  0.00    +0.000 A 
ATOM      3  C   UNL     1       4.535   6.159  17.885  0.00  0.00    +0.000 A 
ATOM      4  C   UNL     1       4.619   5.110  16.907  0.00  0.00    +0.000 A 
ATOM      5  C   UNL     1       5.669   4.947  15.956  0.00  0.00    +0.000 A 
ATOM      6  C   UNL     1       6.737   5.808  15.952  0.00  0.00    +0.000 A 
ATOM      7  C   UNL     1       3.833   3.963  17.034  0.00  0.00    +0.000 C 
ATOM      8  O   UNL     1       2.638   3.911  16.889  0.00  0.00    +0.000 OA
ATOM      9  O   UNL     1       4.698   3.119  17.685  0.00  0.00    +0.000 OA
ATOM     10  C   UNL     1       4.112   2.654  18.872  0.00  0.00    +0.000 C 
ATOM     11  C   UNL     1       4.999   2.748  20.103  0.00  0.00    +0.000 C 
ATOM     12  C   UNL     1       3.253   1.388  18.572  0.00  0.00    +0.000 C 
ATOM     13  C   UNL     1       1.951   1.719  19.264  0.00  0.00    +0.000 C 
ATOM     14  C   UNL     1       0.456   1.989  19.196  0.00  0.00    +0.000 C 
ATOM     15  C   UNL     1       0.343   3.605  19.360  0.00  0.00    +0.000 C 
ATOM     16  C   UNL     1       1.307   4.255  20.081  0.00  0.00    +0.000 C 
ATOM     17  C   UNL     1       2.308   5.474  19.975  0.00  0.00    +0.000 C 
ATOM     18  C   UNL     1       3.307   6.349  18.897  0.00  0.00    +0.000 C 
ENDROOT
BRANCH   1  20
ATOM     19  C   UNL     1       8.101   8.623  17.799  0.00  0.00    +0.000 C 
ATOM     20  O   UNL     1       7.933   7.545  16.887  0.00  0.00    +0.000 OA
ENDBRANCH   1  20
BRANCH   5  21
ATOM     21  O   UNL     1       5.518   3.907  15.078  0.00  0.00    +0.000 OA
ATOM     22  C   UNL     1       6.238   3.945  13.848  0.00  0.00    +0.000 C 
ENDBRANCH   5  21
TORSDOF 2
ENDMDL
MODEL 4
REMARK VINA RESULT:      -6.6      1.549      2.065
REMARK  Name = 
REMARK  5 active torsions:
REMARK  status: ('A' for Active; 'I' for Inactive)
REMARK    1  A    between atoms: C_1  and  O_2
REMARK    2  A    between atoms: O_2  and  C_3
REMARK    3  A    between atoms: C_7  and  O_8
REMARK    4  A    between atoms: O_8  and  C_9
REMARK    5  A    between atoms: C_14  and  C_15
REMARK                            x       y       z     vdW  Elec       q    Type
REMARK                         _______ _______ _______ _____ _____    ______ ____
ROOT
ATOM      1  C   UNL     1       7.282   6.854  17.217  0.00  0.00    +0.000 A 
ATOM      2  C   UNL     1       6.157   6.201  16.580  0.00  0.00    +0.000 A 
ATOM      3  C   UNL     1       5.328   5.249  17.242  0.00  0.00    +0.000 A 
ATOM      4  C   UNL     1       5.797   4.969  18.571  0.00  0.00    +0.000 A 
ATOM      5  C   UNL     1       6.929   5.572  19.193  0.00  0.00    +0.000 A 
ATOM      6  C   UNL     1       7.647   6.537  18.534  0.00  0.00    +0.000 A 
ATOM      7  C   UNL     1       4.970   4.317  19.487  0.00  0.00    +0.000 C 
ATOM      8  O   UNL     1       4.636   3.160  19.433  0.00  0.00    +0.000 OA
ATOM      9  O   UNL     1       4.414   5.384  20.150  0.00  0.00    +0.000 OA
ATOM     10  C   UNL     1       3.014   5.313  20.085  0.00  0.00    +0.000 C 
ATOM     11  C   UNL     1       2.327   6.604  19.676  0.00  0.00    +0.000 C 
ATOM     12  C   UNL     1       2.480   4.430  21.254  0.00  0.00    +0.000 C 
ATOM     13  C   UNL     1       1.539   3.491  20.536  0.00  0.00    +0.000 C 
ATOM     14  C   UNL     1       1.150   2.081  20.118  0.00  0.00    +0.000 C 
ATOM     15  C   UNL     1       1.577   2.008  18.548  0.00  0.00    +0.000 C 
ATOM     16  C   UNL     1       1.561   3.162  17.814  0.00  0.00    +0.000 C 
ATOM     17  C   UNL     1       2.476   4.019  16.851  0.00  0.00    +0.000 C 
ATOM     18  C   UNL     1       4.088   4.504  16.550  0.00  0.00    +0.000 C 
ENDROOT
BRANCH   1  20
ATOM     19  C   UNL     1       8.139   9.070  17.621  0.00  0.00    +0.000 C 
ATOM     20  O   UNL     1       7.942   7.966  16.747  0.00  0.00    +0.000 OA
ENDBRANCH   1  20
BRANCH   5  21
ATOM     21  O   UNL     1       7.230   5.113  20.448  0.00  0.00    +0.000 OA
ATOM     22  C   UNL     1       8.599   5.057  20.841  0.00  0.00    +0.000 C 
ENDBRANCH   5  21
TORSDOF 2
ENDMDL
MODEL 5
REMARK VINA RESULT:      -6.0      8.516     12.075
REMARK  Name = 
REMARK  5 active torsions:
REMARK  status: ('A' for Active; 'I' for Inactive)
REMARK    1  A    between atoms: C_1  and  O_2
REMARK    2  A    between atoms: O_2  and  C_3
REMARK    3  A    between atoms: C_7  and  O_8
REMARK    4  A    between atoms: O_8  and  C_9
REMARK    5  A    between atoms: C_14  and  C_15
REMARK                            x       y       z     vdW  Elec       q    Type
REMARK                         _______ _______ _______ _____ _____    ______ ____
ROOT
ATOM      1  C   UNL     1      -3.052  12.663  23.116  0.00  0.00    +0.000 A 
ATOM      2  C   UNL     1      -2.663  13.867  22.412  0.00  0.00    +0.000 A 
ATOM      3  C   UNL     1      -1.392  14.032  21.788  0.00  0.00    +0.000 A 
ATOM      4  C   UNL     1      -0.537  12.899  22.016  0.00  0.00    +0.000 A 
ATOM      5  C   UNL     1      -0.893  11.727  22.745  0.00  0.00    +0.000 A 
ATOM      6  C   UNL     1      -2.158  11.592  23.261  0.00  0.00    +0.000 A 
ATOM      7  C   UNL     1       0.614  12.719  21.247  0.00  0.00    +0.000 C 
ATOM      8  O   UNL     1       1.609  13.396  21.301  0.00  0.00    +0.000 OA
ATOM      9  O   UNL     1       0.147  11.884  20.261  0.00  0.00    +0.000 OA
ATOM     10  C   UNL     1       0.387  12.449  18.999  0.00  0.00    +0.000 C 
ATOM     11  C   UNL     1      -0.806  12.444  18.059  0.00  0.00    +0.000 C 
ATOM     12  C   UNL     1       1.818  12.063  18.516  0.00  0.00    +0.000 C 
ATOM     13  C   UNL     1       2.378  13.400  18.088  0.00  0.00    +0.000 C 
ATOM     14  C   UNL     1       3.405  14.510  18.249  0.00  0.00    +0.000 C 
ATOM     15  C   UNL     1       2.585  15.693  19.012  0.00  0.00    +0.000 C 
ATOM     16  C   UNL     1       1.236  15.787  18.806  0.00  0.00    +0.000 C 
ATOM     17  C   UNL     1      -0.125  15.884  19.604  0.00  0.00    +0.000 C 
ATOM     18  C   UNL     1      -0.936  15.362  21.017  0.00  0.00    +0.000 C 
ENDROOT
BRANCH   1  20
ATOM     19  C   UNL     1      -4.687  12.401  24.867  0.00  0.00    +0.000 C 
ATOM     20  O   UNL     1      -4.332  12.326  23.492  0.00  0.00    +0.000 OA
ENDBRANCH   1  20
BRANCH   5  21
ATOM     21  O   UNL     1       0.098  10.793  22.888  0.00  0.00    +0.000 OA
ATOM     22  C   UNL     1      -0.272   9.421  23.001  0.00  0.00    +0.000 C 
ENDBRANCH   5  21
TORSDOF 2
ENDMDL
MODEL 6
REMARK VINA RESULT:      -5.8      1.706      2.981
REMARK  Name = 
REMARK  5 active torsions:
REMARK  status: ('A' for Active; 'I' for Inactive)
REMARK    1  A    between atoms: C_1  and  O_2
REMARK    2  A    between atoms: O_2  and  C_3
REMARK    3  A    between atoms: C_7  and  O_8
REMARK    4  A    between atoms: O_8  and  C_9
REMARK    5  A    between atoms: C_14  and  C_15
REMARK                            x       y       z     vdW  Elec       q    Type
REMARK                         _______ _______ _______ _____ _____    ______ ____
ROOT
ATOM      1  C   UNL     1       6.665   5.745  16.246  0.00  0.00    +0.000 A 
ATOM      2  C   UNL     1       6.715   4.813  17.353  0.00  0.00    +0.000 A 
ATOM      3  C   UNL     1       5.629   4.610  18.255  0.00  0.00    +0.000 A 
ATOM      4  C   UNL     1       4.533   5.495  17.973  0.00  0.00    +0.000 A 
ATOM      5  C   UNL     1       4.490   6.448  16.914  0.00  0.00    +0.000 A 
ATOM      6  C   UNL     1       5.535   6.547  16.031  0.00  0.00    +0.000 A 
ATOM      7  C   UNL     1       3.273   5.253  18.524  0.00  0.00    +0.000 C 
ATOM      8  O   UNL     1       2.981   5.370  19.687  0.00  0.00    +0.000 OA
ATOM      9  O   UNL     1       2.671   4.547  17.511  0.00  0.00    +0.000 OA
ATOM     10  C   UNL     1       2.210   3.313  17.994  0.00  0.00    +0.000 C 
ATOM     11  C   UNL     1       2.582   2.113  17.139  0.00  0.00    +0.000 C 
ATOM     12  C   UNL     1       0.782   3.486  18.595  0.00  0.00    +0.000 C 
ATOM     13  C   UNL     1       0.918   2.800  19.935  0.00  0.00    +0.000 C 
ATOM     14  C   UNL     1       0.890   2.862  21.454  0.00  0.00    +0.000 C 
ATOM     15  C   UNL     1       2.463   2.837  21.875  0.00  0.00    +0.000 C 
ATOM     16  C   UNL     1       3.347   2.194  21.052  0.00  0.00    +0.000 C 
ATOM     17  C   UNL     1       4.720   2.425  20.304  0.00  0.00    +0.000 C 
ATOM     18  C   UNL     1       5.670   3.595  19.495  0.00  0.00    +0.000 C 
ENDROOT
BRANCH   1  20
ATOM     19  C   UNL     1       7.287   4.990  14.044  0.00  0.00    +0.000 C 
ATOM     20  O   UNL     1       7.545   5.791  15.190  0.00  0.00    +0.000 OA
ENDBRANCH   1  20
BRANCH   5  21
ATOM     21  O   UNL     1       3.366   7.229  16.864  0.00  0.00    +0.000 OA
ATOM     22  C   UNL     1       3.294   8.372  17.713  0.00  0.00    +0.000 C 
ENDBRANCH   5  21
TORSDOF 2
ENDMDL
MODEL 7
REMARK VINA RESULT:      -5.7      9.915     12.248
REMARK  Name = 
REMARK  5 active torsions:
REMARK  status: ('A' for Active; 'I' for Inactive)
REMARK    1  A    between atoms: C_1  and  O_2
REMARK    2  A    between atoms: O_2  and  C_3
REMARK    3  A    between atoms: C_7  and  O_8
REMARK    4  A    between atoms: O_8  and  C_9
REMARK    5  A    between atoms: C_14  and  C_15
REMARK                            x       y       z     vdW  Elec       q    Type
REMARK                         _______ _______ _______ _____ _____    ______ ____
ROOT
ATOM      1  C   UNL     1       4.391  15.861  18.418  0.00  0.00    +0.000 A 
ATOM      2  C   UNL     1       5.115  14.726  17.884  0.00  0.00    +0.000 A 
ATOM      3  C   UNL     1       6.537  14.617  17.921  0.00  0.00    +0.000 A 
ATOM      4  C   UNL     1       7.145  15.795  18.473  0.00  0.00    +0.000 A 
ATOM      5  C   UNL     1       6.445  16.938  18.960  0.00  0.00    +0.000 A 
ATOM      6  C   UNL     1       5.074  16.956  18.968  0.00  0.00    +0.000 A 
ATOM      7  C   UNL     1       8.480  15.773  18.884  0.00  0.00    +0.000 C 
ATOM      8  O   UNL     1       9.437  15.699  18.157  0.00  0.00    +0.000 OA
ATOM      9  O   UNL     1       8.341  15.491  20.221  0.00  0.00    +0.000 OA
ATOM     10  C   UNL     1       9.078  14.343  20.549  0.00  0.00    +0.000 C 
ATOM     11  C   UNL     1       8.323  13.309  21.366  0.00  0.00    +0.000 C 
ATOM     12  C   UNL     1      10.548  14.743  20.882  0.00  0.00    +0.000 C 
ATOM     13  C   UNL     1      11.339  13.765  20.044  0.00  0.00    +0.000 C 
ATOM     14  C   UNL     1      12.324  13.492  18.917  0.00  0.00    +0.000 C 
ATOM     15  C   UNL     1      11.384  12.967  17.695  0.00  0.00    +0.000 C 
ATOM     16  C   UNL     1      10.221  12.317  18.002  0.00  0.00    +0.000 C 
ATOM     17  C   UNL     1       8.674  12.344  17.674  0.00  0.00    +0.000 C 
ATOM     18  C   UNL     1       7.357  13.376  17.323  0.00  0.00    +0.000 C 
ENDROOT
BRANCH   1  20
ATOM     19  C   UNL     1       2.314  14.694  18.776  0.00  0.00    +0.000 C 
ATOM     20  O   UNL     1       3.040  15.911  18.668  0.00  0.00    +0.000 OA
ENDBRANCH   1  20
BRANCH   5  21
ATOM     21  O   UNL     1       7.230  17.975  19.391  0.00  0.00    +0.000 OA
ATOM     22  C   UNL     1       6.892  18.618  20.618  0.00  0.00    +0.000 C 
ENDBRANCH   5  21
TORSDOF 2
ENDMDL
MODEL 8
REMARK VINA RESULT:      -5.7     11.777     14.475
REMARK  Name = 
REMARK  5 active torsions:
REMARK  status: ('A' for Active; 'I' for Inactive)
REMARK    1  A    between atoms: C_1  and  O_2
REMARK    2  A    between atoms: O_2  and  C_3
REMARK    3  A    between atoms: C_7  and  O_8
REMARK    4  A    between atoms: O_8  and  C_9
REMARK    5  A    between atoms: C_14  and  C_15
REMARK                            x       y       z     vdW  Elec       q    Type
REMARK                         _______ _______ _______ _____ _____    ______ ____
ROOT
ATOM      1  C   UNL     1      -7.238  14.175  16.912  0.00  0.00    +0.000 A 
ATOM      2  C   UNL     1      -7.748  14.550  18.214  0.00  0.00    +0.000 A 
ATOM      3  C   UNL     1      -7.323  13.935  19.428  0.00  0.00    +0.000 A 
ATOM      4  C   UNL     1      -6.400  12.861  19.184  0.00  0.00    +0.000 A 
ATOM      5  C   UNL     1      -5.925  12.453  17.903  0.00  0.00    +0.000 A 
ATOM      6  C   UNL     1      -6.312  13.131  16.775  0.00  0.00    +0.000 A 
ATOM      7  C   UNL     1      -5.633  12.340  20.228  0.00  0.00    +0.000 C 
ATOM      8  O   UNL     1      -6.051  11.683  21.147  0.00  0.00    +0.000 OA
ATOM      9  O   UNL     1      -4.475  13.066  20.094  0.00  0.00    +0.000 OA
ATOM     10  C   UNL     1      -4.177  13.721  21.298  0.00  0.00    +0.000 C 
ATOM     11  C   UNL     1      -3.831  15.194  21.157  0.00  0.00    +0.000 C 
ATOM     12  C   UNL     1      -3.361  12.769  22.224  0.00  0.00    +0.000 C 
ATOM     13  C   UNL     1      -4.107  12.886  23.534  0.00  0.00    +0.000 C 
ATOM     14  C   UNL     1      -4.930  12.246  24.641  0.00  0.00    +0.000 C 
ATOM     15  C   UNL     1      -6.449  12.747  24.337  0.00  0.00    +0.000 C 
ATOM     16  C   UNL     1      -6.626  13.952  23.716  0.00  0.00    +0.000 C 
ATOM     17  C   UNL     1      -7.376  14.603  22.486  0.00  0.00    +0.000 C 
ATOM     18  C   UNL     1      -7.887  14.325  20.877  0.00  0.00    +0.000 C 
ENDROOT
BRANCH   1  20
ATOM     19  C   UNL     1      -7.916  16.213  15.818  0.00  0.00    +0.000 C 
ATOM     20  O   UNL     1      -7.385  14.896  15.749  0.00  0.00    +0.000 OA
ENDBRANCH   1  20
BRANCH   5  21
ATOM     21  O   UNL     1      -5.092  11.366  17.899  0.00  0.00    +0.000 OA
ATOM     22  C   UNL     1      -4.279  11.137  16.750  0.00  0.00    +0.000 C 
ENDBRANCH   5  21
TORSDOF 2
ENDMDL
MODEL 9
REMARK VINA RESULT:      -5.6      8.710     11.720
REMARK  Name = 
REMARK  5 active torsions:
REMARK  status: ('A' for Active; 'I' for Inactive)
REMARK    1  A    between atoms: C_1  and  O_2
REMARK    2  A    between atoms: O_2  and  C_3
REMARK    3  A    between atoms: C_7  and  O_8
REMARK    4  A    between atoms: O_8  and  C_9
REMARK    5  A    between atoms: C_14  and  C_15
REMARK                            x       y       z     vdW  Elec       q    Type
REMARK                         _______ _______ _______ _____ _____    ______ ____
ROOT
ATOM      1  C   UNL     1       9.445  10.491  19.228  0.00  0.00    +0.000 A 
ATOM      2  C   UNL     1       9.333  11.224  20.472  0.00  0.00    +0.000 A 
ATOM      3  C   UNL     1       9.584  12.624  20.581  0.00  0.00    +0.000 A 
ATOM      4  C   UNL     1      10.033  13.181  19.335  0.00  0.00    +0.000 A 
ATOM      5  C   UNL     1      10.191  12.461  18.115  0.00  0.00    +0.000 A 
ATOM      6  C   UNL     1       9.862  11.130  18.051  0.00  0.00    +0.000 A 
ATOM      7  C   UNL     1      10.033  14.564  19.141  0.00  0.00    +0.000 C 
ATOM      8  O   UNL     1      10.770  15.349  19.681  0.00  0.00    +0.000 OA
ATOM      9  O   UNL     1       8.818  14.746  18.527  0.00  0.00    +0.000 OA
ATOM     10  C   UNL     1       8.051  15.675  19.247  0.00  0.00    +0.000 C 
ATOM     11  C   UNL     1       6.621  15.245  19.525  0.00  0.00    +0.000 C 
ATOM     12  C   UNL     1       8.400  17.119  18.775  0.00  0.00    +0.000 C 
ATOM     13  C   UNL     1       8.630  17.833  20.087  0.00  0.00    +0.000 C 
ATOM     14  C   UNL     1       9.554  18.586  21.032  0.00  0.00    +0.000 C 
ATOM     15  C   UNL     1       9.929  17.485  22.171  0.00  0.00    +0.000 C 
ATOM     16  C   UNL     1       9.019  16.503  22.452  0.00  0.00    +0.000 C 
ATOM     17  C   UNL     1       8.907  14.932  22.584  0.00  0.00    +0.000 C 
ATOM     18  C   UNL     1       9.480  13.450  21.951  0.00  0.00    +0.000 C 
ENDROOT
BRANCH   1  20
ATOM     19  C   UNL     1       8.175   9.000  17.825  0.00  0.00    +0.000 C 
ATOM     20  O   UNL     1       8.958   9.227  18.989  0.00  0.00    +0.000 OA
ENDBRANCH   1  20
BRANCH   5  21
ATOM     21  O   UNL     1      10.686  13.181  17.061  0.00  0.00    +0.000 OA
ATOM     22  C   UNL     1      12.055  13.007  16.703  0.00  0.00    +0.000 C 
ENDBRANCH   5  21
TORSDOF 2
ENDMDL
