MODEL 1
REMARK VINA RESULT:      -7.7      0.000      0.000
REMARK  Name = 
REMARK  5 active torsions:
REMARK  status: ('A' for Active; 'I' for Inactive)
REMARK    1  A    between atoms: C_1  and  C_2
REMARK    2  A    between atoms: C_6  and  C_7
REMARK    3  A    between atoms: N_9  and  C_10
REMARK    4  A    between atoms: C_10  and  C_11
REMARK    5  A    between atoms: C_11  and  C_12
REMARK                            x       y       z     vdW  Elec       q    Type
REMARK                         _______ _______ _______ _____ _____    ______ ____
ROOT
ATOM      1  C   UNL     1       3.555   6.309  18.605  0.00  0.00    +0.000 C 
ATOM      2  O   UNL     1       4.029   5.663  19.534  0.00  0.00    +0.000 OA
ATOM      3  N   UNL     1       3.878   6.056  17.295  0.00  0.00    +0.000 N 
ATOM      4  H   UNL     1       3.287   6.415  16.553  0.00  0.00    +0.000 HD
ENDROOT
BRANCH   1  10
ATOM      5  C   UNL     1      -0.874  10.926  22.259  0.00  0.00    +0.000 C 
ATOM      6  C   UNL     1      -0.058  10.117  21.326  0.00  0.00    +0.000 A 
ATOM      7  C   UNL     1       0.681   8.981  21.587  0.00  0.00    +0.000 A 
ATOM      8  N   UNL     1       1.261   8.632  20.394  0.00  0.00    +0.000 N 
ATOM      9  C   UNL     1       2.111   7.571  20.096  0.00  0.00    +0.000 A 
ATOM     10  C   UNL     1       2.577   7.420  18.839  0.00  0.00    +0.000 A 
ATOM     11  C   UNL     1       2.174   8.407  17.833  0.00  0.00    +0.000 A 
ATOM     12  C   UNL     1       1.344   9.429  18.134  0.00  0.00    +0.000 A 
ATOM     13  C   UNL     1       0.843   9.572  19.460  0.00  0.00    +0.000 A 
ATOM     14  N   UNL     1       0.045  10.469  20.002  0.00  0.00    +0.000 NA
ENDBRANCH   1  10
BRANCH   3  15
ATOM     15  C   UNL     1       4.762   4.960  16.903  0.00  0.00    +0.000 C 
BRANCH  15  16
ATOM     16  C   UNL     1       4.020   3.692  16.463  0.00  0.00    +0.000 C 
BRANCH  16  17
ATOM     17  C   UNL     1       3.190   3.114  17.571  0.00  0.00    +0.000 A 
ATOM     18  N   UNL     1       1.916   3.421  17.783  0.00  0.00    +0.000 NA
ATOM     19  C   UNL     1       1.604   3.028  19.046  0.00  0.00    +0.000 A 
ATOM     20  C   UNL     1       2.590   2.388  19.750  0.00  0.00    +0.000 A 
ATOM     21  S   UNL     1       3.966   2.173  18.820  0.00  0.00    +0.000 S 
ATOM     22  C   UNL     1       2.369   2.440  21.215  0.00  0.00    +0.000 C 
ATOM     23  C   UNL     1       1.450   3.708  21.264  0.00  0.00    +0.000 C 
ATOM     24  C   UNL     1       0.596   3.622  19.958  0.00  0.00    +0.000 C 
ENDBRANCH  16  17
ENDBRANCH  15  16
ENDBRANCH   3  15
TORSDOF 4
ENDMDL
MODEL 2
REMARK VINA RESULT:      -7.5      1.013      1.054
REMARK  Name = 
REMARK  5 active torsions:
REMARK  status: ('A' for Active; 'I' for Inactive)
REMARK    1  A    between atoms: C_1  and  C_2
REMARK    2  A    between atoms: C_6  and  C_7
REMARK    3  A    between atoms: N_9  and  C_10
REMARK    4  A    between atoms: C_10  and  C_11
REMARK    5  A    between atoms: C_11  and  C_12
REMARK                            x       y       z     vdW  Elec       q    Type
REMARK                         _______ _______ _______ _____ _____    ______ ____
ROOT
ATOM      1  C   UNL     1       4.145   6.714  17.505  0.00  0.00    +0.000 C 
ATOM      2  O   UNL     1       5.223   7.217  17.201  0.00  0.00    +0.000 OA
ATOM      3  N   UNL     1       3.871   5.385  17.296  0.00  0.00    +0.000 N 
ATOM      4  H   UNL     1       3.097   4.949  17.786  0.00  0.00    +0.000 HD
ENDROOT
BRANCH   1  10
ATOM      5  C   UNL     1      -0.486   9.167  22.683  0.00  0.00    +0.000 C 
ATOM      6  C   UNL     1       0.335   8.835  21.497  0.00  0.00    +0.000 A 
ATOM      7  C   UNL     1       1.246   7.811  21.336  0.00  0.00    +0.000 A 
ATOM      8  N   UNL     1       1.745   7.953  20.066  0.00  0.00    +0.000 N 
ATOM      9  C   UNL     1       2.699   7.192  19.397  0.00  0.00    +0.000 A 
ATOM     10  C   UNL     1       3.052   7.521  18.137  0.00  0.00    +0.000 A 
ATOM     11  C   UNL     1       2.417   8.693  17.529  0.00  0.00    +0.000 A 
ATOM     12  C   UNL     1       1.489   9.419  18.188  0.00  0.00    +0.000 A 
ATOM     13  C   UNL     1       1.110   9.057  19.512  0.00  0.00    +0.000 A 
ATOM     14  N   UNL     1       0.254   9.596  20.356  0.00  0.00    +0.000 NA
ENDBRANCH   1  10
BRANCH   3  15
ATOM     15  C   UNL     1       4.860   4.456  16.754  0.00  0.00    +0.000 C 
BRANCH  15  16
ATOM     16  C   UNL     1       4.390   2.996  16.727  0.00  0.00    +0.000 C 
BRANCH  16  17
ATOM     17  C   UNL     1       3.503   2.671  17.892  0.00  0.00    +0.000 A 
ATOM     18  N   UNL     1       2.192   2.882  17.910  0.00  0.00    +0.000 NA
ATOM     19  C   UNL     1       1.787   2.834  19.206  0.00  0.00    +0.000 A 
ATOM     20  C   UNL     1       2.747   2.534  20.138  0.00  0.00    +0.000 A 
ATOM     21  S   UNL     1       4.224   2.216  19.416  0.00  0.00    +0.000 S 
ATOM     22  C   UNL     1       2.373   2.977  21.502  0.00  0.00    +0.000 C 
ATOM     23  C   UNL     1       1.350   4.098  21.109  0.00  0.00    +0.000 C 
ATOM     24  C   UNL     1       0.644   3.549  19.828  0.00  0.00    +0.000 C 
ENDBRANCH  16  17
ENDBRANCH  15  16
ENDBRANCH   3  15
TORSDOF 4
ENDMDL
MODEL 3
REMARK VINA RESULT:      -7.4      1.263      1.737
REMARK  Name = 
REMARK  5 active torsions:
REMARK  status: ('A' for Active; 'I' for Inactive)
REMARK    1  A    between atoms: C_1  and  C_2
REMARK    2  A    between atoms: C_6  and  C_7
REMARK    3  A    between atoms: N_9  and  C_10
REMARK    4  A    between atoms: C_10  and  C_11
REMARK    5  A    between atoms: C_11  and  C_12
REMARK                            x       y       z     vdW  Elec       q    Type
REMARK                         _______ _______ _______ _____ _____    ______ ____
ROOT
ATOM      1  C   UNL     1       4.025   6.553  17.508  0.00  0.00    +0.000 C 
ATOM      2  O   UNL     1       5.015   7.119  17.052  0.00  0.00    +0.000 OA
ATOM      3  N   UNL     1       3.724   5.248  17.209  0.00  0.00    +0.000 N 
ATOM      4  H   UNL     1       3.068   4.737  17.792  0.00  0.00    +0.000 HD
ENDROOT
BRANCH   1  10
ATOM      5  C   UNL     1      -0.934  11.468  19.859  0.00  0.00    +0.000 C 
ATOM      6  C   UNL     1       0.046  10.387  19.611  0.00  0.00    +0.000 A 
ATOM      7  C   UNL     1       0.854  10.191  18.509  0.00  0.00    +0.000 A 
ATOM      8  N   UNL     1       1.560   9.043  18.765  0.00  0.00    +0.000 N 
ATOM      9  C   UNL     1       2.507   8.389  17.983  0.00  0.00    +0.000 A 
ATOM     10  C   UNL     1       3.077   7.252  18.434  0.00  0.00    +0.000 A 
ATOM     11  C   UNL     1       2.652   6.741  19.740  0.00  0.00    +0.000 A 
ATOM     12  C   UNL     1       1.736   7.389  20.492  0.00  0.00    +0.000 A 
ATOM     13  C   UNL     1       1.150   8.596  20.016  0.00  0.00    +0.000 A 
ATOM     14  N   UNL     1       0.245   9.397  20.541  0.00  0.00    +0.000 NA
ENDBRANCH   1  10
BRANCH   3  15
ATOM     15  C   UNL     1       4.588   4.413  16.377  0.00  0.00    +0.000 C 
BRANCH  15  16
ATOM     16  C   UNL     1       4.944   3.063  17.011  0.00  0.00    +0.000 C 
BRANCH  16  17
ATOM     17  C   UNL     1       3.930   2.638  18.032  0.00  0.00    +0.000 A 
ATOM     18  N   UNL     1       2.653   2.401  17.757  0.00  0.00    +0.000 NA
ATOM     19  C   UNL     1       1.971   2.415  18.932  0.00  0.00    +0.000 A 
ATOM     20  C   UNL     1       2.714   2.595  20.070  0.00  0.00    +0.000 A 
ATOM     21  S   UNL     1       4.350   2.683  19.726  0.00  0.00    +0.000 S 
ATOM     22  C   UNL     1       1.900   3.087  21.208  0.00  0.00    +0.000 C 
ATOM     23  C   UNL     1       0.727   3.729  20.392  0.00  0.00    +0.000 C 
ATOM     24  C   UNL     1       0.553   2.792  19.155  0.00  0.00    +0.000 C 
ENDBRANCH  16  17
ENDBRANCH  15  16
ENDBRANCH   3  15
TORSDOF 4
ENDMDL
MODEL 4
REMARK VINA RESULT:      -7.4      5.871      8.679
REMARK  Name = 
REMARK  5 active torsions:
REMARK  status: ('A' for Active; 'I' for Inactive)
REMARK    1  A    between atoms: C_1  and  C_2
REMARK    2  A    between atoms: C_6  and  C_7
REMARK    3  A    between atoms: N_9  and  C_10
REMARK    4  A    between atoms: C_10  and  C_11
REMARK    5  A    between atoms: C_11  and  C_12
REMARK                            x       y       z     vdW  Elec       q    Type
REMARK                         _______ _______ _______ _____ _____    ______ ____
ROOT
ATOM      1  C   UNL     1       7.300   5.813  18.630  0.00  0.00    +0.000 C 
ATOM      2  O   UNL     1       8.126   5.318  19.391  0.00  0.00    +0.000 OA
ATOM      3  N   UNL     1       7.408   7.100  18.166  0.00  0.00    +0.000 N 
ATOM      4  H   UNL     1       6.875   7.387  17.352  0.00  0.00    +0.000 HD
ENDROOT
BRANCH   1  10
ATOM      5  C   UNL     1       0.739   2.464  18.774  0.00  0.00    +0.000 C 
ATOM      6  C   UNL     1       2.067   3.064  18.513  0.00  0.00    +0.000 A 
ATOM      7  C   UNL     1       2.942   3.647  19.407  0.00  0.00    +0.000 A 
ATOM      8  N   UNL     1       4.017   4.059  18.662  0.00  0.00    +0.000 N 
ATOM      9  C   UNL     1       5.178   4.712  19.063  0.00  0.00    +0.000 A 
ATOM     10  C   UNL     1       6.114   5.036  18.146  0.00  0.00    +0.000 A 
ATOM     11  C   UNL     1       5.852   4.694  16.745  0.00  0.00    +0.000 A 
ATOM     12  C   UNL     1       4.723   4.054  16.371  0.00  0.00    +0.000 A 
ATOM     13  C   UNL     1       3.747   3.702  17.346  0.00  0.00    +0.000 A 
ATOM     14  N   UNL     1       2.581   3.098  17.240  0.00  0.00    +0.000 NA
ENDBRANCH   1  10
BRANCH   3  15
ATOM     15  C   UNL     1       8.545   7.959  18.492  0.00  0.00    +0.000 C 
BRANCH  15  16
ATOM     16  C   UNL     1       8.338   9.431  18.116  0.00  0.00    +0.000 C 
BRANCH  16  17
ATOM     17  C   UNL     1       9.245  10.341  18.891  0.00  0.00    +0.000 A 
ATOM     18  N   UNL     1       9.224  10.461  20.213  0.00  0.00    +0.000 NA
ATOM     19  C   UNL     1       9.882  11.606  20.531  0.00  0.00    +0.000 A 
ATOM     20  C   UNL     1      10.438  12.303  19.491  0.00  0.00    +0.000 A 
ATOM     21  S   UNL     1      10.227  11.504  18.035  0.00  0.00    +0.000 S 
ATOM     22  C   UNL     1      10.683  13.726  19.826  0.00  0.00    +0.000 C 
ATOM     23  C   UNL     1       9.638  13.874  20.984  0.00  0.00    +0.000 C 
ATOM     24  C   UNL     1       9.655  12.487  21.704  0.00  0.00    +0.000 C 
ENDBRANCH  16  17
ENDBRANCH  15  16
ENDBRANCH   3  15
TORSDOF 4
ENDMDL
MODEL 5
REMARK VINA RESULT:      -7.3      1.447      2.013
REMARK  Name = 
REMARK  5 active torsions:
REMARK  status: ('A' for Active; 'I' for Inactive)
REMARK    1  A    between atoms: C_1  and  C_2
REMARK    2  A    between atoms: C_6  and  C_7
REMARK    3  A    between atoms: N_9  and  C_10
REMARK    4  A    between atoms: C_10  and  C_11
REMARK    5  A    between atoms: C_11  and  C_12
REMARK                            x       y       z     vdW  Elec       q    Type
REMARK                         _______ _______ _______ _____ _____    ______ ____
ROOT
ATOM      1  C   UNL     1       2.612   8.051  18.008  0.00  0.00    +0.000 C 
ATOM      2  O   UNL     1       2.460   8.782  17.033  0.00  0.00    +0.000 OA
ATOM      3  N   UNL     1       3.433   6.951  17.979  0.00  0.00    +0.000 N 
ATOM      4  H   UNL     1       3.741   6.532  18.850  0.00  0.00    +0.000 HD
ENDROOT
BRANCH   1  10
ATOM      5  C   UNL     1      -1.575  11.508  22.988  0.00  0.00    +0.000 C 
ATOM      6  C   UNL     1      -0.700  10.647  22.161  0.00  0.00    +0.000 A 
ATOM      7  C   UNL     1      -0.169  10.900  20.913  0.00  0.00    +0.000 A 
ATOM      8  N   UNL     1       0.553   9.782  20.581  0.00  0.00    +0.000 N 
ATOM      9  C   UNL     1       1.282   9.505  19.429  0.00  0.00    +0.000 A 
ATOM     10  C   UNL     1       1.916   8.320  19.307  0.00  0.00    +0.000 A 
ATOM     11  C   UNL     1       1.789   7.357  20.404  0.00  0.00    +0.000 A 
ATOM     12  C   UNL     1       1.082   7.640  21.519  0.00  0.00    +0.000 A 
ATOM     13  C   UNL     1       0.429   8.899  21.647  0.00  0.00    +0.000 A 
ATOM     14  N   UNL     1      -0.316   9.406  22.608  0.00  0.00    +0.000 NA
ENDBRANCH   1  10
BRANCH   3  15
ATOM     15  C   UNL     1       4.233   6.600  16.808  0.00  0.00    +0.000 C 
BRANCH  15  16
ATOM     16  C   UNL     1       4.911   5.228  16.909  0.00  0.00    +0.000 C 
BRANCH  16  17
ATOM     17  C   UNL     1       4.116   4.269  17.744  0.00  0.00    +0.000 A 
ATOM     18  N   UNL     1       2.861   3.921  17.484  0.00  0.00    +0.000 NA
ATOM     19  C   UNL     1       2.348   3.363  18.611  0.00  0.00    +0.000 A 
ATOM     20  C   UNL     1       3.203   3.232  19.674  0.00  0.00    +0.000 A 
ATOM     21  S   UNL     1       4.749   3.746  19.285  0.00  0.00    +0.000 S 
ATOM     22  C   UNL     1       2.488   3.097  20.966  0.00  0.00    +0.000 C 
ATOM     23  C   UNL     1       1.136   3.771  20.553  0.00  0.00    +0.000 C 
ATOM     24  C   UNL     1       0.933   3.358  19.060  0.00  0.00    +0.000 C 
ENDBRANCH  16  17
ENDBRANCH  15  16
ENDBRANCH   3  15
TORSDOF 4
ENDMDL
MODEL 6
REMARK VINA RESULT:      -7.2      0.958      1.613
REMARK  Name = 
REMARK  5 active torsions:
REMARK  status: ('A' for Active; 'I' for Inactive)
REMARK    1  A    between atoms: C_1  and  C_2
REMARK    2  A    between atoms: C_6  and  C_7
REMARK    3  A    between atoms: N_9  and  C_10
REMARK    4  A    between atoms: C_10  and  C_11
REMARK    5  A    between atoms: C_11  and  C_12
REMARK                            x       y       z     vdW  Elec       q    Type
REMARK                         _______ _______ _______ _____ _____    ______ ____
ROOT
ATOM      1  C   UNL     1       3.643   6.204  18.850  0.00  0.00    +0.000 C 
ATOM      2  O   UNL     1       4.339   5.555  19.626  0.00  0.00    +0.000 OA
ATOM      3  N   UNL     1       3.714   6.041  17.489  0.00  0.00    +0.000 N 
ATOM      4  H   UNL     1       2.962   6.386  16.903  0.00  0.00    +0.000 HD
ENDROOT
BRANCH   1  10
ATOM      5  C   UNL     1      -1.002  11.921  18.711  0.00  0.00    +0.000 C 
ATOM      6  C   UNL     1      -0.129  10.755  18.974  0.00  0.00    +0.000 A 
ATOM      7  C   UNL     1       0.808  10.173  18.145  0.00  0.00    +0.000 A 
ATOM      8  N   UNL     1       1.326   9.117  18.851  0.00  0.00    +0.000 N 
ATOM      9  C   UNL     1       2.298   8.193  18.481  0.00  0.00    +0.000 A 
ATOM     10  C   UNL     1       2.654   7.217  19.342  0.00  0.00    +0.000 A 
ATOM     11  C   UNL     1       1.978   7.165  20.641  0.00  0.00    +0.000 A 
ATOM     12  C   UNL     1       1.041   8.073  20.990  0.00  0.00    +0.000 A 
ATOM     13  C   UNL     1       0.681   9.109  20.082  0.00  0.00    +0.000 A 
ATOM     14  N   UNL     1      -0.193  10.091  20.175  0.00  0.00    +0.000 NA
ENDBRANCH   1  10
BRANCH   3  15
ATOM     15  C   UNL     1       4.578   5.043  16.862  0.00  0.00    +0.000 C 
BRANCH  15  16
ATOM     16  C   UNL     1       3.838   3.779  16.408  0.00  0.00    +0.000 C 
BRANCH  16  17
ATOM     17  C   UNL     1       3.011   3.187  17.511  0.00  0.00    +0.000 A 
ATOM     18  N   UNL     1       1.781   3.584  17.814  0.00  0.00    +0.000 NA
ATOM     19  C   UNL     1       1.494   3.117  19.057  0.00  0.00    +0.000 A 
ATOM     20  C   UNL     1       2.450   2.339  19.656  0.00  0.00    +0.000 A 
ATOM     21  S   UNL     1       3.756   2.082  18.640  0.00  0.00    +0.000 S 
ATOM     22  C   UNL     1       2.302   2.290  21.130  0.00  0.00    +0.000 C 
ATOM     23  C   UNL     1       1.505   3.624  21.326  0.00  0.00    +0.000 C 
ATOM     24  C   UNL     1       0.586   3.719  20.066  0.00  0.00    +0.000 C 
ENDBRANCH  16  17
ENDBRANCH  15  16
ENDBRANCH   3  15
TORSDOF 4
ENDMDL
MODEL 7
REMARK VINA RESULT:      -7.1      2.029      3.716
REMARK  Name = 
REMARK  5 active torsions:
REMARK  status: ('A' for Active; 'I' for Inactive)
REMARK    1  A    between atoms: C_1  and  C_2
REMARK    2  A    between atoms: C_6  and  C_7
REMARK    3  A    between atoms: N_9  and  C_10
REMARK    4  A    between atoms: C_10  and  C_11
REMARK    5  A    between atoms: C_11  and  C_12
REMARK                            x       y       z     vdW  Elec       q    Type
REMARK                         _______ _______ _______ _____ _____    ______ ____
ROOT
ATOM      1  C   UNL     1       3.057   6.087  18.950  0.00  0.00    +0.000 C 
ATOM      2  O   UNL     1       4.142   5.916  19.499  0.00  0.00    +0.000 OA
ATOM      3  N   UNL     1       2.481   5.131  18.151  0.00  0.00    +0.000 N 
ATOM      4  H   UNL     1       1.492   5.188  17.933  0.00  0.00    +0.000 HD
ENDROOT
BRANCH   1  10
ATOM      5  C   UNL     1      -0.624  11.493  22.343  0.00  0.00    +0.000 C 
ATOM      6  C   UNL     1       0.070  10.531  21.457  0.00  0.00    +0.000 A 
ATOM      7  C   UNL     1       0.592   9.292  21.768  0.00  0.00    +0.000 A 
ATOM      8  N   UNL     1       1.142   8.816  20.605  0.00  0.00    +0.000 N 
ATOM      9  C   UNL     1       1.805   7.618  20.361  0.00  0.00    +0.000 A 
ATOM     10  C   UNL     1       2.279   7.356  19.125  0.00  0.00    +0.000 A 
ATOM     11  C   UNL     1       2.086   8.370  18.085  0.00  0.00    +0.000 A 
ATOM     12  C   UNL     1       1.436   9.527  18.334  0.00  0.00    +0.000 A 
ATOM     13  C   UNL     1       0.924   9.790  19.637  0.00  0.00    +0.000 A 
ATOM     14  N   UNL     1       0.276  10.825  20.131  0.00  0.00    +0.000 NA
ENDBRANCH   1  10
BRANCH   3  15
ATOM     15  C   UNL     1       3.083   3.816  17.942  0.00  0.00    +0.000 C 
BRANCH  15  16
ATOM     16  C   UNL     1       3.828   3.680  16.608  0.00  0.00    +0.000 C 
BRANCH  16  17
ATOM     17  C   UNL     1       5.177   4.334  16.649  0.00  0.00    +0.000 A 
ATOM     18  N   UNL     1       6.183   3.915  17.407  0.00  0.00    +0.000 NA
ATOM     19  C   UNL     1       7.088   4.926  17.483  0.00  0.00    +0.000 A 
ATOM     20  C   UNL     1       6.809   6.054  16.756  0.00  0.00    +0.000 A 
ATOM     21  S   UNL     1       5.406   5.875  15.860  0.00  0.00    +0.000 S 
ATOM     22  C   UNL     1       7.533   7.247  17.257  0.00  0.00    +0.000 C 
ATOM     23  C   UNL     1       7.785   6.763  18.726  0.00  0.00    +0.000 C 
ATOM     24  C   UNL     1       8.024   5.225  18.595  0.00  0.00    +0.000 C 
ENDBRANCH  16  17
ENDBRANCH  15  16
ENDBRANCH   3  15
TORSDOF 4
ENDMDL
MODEL 8
REMARK VINA RESULT:      -7.0      3.783      7.626
REMARK  Name = 
REMARK  5 active torsions:
REMARK  status: ('A' for Active; 'I' for Inactive)
REMARK    1  A    between atoms: C_1  and  C_2
REMARK    2  A    between atoms: C_6  and  C_7
REMARK    3  A    between atoms: N_9  and  C_10
REMARK    4  A    between atoms: C_10  and  C_11
REMARK    5  A    between atoms: C_11  and  C_12
REMARK                            x       y       z     vdW  Elec       q    Type
REMARK                         _______ _______ _______ _____ _____    ______ ____
ROOT
ATOM      1  C   UNL     1       1.545   8.297  20.361  0.00  0.00    +0.000 C 
ATOM      2  O   UNL     1       1.235   8.150  21.540  0.00  0.00    +0.000 OA
ATOM      3  N   UNL     1       1.313   9.468  19.683  0.00  0.00    +0.000 N 
ATOM      4  H   UNL     1       1.806   9.652  18.816  0.00  0.00    +0.000 HD
ENDROOT
BRANCH   1  10
ATOM      5  C   UNL     1       3.612   1.495  18.431  0.00  0.00    +0.000 C 
ATOM      6  C   UNL     1       3.326   2.934  18.626  0.00  0.00    +0.000 A 
ATOM      7  C   UNL     1       2.691   3.552  19.683  0.00  0.00    +0.000 A 
ATOM      8  N   UNL     1       2.664   4.888  19.372  0.00  0.00    +0.000 N 
ATOM      9  C   UNL     1       2.134   5.956  20.088  0.00  0.00    +0.000 A 
ATOM     10  C   UNL     1       2.210   7.205  19.581  0.00  0.00    +0.000 A 
ATOM     11  C   UNL     1       2.844   7.378  18.271  0.00  0.00    +0.000 A 
ATOM     12  C   UNL     1       3.360   6.332  17.590  0.00  0.00    +0.000 A 
ATOM     13  C   UNL     1       3.289   5.020  18.138  0.00  0.00    +0.000 A 
ATOM     14  N   UNL     1       3.699   3.855  17.678  0.00  0.00    +0.000 NA
ENDBRANCH   1  10
BRANCH   3  15
ATOM     15  C   UNL     1       0.736  10.647  20.327  0.00  0.00    +0.000 C 
BRANCH  15  16
ATOM     16  C   UNL     1       0.098  11.639  19.347  0.00  0.00    +0.000 C 
BRANCH  16  17
ATOM     17  C   UNL     1      -1.136  11.077  18.704  0.00  0.00    +0.000 A 
ATOM     18  N   UNL     1      -1.125  10.110  17.794  0.00  0.00    +0.000 NA
ATOM     19  C   UNL     1      -2.333  10.119  17.172  0.00  0.00    +0.000 A 
ATOM     20  C   UNL     1      -3.254  11.021  17.635  0.00  0.00    +0.000 A 
ATOM     21  S   UNL     1      -2.669  11.874  18.952  0.00  0.00    +0.000 S 
ATOM     22  C   UNL     1      -4.311  11.318  16.638  0.00  0.00    +0.000 C 
ATOM     23  C   UNL     1      -3.523  10.921  15.343  0.00  0.00    +0.000 C 
ATOM     24  C   UNL     1      -2.640   9.708  15.779  0.00  0.00    +0.000 C 
ENDBRANCH  16  17
ENDBRANCH  15  16
ENDBRANCH   3  15
TORSDOF 4
ENDMDL
MODEL 9
REMARK VINA RESULT:      -7.0      3.893      7.401
REMARK  Name = 
REMARK  5 active torsions:
REMARK  status: ('A' for Active; 'I' for Inactive)
REMARK    1  A    between atoms: C_1  and  C_2
REMARK    2  A    between atoms: C_6  and  C_7
REMARK    3  A    between atoms: N_9  and  C_10
REMARK    4  A    between atoms: C_10  and  C_11
REMARK    5  A    between atoms: C_11  and  C_12
REMARK                            x       y       z     vdW  Elec       q    Type
REMARK                         _______ _______ _______ _____ _____    ______ ____
ROOT
ATOM      1  C   UNL     1       2.064   9.132  18.314  0.00  0.00    +0.000 C 
ATOM      2  O   UNL     1       2.313   9.682  17.245  0.00  0.00    +0.000 OA
ATOM      3  N   UNL     1       1.397   9.770  19.330  0.00  0.00    +0.000 N 
ATOM      4  H   UNL     1       0.980   9.225  20.077  0.00  0.00    +0.000 HD
ENDROOT
BRANCH   1  10
ATOM      5  C   UNL     1       2.296   2.542  21.600  0.00  0.00    +0.000 C 
ATOM      6  C   UNL     1       2.413   3.772  20.786  0.00  0.00    +0.000 A 
ATOM      7  C   UNL     1       1.878   5.021  21.027  0.00  0.00    +0.000 A 
ATOM      8  N   UNL     1       2.262   5.802  19.966  0.00  0.00    +0.000 N 
ATOM      9  C   UNL     1       1.988   7.141  19.704  0.00  0.00    +0.000 A 
ATOM     10  C   UNL     1       2.466   7.713  18.579  0.00  0.00    +0.000 A 
ATOM     11  C   UNL     1       3.250   6.879  17.663  0.00  0.00    +0.000 A 
ATOM     12  C   UNL     1       3.513   5.583  17.933  0.00  0.00    +0.000 A 
ATOM     13  C   UNL     1       3.018   4.990  19.130  0.00  0.00    +0.000 A 
ATOM     14  N   UNL     1       3.123   3.768  19.611  0.00  0.00    +0.000 NA
ENDBRANCH   1  10
BRANCH   3  15
ATOM     15  C   UNL     1       0.879  11.130  19.196  0.00  0.00    +0.000 C 
BRANCH  15  16
ATOM     16  C   UNL     1      -0.469  11.352  19.892  0.00  0.00    +0.000 C 
BRANCH  16  17
ATOM     17  C   UNL     1      -1.621  10.908  19.040  0.00  0.00    +0.000 A 
ATOM     18  N   UNL     1      -1.551   9.926  18.149  0.00  0.00    +0.000 NA
ATOM     19  C   UNL     1      -2.621  10.047  17.321  0.00  0.00    +0.000 A 
ATOM     20  C   UNL     1      -3.510  11.049  17.609  0.00  0.00    +0.000 A 
ATOM     21  S   UNL     1      -3.081  11.864  19.008  0.00  0.00    +0.000 S 
ATOM     22  C   UNL     1      -4.334  11.433  16.438  0.00  0.00    +0.000 C 
ATOM     23  C   UNL     1      -3.375  10.930  15.306  0.00  0.00    +0.000 C 
ATOM     24  C   UNL     1      -2.717   9.641  15.896  0.00  0.00    +0.000 C 
ENDBRANCH  16  17
ENDBRANCH  15  16
ENDBRANCH   3  15
TORSDOF 4
ENDMDL
