MODEL 1
REMARK VINA RESULT:      -6.0      0.000      0.000
REMARK  Name = 
REMARK  1 active torsions:
REMARK  status: ('A' for Active; 'I' for Inactive)
REMARK    1  A    between atoms: C_4  and  C_5
REMARK                            x       y       z     vdW  Elec       q    Type
REMARK                         _______ _______ _______ _____ _____    ______ ____
ROOT
ATOM      1  C   UNL     1       5.527   5.650  16.064  0.00  0.00    +0.000 A 
ATOM      2  C   UNL     1       4.857   6.611  16.818  0.00  0.00    +0.000 A 
ATOM      3  C   UNL     1       3.749   6.250  17.590  0.00  0.00    +0.000 A 
ATOM      4  C   UNL     1       3.294   4.925  17.616  0.00  0.00    +0.000 A 
ATOM      5  C   UNL     1       3.990   3.967  16.862  0.00  0.00    +0.000 A 
ATOM      6  C   UNL     1       5.096   4.327  16.091  0.00  0.00    +0.000 A 
ENDROOT
BRANCH   4   7
ATOM      7  C   UNL     1       2.065   4.565  18.418  0.00  0.00    +0.000 C 
ATOM      8  C   UNL     1       1.705   3.079  18.351  0.00  0.00    +0.000 C 
ATOM      9  C   UNL     1       0.733   2.885  19.507  0.00  0.00    +0.000 C 
ATOM     10  C   UNL     1       1.122   3.922  20.560  0.00  0.00    +0.000 C 
ATOM     11  C   UNL     1       2.179   4.822  19.923  0.00  0.00    +0.000 C 
ENDBRANCH   4   7
TORSDOF 1
ENDMDL
MODEL 2
REMARK VINA RESULT:      -5.9      0.103      1.455
REMARK  Name = 
REMARK  1 active torsions:
REMARK  status: ('A' for Active; 'I' for Inactive)
REMARK    1  A    between atoms: C_4  and  C_5
REMARK                            x       y       z     vdW  Elec       q    Type
REMARK                         _______ _______ _______ _____ _____    ______ ____
ROOT
ATOM      1  C   UNL     1       5.651   5.601  16.229  0.00  0.00    +0.000 A 
ATOM      2  C   UNL     1       5.197   4.284  16.240  0.00  0.00    +0.000 A 
ATOM      3  C   UNL     1       4.025   3.952  16.924  0.00  0.00    +0.000 A 
ATOM      4  C   UNL     1       3.292   4.931  17.609  0.00  0.00    +0.000 A 
ATOM      5  C   UNL     1       3.756   6.255  17.575  0.00  0.00    +0.000 A 
ATOM      6  C   UNL     1       4.927   6.587  16.892  0.00  0.00    +0.000 A 
ENDROOT
BRANCH   4   7
ATOM      7  C   UNL     1       2.054   4.543  18.383  0.00  0.00    +0.000 C 
ATOM      8  C   UNL     1       1.758   3.042  18.349  0.00  0.00    +0.000 C 
ATOM      9  C   UNL     1       0.759   2.839  19.480  0.00  0.00    +0.000 C 
ATOM     10  C   UNL     1       1.071   3.921  20.513  0.00  0.00    +0.000 C 
ATOM     11  C   UNL     1       2.109   4.846  19.883  0.00  0.00    +0.000 C 
ENDBRANCH   4   7
TORSDOF 1
ENDMDL
MODEL 3
REMARK VINA RESULT:      -5.9      0.577      4.831
REMARK  Name = 
REMARK  1 active torsions:
REMARK  status: ('A' for Active; 'I' for Inactive)
REMARK    1  A    between atoms: C_4  and  C_5
REMARK                            x       y       z     vdW  Elec       q    Type
REMARK                         _______ _______ _______ _____ _____    ______ ____
ROOT
ATOM      1  C   UNL     1       1.150   3.255  20.909  0.00  0.00    +0.000 A 
ATOM      2  C   UNL     1       0.855   2.873  19.602  0.00  0.00    +0.000 A 
ATOM      3  C   UNL     1       1.531   3.461  18.530  0.00  0.00    +0.000 A 
ATOM      4  C   UNL     1       2.508   4.442  18.749  0.00  0.00    +0.000 A 
ATOM      5  C   UNL     1       2.803   4.804  20.072  0.00  0.00    +0.000 A 
ATOM      6  C   UNL     1       2.128   4.217  21.143  0.00  0.00    +0.000 A 
ENDROOT
BRANCH   4   7
ATOM      7  C   UNL     1       3.191   5.101  17.573  0.00  0.00    +0.000 C 
ATOM      8  C   UNL     1       3.893   6.413  17.932  0.00  0.00    +0.000 C 
ATOM      9  C   UNL     1       4.816   6.670  16.749  0.00  0.00    +0.000 C 
ATOM     10  C   UNL     1       5.179   5.293  16.193  0.00  0.00    +0.000 C 
ATOM     11  C   UNL     1       4.313   4.277  16.935  0.00  0.00    +0.000 C 
ENDBRANCH   4   7
TORSDOF 1
ENDMDL
MODEL 4
REMARK VINA RESULT:      -5.8      0.485      1.938
REMARK  Name = 
REMARK  1 active torsions:
REMARK  status: ('A' for Active; 'I' for Inactive)
REMARK    1  A    between atoms: C_4  and  C_5
REMARK                            x       y       z     vdW  Elec       q    Type
REMARK                         _______ _______ _______ _____ _____    ______ ____
ROOT
ATOM      1  C   UNL     1       5.343   5.954  15.821  0.00  0.00    +0.000 A 
ATOM      2  C   UNL     1       5.219   4.567  15.787  0.00  0.00    +0.000 A 
ATOM      3  C   UNL     1       4.401   3.912  16.711  0.00  0.00    +0.000 A 
ATOM      4  C   UNL     1       3.698   4.635  17.685  0.00  0.00    +0.000 A 
ATOM      5  C   UNL     1       3.823   6.033  17.695  0.00  0.00    +0.000 A 
ATOM      6  C   UNL     1       4.640   6.687  16.772  0.00  0.00    +0.000 A 
ENDROOT
BRANCH   4   7
ATOM      7  C   UNL     1       2.857   3.904  18.706  0.00  0.00    +0.000 C 
ATOM      8  C   UNL     1       1.991   4.832  19.561  0.00  0.00    +0.000 C 
ATOM      9  C   UNL     1       0.973   3.898  20.200  0.00  0.00    +0.000 C 
ATOM     10  C   UNL     1       0.787   2.743  19.215  0.00  0.00    +0.000 C 
ATOM     11  C   UNL     1       1.835   2.926  18.119  0.00  0.00    +0.000 C 
ENDBRANCH   4   7
TORSDOF 1
ENDMDL
MODEL 5
REMARK VINA RESULT:      -5.8      1.871      4.605
REMARK  Name = 
REMARK  1 active torsions:
REMARK  status: ('A' for Active; 'I' for Inactive)
REMARK    1  A    between atoms: C_4  and  C_5
REMARK                            x       y       z     vdW  Elec       q    Type
REMARK                         _______ _______ _______ _____ _____    ______ ____
ROOT
ATOM      1  C   UNL     1       1.720   4.208  17.722  0.00  0.00    +0.000 A 
ATOM      2  C   UNL     1       2.103   5.481  18.140  0.00  0.00    +0.000 A 
ATOM      3  C   UNL     1       3.442   5.873  18.057  0.00  0.00    +0.000 A 
ATOM      4  C   UNL     1       4.416   4.997  17.560  0.00  0.00    +0.000 A 
ATOM      5  C   UNL     1       4.011   3.725  17.129  0.00  0.00    +0.000 A 
ATOM      6  C   UNL     1       2.673   3.333  17.211  0.00  0.00    +0.000 A 
ENDROOT
BRANCH   4   7
ATOM      7  C   UNL     1       5.866   5.423  17.526  0.00  0.00    +0.000 C 
ATOM      8  C   UNL     1       6.065   6.878  17.095  0.00  0.00    +0.000 C 
ATOM      9  C   UNL     1       7.494   7.192  17.514  0.00  0.00    +0.000 C 
ATOM     10  C   UNL     1       7.778   6.309  18.730  0.00  0.00    +0.000 C 
ATOM     11  C   UNL     1       6.587   5.364  18.875  0.00  0.00    +0.000 C 
ENDBRANCH   4   7
TORSDOF 1
ENDMDL
MODEL 6
REMARK VINA RESULT:      -5.8      0.491      4.647
REMARK  Name = 
REMARK  1 active torsions:
REMARK  status: ('A' for Active; 'I' for Inactive)
REMARK    1  A    between atoms: C_4  and  C_5
REMARK                            x       y       z     vdW  Elec       q    Type
REMARK                         _______ _______ _______ _____ _____    ______ ____
ROOT
ATOM      1  C   UNL     1       0.895   3.153  20.557  0.00  0.00    +0.000 A 
ATOM      2  C   UNL     1       1.580   4.335  20.830  0.00  0.00    +0.000 A 
ATOM      3  C   UNL     1       2.308   4.973  19.823  0.00  0.00    +0.000 A 
ATOM      4  C   UNL     1       2.366   4.436  18.530  0.00  0.00    +0.000 A 
ATOM      5  C   UNL     1       1.658   3.252  18.269  0.00  0.00    +0.000 A 
ATOM      6  C   UNL     1       0.930   2.615  19.275  0.00  0.00    +0.000 A 
ENDROOT
BRANCH   4   7
ATOM      7  C   UNL     1       3.199   5.114  17.468  0.00  0.00    +0.000 C 
ATOM      8  C   UNL     1       3.874   6.401  17.950  0.00  0.00    +0.000 C 
ATOM      9  C   UNL     1       4.940   6.673  16.898  0.00  0.00    +0.000 C 
ATOM     10  C   UNL     1       5.344   5.305  16.347  0.00  0.00    +0.000 C 
ATOM     11  C   UNL     1       4.377   4.286  16.945  0.00  0.00    +0.000 C 
ENDBRANCH   4   7
TORSDOF 1
ENDMDL
MODEL 7
REMARK VINA RESULT:      -5.8      2.016      3.013
REMARK  Name = 
REMARK  1 active torsions:
REMARK  status: ('A' for Active; 'I' for Inactive)
REMARK    1  A    between atoms: C_4  and  C_5
REMARK                            x       y       z     vdW  Elec       q    Type
REMARK                         _______ _______ _______ _____ _____    ______ ____
ROOT
ATOM      1  C   UNL     1       7.907   6.877  18.351  0.00  0.00    +0.000 A 
ATOM      2  C   UNL     1       7.489   5.699  18.966  0.00  0.00    +0.000 A 
ATOM      3  C   UNL     1       6.288   5.096  18.585  0.00  0.00    +0.000 A 
ATOM      4  C   UNL     1       5.485   5.664  17.587  0.00  0.00    +0.000 A 
ATOM      5  C   UNL     1       5.929   6.843  16.967  0.00  0.00    +0.000 A 
ATOM      6  C   UNL     1       7.129   7.446  17.348  0.00  0.00    +0.000 A 
ENDROOT
BRANCH   4   7
ATOM      7  C   UNL     1       4.166   5.024  17.224  0.00  0.00    +0.000 C 
ATOM      8  C   UNL     1       4.080   3.544  17.606  0.00  0.00    +0.000 C 
ATOM      9  C   UNL     1       2.592   3.232  17.531  0.00  0.00    +0.000 C 
ATOM     10  C   UNL     1       1.872   4.541  17.854  0.00  0.00    +0.000 C 
ATOM     11  C   UNL     1       2.943   5.628  17.920  0.00  0.00    +0.000 C 
ENDBRANCH   4   7
TORSDOF 1
ENDMDL
MODEL 8
REMARK VINA RESULT:      -5.7      0.598      4.512
REMARK  Name = 
REMARK  1 active torsions:
REMARK  status: ('A' for Active; 'I' for Inactive)
REMARK    1  A    between atoms: C_4  and  C_5
REMARK                            x       y       z     vdW  Elec       q    Type
REMARK                         _______ _______ _______ _____ _____    ______ ____
ROOT
ATOM      1  C   UNL     1       0.696   3.178  20.036  0.00  0.00    +0.000 A 
ATOM      2  C   UNL     1       1.277   4.342  20.533  0.00  0.00    +0.000 A 
ATOM      3  C   UNL     1       2.353   4.931  19.865  0.00  0.00    +0.000 A 
ATOM      4  C   UNL     1       2.867   4.362  18.692  0.00  0.00    +0.000 A 
ATOM      5  C   UNL     1       2.260   3.197  18.196  0.00  0.00    +0.000 A 
ATOM      6  C   UNL     1       1.185   2.609  18.864  0.00  0.00    +0.000 A 
ENDROOT
BRANCH   4   7
ATOM      7  C   UNL     1       4.063   4.986  18.011  0.00  0.00    +0.000 C 
ATOM      8  C   UNL     1       4.465   4.281  16.714  0.00  0.00    +0.000 C 
ATOM      9  C   UNL     1       5.381   5.281  16.022  0.00  0.00    +0.000 C 
ATOM     10  C   UNL     1       4.912   6.663  16.476  0.00  0.00    +0.000 C 
ATOM     11  C   UNL     1       3.866   6.438  17.565  0.00  0.00    +0.000 C 
ENDBRANCH   4   7
TORSDOF 1
ENDMDL
MODEL 9
REMARK VINA RESULT:      -5.7      0.779      1.466
REMARK  Name = 
REMARK  1 active torsions:
REMARK  status: ('A' for Active; 'I' for Inactive)
REMARK    1  A    between atoms: C_4  and  C_5
REMARK                            x       y       z     vdW  Elec       q    Type
REMARK                         _______ _______ _______ _____ _____    ______ ____
ROOT
ATOM      1  C   UNL     1       5.482   5.611  15.385  0.00  0.00    +0.000 A 
ATOM      2  C   UNL     1       4.976   6.556  16.275  0.00  0.00    +0.000 A 
ATOM      3  C   UNL     1       4.266   6.146  17.406  0.00  0.00    +0.000 A 
ATOM      4  C   UNL     1       4.048   4.785  17.662  0.00  0.00    +0.000 A 
ATOM      5  C   UNL     1       4.578   3.846  16.763  0.00  0.00    +0.000 A 
ATOM      6  C   UNL     1       5.287   4.256  15.633  0.00  0.00    +0.000 A 
ENDROOT
BRANCH   4   7
ATOM      7  C   UNL     1       3.236   4.365  18.864  0.00  0.00    +0.000 C 
ATOM      8  C   UNL     1       2.842   5.530  19.774  0.00  0.00    +0.000 C 
ATOM      9  C   UNL     1       1.734   4.957  20.647  0.00  0.00    +0.000 C 
ATOM     10  C   UNL     1       1.049   3.882  19.802  0.00  0.00    +0.000 C 
ATOM     11  C   UNL     1       1.887   3.717  18.536  0.00  0.00    +0.000 C 
ENDBRANCH   4   7
TORSDOF 1
ENDMDL
