MODEL 1
REMARK VINA RESULT:      -8.4      0.000      0.000
REMARK  Name = 
REMARK  7 active torsions:
REMARK  status: ('A' for Active; 'I' for Inactive)
REMARK    1  A    between atoms: C_1  and  C_2
REMARK    2  A    between atoms: C_2  and  C_3
REMARK    3  A    between atoms: C_2  and  C_4
REMARK    4  A    between atoms: C_4  and  C_5
REMARK    5  A    between atoms: C_5  and  N_6
REMARK    6  A    between atoms: C_7  and  C_9
REMARK    7  A    between atoms: N_17  and  C_18
REMARK                            x       y       z     vdW  Elec       q    Type
REMARK                         _______ _______ _______ _____ _____    ______ ____
ROOT
ATOM      1  C   UNL     1       5.417   5.033  15.867  0.00  0.00    +0.000 A 
ATOM      2  C   UNL     1       4.769   3.806  16.074  0.00  0.00    +0.000 A 
ATOM      3  C   UNL     1       3.707   3.675  16.983  0.00  0.00    +0.000 A 
ATOM      4  C   UNL     1       3.324   4.822  17.685  0.00  0.00    +0.000 A 
ATOM      5  C   UNL     1       3.965   6.049  17.497  0.00  0.00    +0.000 A 
ATOM      6  C   UNL     1       5.027   6.165  16.591  0.00  0.00    +0.000 A 
ATOM      7  N   UNL     1       3.417   7.019  18.286  0.00  0.00    +0.000 NA
ATOM      8  C   UNL     1       2.458   6.417  18.947  0.00  0.00    +0.000 A 
ATOM      9  N   UNL     1       2.356   5.086  18.637  0.00  0.00    +0.000 N 
ENDROOT
BRANCH   9  10
ATOM     10  C   UNL     1       1.399   4.128  19.189  0.00  0.00    +0.000 C 
ATOM     11  C   UNL     1       1.790   2.656  18.988  0.00  0.00    +0.000 C 
ATOM     12  C   UNL     1       2.885   2.165  19.932  0.00  0.00    +0.000 C 
ATOM     13  C   UNL     1       2.654   2.543  21.395  0.00  0.00    +0.000 C 
ATOM     14  C   UNL     1       2.134   3.959  21.638  0.00  0.00    +0.000 C 
ATOM     15  C   UNL     1       1.044   4.388  20.660  0.00  0.00    +0.000 C 
ENDBRANCH   9  10
BRANCH   1  17
ATOM     16  N   UNL     1       6.347   4.423  13.689  0.00  0.00    +0.000 N 
ATOM     17  C   UNL     1       6.536   5.082  14.887  0.00  0.00    +0.000 C 
ATOM     18  O   UNL     1       7.577   5.661  15.180  0.00  0.00    +0.000 OA
ATOM     19  H   UNL     1       5.543   3.820  13.571  0.00  0.00    +0.000 HD
BRANCH  16  20
ATOM     20  C   UNL     1       7.403   4.339  12.702  0.00  0.00    +0.000 C 
BRANCH  20  21
ATOM     21  C   UNL     1       7.008   3.491  11.489  0.00  0.00    +0.000 C 
BRANCH  21  23
ATOM     22  C   UNL     1       4.524   2.953  11.279  0.00  0.00    +0.000 C 
ATOM     23  C   UNL     1       5.890   2.463  11.758  0.00  0.00    +0.000 C 
ATOM     24  C   UNL     1       6.225   1.132  11.078  0.00  0.00    +0.000 C 
ENDBRANCH  21  23
ENDBRANCH  20  21
ENDBRANCH  16  20
ENDBRANCH   1  17
TORSDOF 5
ENDMDL
MODEL 2
REMARK VINA RESULT:      -8.1      0.931      1.613
REMARK  Name = 
REMARK  7 active torsions:
REMARK  status: ('A' for Active; 'I' for Inactive)
REMARK    1  A    between atoms: C_1  and  C_2
REMARK    2  A    between atoms: C_2  and  C_3
REMARK    3  A    between atoms: C_2  and  C_4
REMARK    4  A    between atoms: C_4  and  C_5
REMARK    5  A    between atoms: C_5  and  N_6
REMARK    6  A    between atoms: C_7  and  C_9
REMARK    7  A    between atoms: N_17  and  C_18
REMARK                            x       y       z     vdW  Elec       q    Type
REMARK                         _______ _______ _______ _____ _____    ______ ____
ROOT
ATOM      1  C   UNL     1       6.035   4.935  15.619  0.00  0.00    +0.000 A 
ATOM      2  C   UNL     1       6.050   3.756  16.381  0.00  0.00    +0.000 A 
ATOM      3  C   UNL     1       5.297   3.627  17.558  0.00  0.00    +0.000 A 
ATOM      4  C   UNL     1       4.533   4.730  17.951  0.00  0.00    +0.000 A 
ATOM      5  C   UNL     1       4.514   5.914  17.210  0.00  0.00    +0.000 A 
ATOM      6  C   UNL     1       5.274   6.032  16.039  0.00  0.00    +0.000 A 
ATOM      7  N   UNL     1       3.696   6.844  17.784  0.00  0.00    +0.000 NA
ATOM      8  C   UNL     1       3.215   6.258  18.854  0.00  0.00    +0.000 A 
ATOM      9  N   UNL     1       3.688   4.983  19.016  0.00  0.00    +0.000 N 
ENDROOT
BRANCH   9  10
ATOM     10  C   UNL     1       3.357   4.055  20.097  0.00  0.00    +0.000 C 
ATOM     11  C   UNL     1       2.087   4.421  20.880  0.00  0.00    +0.000 C 
ATOM     12  C   UNL     1       0.787   4.094  20.149  0.00  0.00    +0.000 C 
ATOM     13  C   UNL     1       0.752   2.689  19.548  0.00  0.00    +0.000 C 
ATOM     14  C   UNL     1       2.043   2.226  18.875  0.00  0.00    +0.000 C 
ATOM     15  C   UNL     1       3.305   2.585  19.654  0.00  0.00    +0.000 C 
ENDBRANCH   9  10
BRANCH   1  17
ATOM     16  N   UNL     1       6.418   4.264  13.300  0.00  0.00    +0.000 N 
ATOM     17  C   UNL     1       6.866   4.989  14.386  0.00  0.00    +0.000 C 
ATOM     18  O   UNL     1       7.911   5.629  14.384  0.00  0.00    +0.000 OA
ATOM     19  H   UNL     1       5.646   3.620  13.411  0.00  0.00    +0.000 HD
BRANCH  16  20
ATOM     20  C   UNL     1       7.193   4.181  12.079  0.00  0.00    +0.000 C 
BRANCH  20  21
ATOM     21  C   UNL     1       7.145   2.789  11.445  0.00  0.00    +0.000 C 
BRANCH  21  23
ATOM     22  C   UNL     1       4.610   2.746  11.160  0.00  0.00    +0.000 C 
ATOM     23  C   UNL     1       5.837   2.010  11.698  0.00  0.00    +0.000 C 
ATOM     24  C   UNL     1       5.922   0.620  11.060  0.00  0.00    +0.000 C 
ENDBRANCH  21  23
ENDBRANCH  20  21
ENDBRANCH  16  20
ENDBRANCH   1  17
TORSDOF 5
ENDMDL
MODEL 3
REMARK VINA RESULT:      -8.0      3.695      5.835
REMARK  Name = 
REMARK  7 active torsions:
REMARK  status: ('A' for Active; 'I' for Inactive)
REMARK    1  A    between atoms: C_1  and  C_2
REMARK    2  A    between atoms: C_2  and  C_3
REMARK    3  A    between atoms: C_2  and  C_4
REMARK    4  A    between atoms: C_4  and  C_5
REMARK    5  A    between atoms: C_5  and  N_6
REMARK    6  A    between atoms: C_7  and  C_9
REMARK    7  A    between atoms: N_17  and  C_18
REMARK                            x       y       z     vdW  Elec       q    Type
REMARK                         _______ _______ _______ _____ _____    ______ ____
ROOT
ATOM      1  C   UNL     1       6.221   6.495  17.615  0.00  0.00    +0.000 A 
ATOM      2  C   UNL     1       6.498   5.179  18.016  0.00  0.00    +0.000 A 
ATOM      3  C   UNL     1       5.474   4.261  18.300  0.00  0.00    +0.000 A 
ATOM      4  C   UNL     1       4.158   4.717  18.175  0.00  0.00    +0.000 A 
ATOM      5  C   UNL     1       3.865   6.025  17.786  0.00  0.00    +0.000 A 
ATOM      6  C   UNL     1       4.896   6.933  17.511  0.00  0.00    +0.000 A 
ATOM      7  N   UNL     1       2.517   6.235  17.731  0.00  0.00    +0.000 NA
ATOM      8  C   UNL     1       1.981   5.088  18.073  0.00  0.00    +0.000 A 
ATOM      9  N   UNL     1       2.918   4.132  18.363  0.00  0.00    +0.000 N 
ENDROOT
BRANCH   9  10
ATOM     10  C   UNL     1       2.665   2.752  18.776  0.00  0.00    +0.000 C 
ATOM     11  C   UNL     1       3.444   2.311  20.024  0.00  0.00    +0.000 C 
ATOM     12  C   UNL     1       2.879   2.849  21.336  0.00  0.00    +0.000 C 
ATOM     13  C   UNL     1       1.365   2.684  21.470  0.00  0.00    +0.000 C 
ATOM     14  C   UNL     1       0.554   2.982  20.210  0.00  0.00    +0.000 C 
ATOM     15  C   UNL     1       1.174   2.420  18.934  0.00  0.00    +0.000 C 
ENDBRANCH   9  10
BRANCH   1  17
ATOM     16  N   UNL     1       7.433   8.567  18.078  0.00  0.00    +0.000 N 
ATOM     17  C   UNL     1       7.366   7.403  17.338  0.00  0.00    +0.000 C 
ATOM     18  O   UNL     1       8.173   7.115  16.461  0.00  0.00    +0.000 OA
ATOM     19  H   UNL     1       6.651   8.835  18.662  0.00  0.00    +0.000 HD
BRANCH  16  20
ATOM     20  C   UNL     1       8.459   9.558  17.830  0.00  0.00    +0.000 C 
BRANCH  20  21
ATOM     21  C   UNL     1       9.173   9.999  19.110  0.00  0.00    +0.000 C 
BRANCH  21  23
ATOM     22  C   UNL     1      10.636  11.731  20.280  0.00  0.00    +0.000 C 
ATOM     23  C   UNL     1       9.777  11.417  19.055  0.00  0.00    +0.000 C 
ATOM     24  C   UNL     1      10.617  11.582  17.785  0.00  0.00    +0.000 C 
ENDBRANCH  21  23
ENDBRANCH  20  21
ENDBRANCH  16  20
ENDBRANCH   1  17
TORSDOF 5
ENDMDL
MODEL 4
REMARK VINA RESULT:      -7.7      4.327      7.748
REMARK  Name = 
REMARK  7 active torsions:
REMARK  status: ('A' for Active; 'I' for Inactive)
REMARK    1  A    between atoms: C_1  and  C_2
REMARK    2  A    between atoms: C_2  and  C_3
REMARK    3  A    between atoms: C_2  and  C_4
REMARK    4  A    between atoms: C_4  and  C_5
REMARK    5  A    between atoms: C_5  and  N_6
REMARK    6  A    between atoms: C_7  and  C_9
REMARK    7  A    between atoms: N_17  and  C_18
REMARK                            x       y       z     vdW  Elec       q    Type
REMARK                         _______ _______ _______ _____ _____    ______ ____
ROOT
ATOM      1  C   UNL     1       1.491   9.079  19.161  0.00  0.00    +0.000 A 
ATOM      2  C   UNL     1       1.258   8.323  20.320  0.00  0.00    +0.000 A 
ATOM      3  C   UNL     1       1.808   7.043  20.491  0.00  0.00    +0.000 A 
ATOM      4  C   UNL     1       2.597   6.544  19.449  0.00  0.00    +0.000 A 
ATOM      5  C   UNL     1       2.831   7.279  18.285  0.00  0.00    +0.000 A 
ATOM      6  C   UNL     1       2.271   8.553  18.125  0.00  0.00    +0.000 A 
ATOM      7  N   UNL     1       3.629   6.591  17.417  0.00  0.00    +0.000 NA
ATOM      8  C   UNL     1       3.889   5.457  18.022  0.00  0.00    +0.000 A 
ATOM      9  N   UNL     1       3.288   5.362  19.249  0.00  0.00    +0.000 N 
ENDROOT
BRANCH   9  10
ATOM     10  C   UNL     1       3.369   4.238  20.181  0.00  0.00    +0.000 C 
ATOM     11  C   UNL     1       2.058   3.933  20.922  0.00  0.00    +0.000 C 
ATOM     12  C   UNL     1       1.017   3.206  20.075  0.00  0.00    +0.000 C 
ATOM     13  C   UNL     1       1.575   2.011  19.302  0.00  0.00    +0.000 C 
ATOM     14  C   UNL     1       2.945   2.222  18.658  0.00  0.00    +0.000 C 
ATOM     15  C   UNL     1       3.937   2.957  19.554  0.00  0.00    +0.000 C 
ENDBRANCH   9  10
BRANCH   1  17
ATOM     16  N   UNL     1      -0.423  10.553  19.540  0.00  0.00    +0.000 N 
ATOM     17  C   UNL     1       0.866  10.425  19.060  0.00  0.00    +0.000 C 
ATOM     18  O   UNL     1       1.483  11.346  18.536  0.00  0.00    +0.000 OA
ATOM     19  H   UNL     1      -0.944   9.726  19.802  0.00  0.00    +0.000 HD
BRANCH  16  20
ATOM     20  C   UNL     1      -1.153  11.797  19.414  0.00  0.00    +0.000 C 
BRANCH  20  21
ATOM     21  C   UNL     1      -2.036  11.837  18.165  0.00  0.00    +0.000 C 
BRANCH  21  23
ATOM     22  C   UNL     1      -4.287  10.687  17.822  0.00  0.00    +0.000 C 
ATOM     23  C   UNL     1      -2.768  10.516  17.851  0.00  0.00    +0.000 C 
ATOM     24  C   UNL     1      -2.290   9.957  16.507  0.00  0.00    +0.000 C 
ENDBRANCH  21  23
ENDBRANCH  20  21
ENDBRANCH  16  20
ENDBRANCH   1  17
TORSDOF 5
ENDMDL
MODEL 5
REMARK VINA RESULT:      -7.6      4.395      7.782
REMARK  Name = 
REMARK  7 active torsions:
REMARK  status: ('A' for Active; 'I' for Inactive)
REMARK    1  A    between atoms: C_1  and  C_2
REMARK    2  A    between atoms: C_2  and  C_3
REMARK    3  A    between atoms: C_2  and  C_4
REMARK    4  A    between atoms: C_4  and  C_5
REMARK    5  A    between atoms: C_5  and  N_6
REMARK    6  A    between atoms: C_7  and  C_9
REMARK    7  A    between atoms: N_17  and  C_18
REMARK                            x       y       z     vdW  Elec       q    Type
REMARK                         _______ _______ _______ _____ _____    ______ ____
ROOT
ATOM      1  C   UNL     1       1.502   9.090  18.922  0.00  0.00    +0.000 A 
ATOM      2  C   UNL     1       2.341   8.731  17.855  0.00  0.00    +0.000 A 
ATOM      3  C   UNL     1       3.001   7.493  17.818  0.00  0.00    +0.000 A 
ATOM      4  C   UNL     1       2.795   6.628  18.898  0.00  0.00    +0.000 A 
ATOM      5  C   UNL     1       1.972   6.974  19.971  0.00  0.00    +0.000 A 
ATOM      6  C   UNL     1       1.323   8.215  19.999  0.00  0.00    +0.000 A 
ATOM      7  N   UNL     1       1.923   5.974  20.899  0.00  0.00    +0.000 NA
ATOM      8  C   UNL     1       2.692   5.027  20.418  0.00  0.00    +0.000 A 
ATOM      9  N   UNL     1       3.256   5.364  19.216  0.00  0.00    +0.000 N 
ENDROOT
BRANCH   9  10
ATOM     10  C   UNL     1       4.161   4.544  18.411  0.00  0.00    +0.000 C 
ATOM     11  C   UNL     1       4.930   3.479  19.208  0.00  0.00    +0.000 C 
ATOM     12  C   UNL     1       4.096   2.258  19.586  0.00  0.00    +0.000 C 
ATOM     13  C   UNL     1       3.281   1.684  18.427  0.00  0.00    +0.000 C 
ATOM     14  C   UNL     1       2.604   2.713  17.522  0.00  0.00    +0.000 C 
ATOM     15  C   UNL     1       3.489   3.909  17.184  0.00  0.00    +0.000 C 
ENDBRANCH   9  10
BRANCH   1  17
ATOM     16  N   UNL     1      -0.526  10.449  19.044  0.00  0.00    +0.000 N 
ATOM     17  C   UNL     1       0.845  10.424  18.883  0.00  0.00    +0.000 C 
ATOM     18  O   UNL     1       1.517  11.429  18.681  0.00  0.00    +0.000 OA
ATOM     19  H   UNL     1      -1.048   9.582  19.035  0.00  0.00    +0.000 HD
BRANCH  16  20
ATOM     20  C   UNL     1      -1.274  11.685  18.941  0.00  0.00    +0.000 C 
BRANCH  20  21
ATOM     21  C   UNL     1      -2.014  11.815  17.607  0.00  0.00    +0.000 C 
BRANCH  21  23
ATOM     22  C   UNL     1      -4.473  11.275  17.195  0.00  0.00    +0.000 C 
ATOM     23  C   UNL     1      -3.059  10.713  17.340  0.00  0.00    +0.000 C 
ATOM     24  C   UNL     1      -2.686   9.931  16.077  0.00  0.00    +0.000 C 
ENDBRANCH  21  23
ENDBRANCH  20  21
ENDBRANCH  16  20
ENDBRANCH   1  17
TORSDOF 5
ENDMDL
MODEL 6
REMARK VINA RESULT:      -7.5      3.569      5.812
REMARK  Name = 
REMARK  7 active torsions:
REMARK  status: ('A' for Active; 'I' for Inactive)
REMARK    1  A    between atoms: C_1  and  C_2
REMARK    2  A    between atoms: C_2  and  C_3
REMARK    3  A    between atoms: C_2  and  C_4
REMARK    4  A    between atoms: C_4  and  C_5
REMARK    5  A    between atoms: C_5  and  N_6
REMARK    6  A    between atoms: C_7  and  C_9
REMARK    7  A    between atoms: N_17  and  C_18
REMARK                            x       y       z     vdW  Elec       q    Type
REMARK                         _______ _______ _______ _____ _____    ______ ____
ROOT
ATOM      1  C   UNL     1       5.961   6.398  17.441  0.00  0.00    +0.000 A 
ATOM      2  C   UNL     1       4.854   6.978  18.080  0.00  0.00    +0.000 A 
ATOM      3  C   UNL     1       3.689   6.246  18.352  0.00  0.00    +0.000 A 
ATOM      4  C   UNL     1       3.670   4.906  17.950  0.00  0.00    +0.000 A 
ATOM      5  C   UNL     1       4.758   4.315  17.305  0.00  0.00    +0.000 A 
ATOM      6  C   UNL     1       5.914   5.059  17.034  0.00  0.00    +0.000 A 
ATOM      7  N   UNL     1       4.509   3.005  17.014  0.00  0.00    +0.000 NA
ATOM      8  C   UNL     1       3.300   2.781  17.468  0.00  0.00    +0.000 A 
ATOM      9  N   UNL     1       2.734   3.891  18.036  0.00  0.00    +0.000 N 
ENDROOT
BRANCH   9  10
ATOM     10  C   UNL     1       1.403   3.989  18.635  0.00  0.00    +0.000 C 
ATOM     11  C   UNL     1       0.731   2.635  18.909  0.00  0.00    +0.000 C 
ATOM     12  C   UNL     1       1.272   1.906  20.137  0.00  0.00    +0.000 C 
ATOM     13  C   UNL     1       1.395   2.791  21.377  0.00  0.00    +0.000 C 
ATOM     14  C   UNL     1       1.934   4.200  21.133  0.00  0.00    +0.000 C 
ATOM     15  C   UNL     1       1.356   4.871  19.891  0.00  0.00    +0.000 C 
ENDBRANCH   9  10
BRANCH   1  17
ATOM     16  N   UNL     1       7.222   8.448  17.866  0.00  0.00    +0.000 N 
ATOM     17  C   UNL     1       7.155   7.248  17.187  0.00  0.00    +0.000 C 
ATOM     18  O   UNL     1       8.002   6.883  16.379  0.00  0.00    +0.000 OA
ATOM     19  H   UNL     1       6.418   8.776  18.385  0.00  0.00    +0.000 HD
BRANCH  16  20
ATOM     20  C   UNL     1       8.299   9.387  17.629  0.00  0.00    +0.000 C 
BRANCH  20  21
ATOM     21  C   UNL     1       9.067   9.736  18.907  0.00  0.00    +0.000 C 
BRANCH  21  23
ATOM     22  C   UNL     1      10.134  11.537  20.365  0.00  0.00    +0.000 C 
ATOM     23  C   UNL     1       9.521  11.207  19.004  0.00  0.00    +0.000 C 
ATOM     24  C   UNL     1      10.533  11.519  17.897  0.00  0.00    +0.000 C 
ENDBRANCH  21  23
ENDBRANCH  20  21
ENDBRANCH  16  20
ENDBRANCH   1  17
TORSDOF 5
ENDMDL
MODEL 7
REMARK VINA RESULT:      -7.4      5.797     10.221
REMARK  Name = 
REMARK  7 active torsions:
REMARK  status: ('A' for Active; 'I' for Inactive)
REMARK    1  A    between atoms: C_1  and  C_2
REMARK    2  A    between atoms: C_2  and  C_3
REMARK    3  A    between atoms: C_2  and  C_4
REMARK    4  A    between atoms: C_4  and  C_5
REMARK    5  A    between atoms: C_5  and  N_6
REMARK    6  A    between atoms: C_7  and  C_9
REMARK    7  A    between atoms: N_17  and  C_18
REMARK                            x       y       z     vdW  Elec       q    Type
REMARK                         _______ _______ _______ _____ _____    ______ ____
ROOT
ATOM      1  C   UNL     1       0.254  10.033  20.390  0.00  0.00    +0.000 A 
ATOM      2  C   UNL     1       0.479   8.952  21.256  0.00  0.00    +0.000 A 
ATOM      3  C   UNL     1       1.300   7.872  20.895  0.00  0.00    +0.000 A 
ATOM      4  C   UNL     1       1.883   7.913  19.624  0.00  0.00    +0.000 A 
ATOM      5  C   UNL     1       1.663   8.976  18.746  0.00  0.00    +0.000 A 
ATOM      6  C   UNL     1       0.836  10.045  19.117  0.00  0.00    +0.000 A 
ATOM      7  N   UNL     1       2.336   8.797  17.572  0.00  0.00    +0.000 NA
ATOM      8  C   UNL     1       2.964   7.654  17.713  0.00  0.00    +0.000 A 
ATOM      9  N   UNL     1       2.724   7.065  18.926  0.00  0.00    +0.000 N 
ENDROOT
BRANCH   9  10
ATOM     10  C   UNL     1       3.263   5.793  19.405  0.00  0.00    +0.000 C 
ATOM     11  C   UNL     1       2.213   4.686  19.583  0.00  0.00    +0.000 C 
ATOM     12  C   UNL     1       1.755   4.044  18.275  0.00  0.00    +0.000 C 
ATOM     13  C   UNL     1       2.902   3.655  17.343  0.00  0.00    +0.000 C 
ATOM     14  C   UNL     1       4.041   4.668  17.238  0.00  0.00    +0.000 C 
ATOM     15  C   UNL     1       4.449   5.274  18.578  0.00  0.00    +0.000 C 
ENDBRANCH   9  10
BRANCH   1  17
ATOM     16  N   UNL     1      -0.475  11.558  22.155  0.00  0.00    +0.000 N 
ATOM     17  C   UNL     1      -0.634  11.133  20.851  0.00  0.00    +0.000 C 
ATOM     18  O   UNL     1      -1.479  11.593  20.091  0.00  0.00    +0.000 OA
ATOM     19  H   UNL     1       0.114  11.031  22.786  0.00  0.00    +0.000 HD
BRANCH  16  20
ATOM     20  C   UNL     1      -1.343  12.565  22.729  0.00  0.00    +0.000 C 
BRANCH  20  21
ATOM     21  C   UNL     1      -2.516  11.958  23.503  0.00  0.00    +0.000 C 
BRANCH  21  23
ATOM     22  C   UNL     1      -4.535  12.944  22.295  0.00  0.00    +0.000 C 
ATOM     23  C   UNL     1      -3.758  12.867  23.609  0.00  0.00    +0.000 C 
ATOM     24  C   UNL     1      -4.683  12.367  24.723  0.00  0.00    +0.000 C 
ENDBRANCH  21  23
ENDBRANCH  20  21
ENDBRANCH  16  20
ENDBRANCH   1  17
TORSDOF 5
ENDMDL
MODEL 8
REMARK VINA RESULT:      -7.4      4.666      7.733
REMARK  Name = 
REMARK  7 active torsions:
REMARK  status: ('A' for Active; 'I' for Inactive)
REMARK    1  A    between atoms: C_1  and  C_2
REMARK    2  A    between atoms: C_2  and  C_3
REMARK    3  A    between atoms: C_2  and  C_4
REMARK    4  A    between atoms: C_4  and  C_5
REMARK    5  A    between atoms: C_5  and  N_6
REMARK    6  A    between atoms: C_7  and  C_9
REMARK    7  A    between atoms: N_17  and  C_18
REMARK                            x       y       z     vdW  Elec       q    Type
REMARK                         _______ _______ _______ _____ _____    ______ ____
ROOT
ATOM      1  C   UNL     1       2.395   7.471  18.880  0.00  0.00    +0.000 A 
ATOM      2  C   UNL     1       2.193   8.373  17.825  0.00  0.00    +0.000 A 
ATOM      3  C   UNL     1       1.450   9.552  17.992  0.00  0.00    +0.000 A 
ATOM      4  C   UNL     1       0.908   9.789  19.259  0.00  0.00    +0.000 A 
ATOM      5  C   UNL     1       1.092   8.897  20.318  0.00  0.00    +0.000 A 
ATOM      6  C   UNL     1       1.831   7.721  20.136  0.00  0.00    +0.000 A 
ATOM      7  N   UNL     1       0.475   9.341  21.452  0.00  0.00    +0.000 NA
ATOM      8  C   UNL     1      -0.076  10.482  21.113  0.00  0.00    +0.000 A 
ATOM      9  N   UNL     1       0.140  10.805  19.800  0.00  0.00    +0.000 N 
ENDROOT
BRANCH   9  10
ATOM     10  C   UNL     1      -0.333  11.999  19.101  0.00  0.00    +0.000 C 
ATOM     11  C   UNL     1      -1.419  11.730  18.049  0.00  0.00    +0.000 C 
ATOM     12  C   UNL     1      -2.806  11.476  18.635  0.00  0.00    +0.000 C 
ATOM     13  C   UNL     1      -3.223  12.493  19.699  0.00  0.00    +0.000 C 
ATOM     14  C   UNL     1      -2.132  12.896  20.690  0.00  0.00    +0.000 C 
ATOM     15  C   UNL     1      -0.771  13.132  20.041  0.00  0.00    +0.000 C 
ENDBRANCH   9  10
BRANCH   1  17
ATOM     16  N   UNL     1       3.357   5.366  19.669  0.00  0.00    +0.000 N 
ATOM     17  C   UNL     1       3.192   6.242  18.615  0.00  0.00    +0.000 C 
ATOM     18  O   UNL     1       3.693   6.068  17.509  0.00  0.00    +0.000 OA
ATOM     19  H   UNL     1       3.070   5.641  20.599  0.00  0.00    +0.000 HD
BRANCH  16  20
ATOM     20  C   UNL     1       4.183   4.183  19.542  0.00  0.00    +0.000 C 
BRANCH  20  21
ATOM     21  C   UNL     1       3.364   2.890  19.549  0.00  0.00    +0.000 C 
BRANCH  21  23
ATOM     22  C   UNL     1       0.954   2.303  18.953  0.00  0.00    +0.000 C 
ATOM     23  C   UNL     1       1.873   3.073  19.900  0.00  0.00    +0.000 C 
ATOM     24  C   UNL     1       1.614   2.625  21.342  0.00  0.00    +0.000 C 
ENDBRANCH  21  23
ENDBRANCH  20  21
ENDBRANCH  16  20
ENDBRANCH   1  17
TORSDOF 5
ENDMDL
MODEL 9
REMARK VINA RESULT:      -7.4      4.400      8.147
REMARK  Name = 
REMARK  7 active torsions:
REMARK  status: ('A' for Active; 'I' for Inactive)
REMARK    1  A    between atoms: C_1  and  C_2
REMARK    2  A    between atoms: C_2  and  C_3
REMARK    3  A    between atoms: C_2  and  C_4
REMARK    4  A    between atoms: C_4  and  C_5
REMARK    5  A    between atoms: C_5  and  N_6
REMARK    6  A    between atoms: C_7  and  C_9
REMARK    7  A    between atoms: N_17  and  C_18
REMARK                            x       y       z     vdW  Elec       q    Type
REMARK                         _______ _______ _______ _____ _____    ______ ____
ROOT
ATOM      1  C   UNL     1       1.451   8.746  19.277  0.00  0.00    +0.000 A 
ATOM      2  C   UNL     1       2.122   8.875  18.051  0.00  0.00    +0.000 A 
ATOM      3  C   UNL     1       3.024   7.900  17.596  0.00  0.00    +0.000 A 
ATOM      4  C   UNL     1       3.235   6.792  18.422  0.00  0.00    +0.000 A 
ATOM      5  C   UNL     1       2.582   6.652  19.648  0.00  0.00    +0.000 A 
ATOM      6  C   UNL     1       1.689   7.635  20.094  0.00  0.00    +0.000 A 
ATOM      7  N   UNL     1       2.944   5.493  20.272  0.00  0.00    +0.000 NA
ATOM      8  C   UNL     1       3.796   4.921  19.457  0.00  0.00    +0.000 A 
ATOM      9  N   UNL     1       4.023   5.659  18.325  0.00  0.00    +0.000 N 
ENDROOT
BRANCH   9  10
ATOM     10  C   UNL     1       4.913   5.315  17.217  0.00  0.00    +0.000 C 
ATOM     11  C   UNL     1       5.481   6.525  16.461  0.00  0.00    +0.000 C 
ATOM     12  C   UNL     1       6.610   7.246  17.194  0.00  0.00    +0.000 C 
ATOM     13  C   UNL     1       7.685   6.309  17.746  0.00  0.00    +0.000 C 
ATOM     14  C   UNL     1       7.172   5.022  18.390  0.00  0.00    +0.000 C 
ATOM     15  C   UNL     1       6.044   4.353  17.610  0.00  0.00    +0.000 C 
ENDBRANCH   9  10
BRANCH   1  17
ATOM     16  N   UNL     1      -0.250  10.401  18.689  0.00  0.00    +0.000 N 
ATOM     17  C   UNL     1       0.515   9.828  19.685  0.00  0.00    +0.000 C 
ATOM     18  O   UNL     1       0.478  10.191  20.856  0.00  0.00    +0.000 OA
ATOM     19  H   UNL     1      -0.055  10.183  17.720  0.00  0.00    +0.000 HD
BRANCH  16  20
ATOM     20  C   UNL     1      -1.131  11.516  18.964  0.00  0.00    +0.000 C 
BRANCH  20  21
ATOM     21  C   UNL     1      -2.155  11.747  17.850  0.00  0.00    +0.000 C 
BRANCH  21  23
ATOM     22  C   UNL     1      -3.526   9.611  17.590  0.00  0.00    +0.000 C 
ATOM     23  C   UNL     1      -2.449  10.508  16.979  0.00  0.00    +0.000 C 
ATOM     24  C   UNL     1      -2.880  10.943  15.575  0.00  0.00    +0.000 C 
ENDBRANCH  21  23
ENDBRANCH  20  21
ENDBRANCH  16  20
ENDBRANCH   1  17
TORSDOF 5
ENDMDL
