MODEL 1
REMARK VINA RESULT:      -7.7      0.000      0.000
REMARK  Name = 
REMARK  12 active torsions:
REMARK  status: ('A' for Active; 'I' for Inactive)
REMARK    1  A    between atoms: C_1  and  C_2
REMARK    2  A    between atoms: C_2  and  O_3
REMARK    3  A    between atoms: O_3  and  C_4
REMARK    4  A    between atoms: C_7  and  C_8
REMARK    5  A    between atoms: C_10  and  C_11
REMARK    6  A    between atoms: N_12  and  C_13
REMARK    7  A    between atoms: C_13  and  C_14
REMARK    8  A    between atoms: C_14  and  N_15
REMARK    9  A    between atoms: C_21  and  C_22
REMARK   10  A    between atoms: C_25  and  O_26
REMARK   11  A    between atoms: O_26  and  C_27
REMARK   12  A    between atoms: C_27  and  C_28
REMARK                            x       y       z     vdW  Elec       q    Type
REMARK                         _______ _______ _______ _____ _____    ______ ____
ROOT
ATOM      1  C   UNL     1       1.937   7.594  19.778  0.00  0.00    +0.000 A 
ATOM      2  C   UNL     1       1.747   6.539  20.653  0.00  0.00    +0.000 A 
ATOM      3  C   UNL     1       2.528   5.375  20.595  0.00  0.00    +0.000 A 
ATOM      4  C   UNL     1       2.137   4.269  21.557  0.00  0.00    +0.000 C 
ATOM      5  N   UNL     1       3.560   5.251  19.679  0.00  0.00    +0.000 N 
ATOM      6  C   UNL     1       3.737   6.251  18.746  0.00  0.00    +0.000 A 
ATOM      7  C   UNL     1       2.931   7.410  18.822  0.00  0.00    +0.000 A 
ENDROOT
BRANCH   1  11
ATOM      8  C   UNL     1      -0.455  11.163  20.010  0.00  0.00    +0.000 A 
ATOM      9  C   UNL     1       0.232  10.859  18.840  0.00  0.00    +0.000 A 
ATOM     10  C   UNL     1       1.008   9.701  18.756  0.00  0.00    +0.000 A 
ATOM     11  C   UNL     1       1.139   8.832  19.851  0.00  0.00    +0.000 A 
ATOM     12  C   UNL     1       0.470   9.186  21.045  0.00  0.00    +0.000 A 
ATOM     13  C   UNL     1      -0.314  10.340  21.124  0.00  0.00    +0.000 A 
BRANCH   8  14
ATOM     14  O   UNL     1      -1.209  12.299  19.959  0.00  0.00    +0.000 OA
BRANCH  14  16
ATOM     15  C   UNL     1      -3.517  12.701  20.314  0.00  0.00    +0.000 C 
ATOM     16  C   UNL     1      -2.183  12.448  20.992  0.00  0.00    +0.000 C 
ENDBRANCH  14  16
ENDBRANCH   8  14
ENDBRANCH   1  11
BRANCH   6  17
ATOM     17  C   UNL     1       4.786   6.204  17.705  0.00  0.00    +0.000 A 
ATOM     18  C   UNL     1       4.537   6.209  16.327  0.00  0.00    +0.000 A 
ATOM     19  C   UNL     1       5.563   5.905  15.420  0.00  0.00    +0.000 A 
ATOM     20  C   UNL     1       6.883   5.767  15.847  0.00  0.00    +0.000 A 
ATOM     21  C   UNL     1       7.186   5.980  17.182  0.00  0.00    +0.000 A 
ATOM     22  C   UNL     1       6.147   6.170  18.099  0.00  0.00    +0.000 A 
BRANCH  20  23
ATOM     23  O   UNL     1       7.765   5.326  14.907  0.00  0.00    +0.000 OA
BRANCH  23  24
ATOM     24  C   UNL     1       7.202   4.680  13.765  0.00  0.00    +0.000 C 
ATOM     25  C   UNL     1       7.871   5.264  12.533  0.00  0.00    +0.000 C 
ENDBRANCH  23  24
ENDBRANCH  20  23
ENDBRANCH   6  17
BRANCH   5  26
ATOM     26  C   UNL     1       4.294   3.936  19.670  0.00  0.00    +0.000 C 
BRANCH  26  27
ATOM     27  C   UNL     1       4.693   3.249  18.357  0.00  0.00    +0.000 C 
BRANCH  27  28
ATOM     28  N   UNL     1       3.638   2.464  17.687  0.00  0.00    +0.000 NA
ATOM     29  C   UNL     1       2.658   3.198  16.861  0.00  0.00    +0.000 C 
ATOM     30  C   UNL     1       1.421   3.698  17.631  0.00  0.00    +0.000 C 
ATOM     31  O   UNL     1       0.805   2.666  18.400  0.00  0.00    +0.000 OA
ATOM     32  C   UNL     1       1.723   1.986  19.258  0.00  0.00    +0.000 C 
ATOM     33  C   UNL     1       2.952   1.458  18.502  0.00  0.00    +0.000 C 
ENDBRANCH  27  28
ENDBRANCH  26  27
ENDBRANCH   5  26
TORSDOF 9
ENDMDL
MODEL 2
REMARK VINA RESULT:      -7.5      0.872      1.415
REMARK  Name = 
REMARK  12 active torsions:
REMARK  status: ('A' for Active; 'I' for Inactive)
REMARK    1  A    between atoms: C_1  and  C_2
REMARK    2  A    between atoms: C_2  and  O_3
REMARK    3  A    between atoms: O_3  and  C_4
REMARK    4  A    between atoms: C_7  and  C_8
REMARK    5  A    between atoms: C_10  and  C_11
REMARK    6  A    between atoms: N_12  and  C_13
REMARK    7  A    between atoms: C_13  and  C_14
REMARK    8  A    between atoms: C_14  and  N_15
REMARK    9  A    between atoms: C_21  and  C_22
REMARK   10  A    between atoms: C_25  and  O_26
REMARK   11  A    between atoms: O_26  and  C_27
REMARK   12  A    between atoms: C_27  and  C_28
REMARK                            x       y       z     vdW  Elec       q    Type
REMARK                         _______ _______ _______ _____ _____    ______ ____
ROOT
ATOM      1  C   UNL     1       1.945   7.237  20.136  0.00  0.00    +0.000 A 
ATOM      2  C   UNL     1       1.725   6.140  20.950  0.00  0.00    +0.000 A 
ATOM      3  C   UNL     1       2.502   4.976  20.854  0.00  0.00    +0.000 A 
ATOM      4  C   UNL     1       2.079   3.824  21.746  0.00  0.00    +0.000 C 
ATOM      5  N   UNL     1       3.560   4.892  19.961  0.00  0.00    +0.000 N 
ATOM      6  C   UNL     1       3.767   5.938  19.087  0.00  0.00    +0.000 A 
ATOM      7  C   UNL     1       2.965   7.097  19.201  0.00  0.00    +0.000 A 
ENDROOT
BRANCH   1  11
ATOM      8  C   UNL     1      -0.305  10.890  20.461  0.00  0.00    +0.000 A 
ATOM      9  C   UNL     1      -0.321   9.967  21.500  0.00  0.00    +0.000 A 
ATOM     10  C   UNL     1       0.409   8.780  21.403  0.00  0.00    +0.000 A 
ATOM     11  C   UNL     1       1.151   8.475  20.251  0.00  0.00    +0.000 A 
ATOM     12  C   UNL     1       1.114   9.406  19.189  0.00  0.00    +0.000 A 
ATOM     13  C   UNL     1       0.392  10.598  19.291  0.00  0.00    +0.000 A 
BRANCH   8  14
ATOM     14  O   UNL     1      -1.025  12.027  20.687  0.00  0.00    +0.000 OA
BRANCH  14  16
ATOM     15  C   UNL     1      -3.078  12.200  19.517  0.00  0.00    +0.000 C 
ATOM     16  C   UNL     1      -1.622  12.627  19.536  0.00  0.00    +0.000 C 
ENDBRANCH  14  16
ENDBRANCH   8  14
ENDBRANCH   1  11
BRANCH   6  17
ATOM     17  C   UNL     1       4.845   5.938  18.074  0.00  0.00    +0.000 A 
ATOM     18  C   UNL     1       4.753   6.548  16.818  0.00  0.00    +0.000 A 
ATOM     19  C   UNL     1       5.712   6.284  15.829  0.00  0.00    +0.000 A 
ATOM     20  C   UNL     1       6.866   5.559  16.123  0.00  0.00    +0.000 A 
ATOM     21  C   UNL     1       7.084   5.135  17.423  0.00  0.00    +0.000 A 
ATOM     22  C   UNL     1       6.075   5.301  18.376  0.00  0.00    +0.000 A 
BRANCH  20  23
ATOM     23  O   UNL     1       7.649   5.237  15.055  0.00  0.00    +0.000 OA
BRANCH  23  24
ATOM     24  C   UNL     1       6.970   4.987  13.824  0.00  0.00    +0.000 C 
ATOM     25  C   UNL     1       6.270   3.645  13.953  0.00  0.00    +0.000 C 
ENDBRANCH  23  24
ENDBRANCH  20  23
ENDBRANCH   6  17
BRANCH   5  26
ATOM     26  C   UNL     1       4.286   3.575  19.905  0.00  0.00    +0.000 C 
BRANCH  26  27
ATOM     27  C   UNL     1       3.542   2.241  20.056  0.00  0.00    +0.000 C 
BRANCH  27  28
ATOM     28  N   UNL     1       2.819   1.761  18.862  0.00  0.00    +0.000 NA
ATOM     29  C   UNL     1       3.467   1.950  17.547  0.00  0.00    +0.000 C 
ATOM     30  C   UNL     1       3.149   3.295  16.867  0.00  0.00    +0.000 C 
ATOM     31  O   UNL     1       1.748   3.561  16.816  0.00  0.00    +0.000 OA
ATOM     32  C   UNL     1       1.113   3.452  18.091  0.00  0.00    +0.000 C 
ATOM     33  C   UNL     1       1.398   2.105  18.774  0.00  0.00    +0.000 C 
ENDBRANCH  27  28
ENDBRANCH  26  27
ENDBRANCH   5  26
TORSDOF 9
ENDMDL
MODEL 3
REMARK VINA RESULT:      -7.5      0.711      1.182
REMARK  Name = 
REMARK  12 active torsions:
REMARK  status: ('A' for Active; 'I' for Inactive)
REMARK    1  A    between atoms: C_1  and  C_2
REMARK    2  A    between atoms: C_2  and  O_3
REMARK    3  A    between atoms: O_3  and  C_4
REMARK    4  A    between atoms: C_7  and  C_8
REMARK    5  A    between atoms: C_10  and  C_11
REMARK    6  A    between atoms: N_12  and  C_13
REMARK    7  A    between atoms: C_13  and  C_14
REMARK    8  A    between atoms: C_14  and  N_15
REMARK    9  A    between atoms: C_21  and  C_22
REMARK   10  A    between atoms: C_25  and  O_26
REMARK   11  A    between atoms: O_26  and  C_27
REMARK   12  A    between atoms: C_27  and  C_28
REMARK                            x       y       z     vdW  Elec       q    Type
REMARK                         _______ _______ _______ _____ _____    ______ ____
ROOT
ATOM      1  C   UNL     1       1.981   7.668  19.665  0.00  0.00    +0.000 A 
ATOM      2  C   UNL     1       1.788   6.640  20.571  0.00  0.00    +0.000 A 
ATOM      3  C   UNL     1       2.554   5.466  20.537  0.00  0.00    +0.000 A 
ATOM      4  C   UNL     1       2.162   4.391  21.533  0.00  0.00    +0.000 C 
ATOM      5  N   UNL     1       3.575   5.304  19.613  0.00  0.00    +0.000 N 
ATOM      6  C   UNL     1       3.753   6.276  18.651  0.00  0.00    +0.000 A 
ATOM      7  C   UNL     1       2.962   7.447  18.704  0.00  0.00    +0.000 A 
ENDROOT
BRANCH   1  11
ATOM      8  C   UNL     1      -0.235  11.354  19.797  0.00  0.00    +0.000 A 
ATOM      9  C   UNL     1      -0.320  10.451  20.851  0.00  0.00    +0.000 A 
ATOM     10  C   UNL     1       0.399   9.255  20.817  0.00  0.00    +0.000 A 
ATOM     11  C   UNL     1       1.198   8.918  19.713  0.00  0.00    +0.000 A 
ATOM     12  C   UNL     1       1.232   9.829  18.634  0.00  0.00    +0.000 A 
ATOM     13  C   UNL     1       0.521  11.031  18.673  0.00  0.00    +0.000 A 
BRANCH   8  14
ATOM     14  O   UNL     1      -0.951  12.504  19.963  0.00  0.00    +0.000 OA
BRANCH  14  16
ATOM     15  C   UNL     1       0.234  14.552  20.091  0.00  0.00    +0.000 C 
ATOM     16  C   UNL     1      -0.416  13.443  20.897  0.00  0.00    +0.000 C 
ENDBRANCH  14  16
ENDBRANCH   8  14
ENDBRANCH   1  11
BRANCH   6  17
ATOM     17  C   UNL     1       4.790   6.188  17.600  0.00  0.00    +0.000 A 
ATOM     18  C   UNL     1       4.528   5.955  16.245  0.00  0.00    +0.000 A 
ATOM     19  C   UNL     1       5.573   5.632  15.366  0.00  0.00    +0.000 A 
ATOM     20  C   UNL     1       6.904   5.710  15.773  0.00  0.00    +0.000 A 
ATOM     21  C   UNL     1       7.194   6.157  17.051  0.00  0.00    +0.000 A 
ATOM     22  C   UNL     1       6.150   6.367  17.957  0.00  0.00    +0.000 A 
BRANCH  20  23
ATOM     23  O   UNL     1       7.821   5.231  14.885  0.00  0.00    +0.000 OA
BRANCH  23  24
ATOM     24  C   UNL     1       7.322   4.849  13.603  0.00  0.00    +0.000 C 
ATOM     25  C   UNL     1       8.101   5.629  12.558  0.00  0.00    +0.000 C 
ENDBRANCH  23  24
ENDBRANCH  20  23
ENDBRANCH   6  17
BRANCH   5  26
ATOM     26  C   UNL     1       4.293   3.980  19.632  0.00  0.00    +0.000 C 
BRANCH  26  27
ATOM     27  C   UNL     1       4.634   3.234  18.335  0.00  0.00    +0.000 C 
BRANCH  27  28
ATOM     28  N   UNL     1       3.544   2.436  17.739  0.00  0.00    +0.000 NA
ATOM     29  C   UNL     1       2.505   3.158  16.976  0.00  0.00    +0.000 C 
ATOM     30  C   UNL     1       1.317   3.650  17.823  0.00  0.00    +0.000 C 
ATOM     31  O   UNL     1       0.763   2.615  18.635  0.00  0.00    +0.000 OA
ATOM     32  C   UNL     1       1.741   1.949  19.434  0.00  0.00    +0.000 C 
ATOM     33  C   UNL     1       2.923   1.428  18.601  0.00  0.00    +0.000 C 
ENDBRANCH  27  28
ENDBRANCH  26  27
ENDBRANCH   5  26
TORSDOF 9
ENDMDL
MODEL 4
REMARK VINA RESULT:      -7.5      4.232     11.172
REMARK  Name = 
REMARK  12 active torsions:
REMARK  status: ('A' for Active; 'I' for Inactive)
REMARK    1  A    between atoms: C_1  and  C_2
REMARK    2  A    between atoms: C_2  and  O_3
REMARK    3  A    between atoms: O_3  and  C_4
REMARK    4  A    between atoms: C_7  and  C_8
REMARK    5  A    between atoms: C_10  and  C_11
REMARK    6  A    between atoms: N_12  and  C_13
REMARK    7  A    between atoms: C_13  and  C_14
REMARK    8  A    between atoms: C_14  and  N_15
REMARK    9  A    between atoms: C_21  and  C_22
REMARK   10  A    between atoms: C_25  and  O_26
REMARK   11  A    between atoms: O_26  and  C_27
REMARK   12  A    between atoms: C_27  and  C_28
REMARK                            x       y       z     vdW  Elec       q    Type
REMARK                         _______ _______ _______ _____ _____    ______ ____
ROOT
ATOM      1  C   UNL     1       1.182  10.276  18.773  0.00  0.00    +0.000 A 
ATOM      2  C   UNL     1       1.990  11.396  18.704  0.00  0.00    +0.000 A 
ATOM      3  C   UNL     1       1.460  12.691  18.612  0.00  0.00    +0.000 A 
ATOM      4  C   UNL     1       2.472  13.810  18.446  0.00  0.00    +0.000 C 
ATOM      5  N   UNL     1       0.091  12.908  18.631  0.00  0.00    +0.000 N 
ATOM      6  C   UNL     1      -0.748  11.813  18.631  0.00  0.00    +0.000 A 
ATOM      7  C   UNL     1      -0.187  10.518  18.717  0.00  0.00    +0.000 A 
ENDROOT
BRANCH   1  11
ATOM      8  C   UNL     1       2.744   6.278  19.080  0.00  0.00    +0.000 A 
ATOM      9  C   UNL     1       2.103   6.862  20.167  0.00  0.00    +0.000 A 
ATOM     10  C   UNL     1       1.591   8.158  20.074  0.00  0.00    +0.000 A 
ATOM     11  C   UNL     1       1.732   8.913  18.899  0.00  0.00    +0.000 A 
ATOM     12  C   UNL     1       2.428   8.317  17.824  0.00  0.00    +0.000 A 
ATOM     13  C   UNL     1       2.931   7.016  17.914  0.00  0.00    +0.000 A 
BRANCH   8  14
ATOM     14  O   UNL     1       3.166   4.997  19.278  0.00  0.00    +0.000 OA
BRANCH  14  16
ATOM     15  C   UNL     1       1.636   3.596  18.133  0.00  0.00    +0.000 C 
ATOM     16  C   UNL     1       2.140   4.028  19.497  0.00  0.00    +0.000 C 
ENDBRANCH  14  16
ENDBRANCH   8  14
ENDBRANCH   1  11
BRANCH   6  17
ATOM     17  C   UNL     1      -2.223  11.930  18.620  0.00  0.00    +0.000 A 
ATOM     18  C   UNL     1      -2.984  12.458  19.670  0.00  0.00    +0.000 A 
ATOM     19  C   UNL     1      -4.377  12.297  19.687  0.00  0.00    +0.000 A 
ATOM     20  C   UNL     1      -5.053  11.773  18.586  0.00  0.00    +0.000 A 
ATOM     21  C   UNL     1      -4.337  11.451  17.445  0.00  0.00    +0.000 A 
ATOM     22  C   UNL     1      -2.940  11.505  17.474  0.00  0.00    +0.000 A 
BRANCH  20  23
ATOM     23  O   UNL     1      -6.380  11.525  18.771  0.00  0.00    +0.000 OA
BRANCH  23  24
ATOM     24  C   UNL     1      -6.878  11.702  20.097  0.00  0.00    +0.000 C 
ATOM     25  C   UNL     1      -7.501  10.387  20.532  0.00  0.00    +0.000 C 
ENDBRANCH  23  24
ENDBRANCH  20  23
ENDBRANCH   6  17
BRANCH   5  26
ATOM     26  C   UNL     1      -0.365  14.333  18.469  0.00  0.00    +0.000 C 
BRANCH  26  27
ATOM     27  C   UNL     1      -0.559  15.256  19.680  0.00  0.00    +0.000 C 
BRANCH  27  28
ATOM     28  N   UNL     1      -0.763  16.687  19.381  0.00  0.00    +0.000 NA
ATOM     29  C   UNL     1      -0.401  17.163  18.030  0.00  0.00    +0.000 C 
ATOM     30  C   UNL     1       1.064  17.617  17.884  0.00  0.00    +0.000 C 
ATOM     31  O   UNL     1       1.449  18.544  18.898  0.00  0.00    +0.000 OA
ATOM     32  C   UNL     1       1.171  18.074  20.218  0.00  0.00    +0.000 C 
ATOM     33  C   UNL     1      -0.293  17.640  20.390  0.00  0.00    +0.000 C 
ENDBRANCH  27  28
ENDBRANCH  26  27
ENDBRANCH   5  26
TORSDOF 9
ENDMDL
MODEL 5
REMARK VINA RESULT:      -7.4      4.260     11.124
REMARK  Name = 
REMARK  12 active torsions:
REMARK  status: ('A' for Active; 'I' for Inactive)
REMARK    1  A    between atoms: C_1  and  C_2
REMARK    2  A    between atoms: C_2  and  O_3
REMARK    3  A    between atoms: O_3  and  C_4
REMARK    4  A    between atoms: C_7  and  C_8
REMARK    5  A    between atoms: C_10  and  C_11
REMARK    6  A    between atoms: N_12  and  C_13
REMARK    7  A    between atoms: C_13  and  C_14
REMARK    8  A    between atoms: C_14  and  N_15
REMARK    9  A    between atoms: C_21  and  C_22
REMARK   10  A    between atoms: C_25  and  O_26
REMARK   11  A    between atoms: O_26  and  C_27
REMARK   12  A    between atoms: C_27  and  C_28
REMARK                            x       y       z     vdW  Elec       q    Type
REMARK                         _______ _______ _______ _____ _____    ______ ____
ROOT
ATOM      1  C   UNL     1       1.202  10.267  18.690  0.00  0.00    +0.000 A 
ATOM      2  C   UNL     1       1.995  11.400  18.679  0.00  0.00    +0.000 A 
ATOM      3  C   UNL     1       1.449  12.690  18.611  0.00  0.00    +0.000 A 
ATOM      4  C   UNL     1       2.449  13.827  18.510  0.00  0.00    +0.000 C 
ATOM      5  N   UNL     1       0.077  12.887  18.596  0.00  0.00    +0.000 N 
ATOM      6  C   UNL     1      -0.746  11.781  18.537  0.00  0.00    +0.000 A 
ATOM      7  C   UNL     1      -0.168  10.492  18.600  0.00  0.00    +0.000 A 
ENDROOT
BRANCH   1  11
ATOM      8  C   UNL     1       2.897   6.328  19.045  0.00  0.00    +0.000 A 
ATOM      9  C   UNL     1       3.039   7.045  17.862  0.00  0.00    +0.000 A 
ATOM     10  C   UNL     1       2.494   8.325  17.740  0.00  0.00    +0.000 A 
ATOM     11  C   UNL     1       1.769   8.909  18.790  0.00  0.00    +0.000 A 
ATOM     12  C   UNL     1       1.597   8.144  19.966  0.00  0.00    +0.000 A 
ATOM     13  C   UNL     1       2.152   6.867  20.090  0.00  0.00    +0.000 A 
BRANCH   8  14
ATOM     14  O   UNL     1       3.505   5.107  19.057  0.00  0.00    +0.000 OA
BRANCH  14  16
ATOM     15  C   UNL     1       5.567   4.362  18.159  0.00  0.00    +0.000 C 
ATOM     16  C   UNL     1       4.912   5.113  19.303  0.00  0.00    +0.000 C 
ENDBRANCH  14  16
ENDBRANCH   8  14
ENDBRANCH   1  11
BRANCH   6  17
ATOM     17  C   UNL     1      -2.221  11.878  18.486  0.00  0.00    +0.000 A 
ATOM     18  C   UNL     1      -3.022  12.338  19.538  0.00  0.00    +0.000 A 
ATOM     19  C   UNL     1      -4.412  12.157  19.502  0.00  0.00    +0.000 A 
ATOM     20  C   UNL     1      -5.046  11.683  18.354  0.00  0.00    +0.000 A 
ATOM     21  C   UNL     1      -4.290  11.433  17.221  0.00  0.00    +0.000 A 
ATOM     22  C   UNL     1      -2.896  11.505  17.297  0.00  0.00    +0.000 A 
BRANCH  20  23
ATOM     23  O   UNL     1      -6.374  11.407  18.484  0.00  0.00    +0.000 OA
BRANCH  23  24
ATOM     24  C   UNL     1      -6.704  10.149  19.072  0.00  0.00    +0.000 C 
ATOM     25  C   UNL     1      -7.452  10.430  20.364  0.00  0.00    +0.000 C 
ENDBRANCH  23  24
ENDBRANCH  20  23
ENDBRANCH   6  17
BRANCH   5  26
ATOM     26  C   UNL     1      -0.395  14.310  18.465  0.00  0.00    +0.000 C 
BRANCH  26  27
ATOM     27  C   UNL     1      -0.575  15.212  19.693  0.00  0.00    +0.000 C 
BRANCH  27  28
ATOM     28  N   UNL     1      -0.689  16.660  19.426  0.00  0.00    +0.000 NA
ATOM     29  C   UNL     1      -0.303  17.141  18.083  0.00  0.00    +0.000 C 
ATOM     30  C   UNL     1       1.187  17.505  17.940  0.00  0.00    +0.000 C 
ATOM     31  O   UNL     1       1.634  18.383  18.972  0.00  0.00    +0.000 OA
ATOM     32  C   UNL     1       1.332  17.903  20.282  0.00  0.00    +0.000 C 
ATOM     33  C   UNL     1      -0.156  17.559  20.452  0.00  0.00    +0.000 C 
ENDBRANCH  27  28
ENDBRANCH  26  27
ENDBRANCH   5  26
TORSDOF 9
ENDMDL
MODEL 6
REMARK VINA RESULT:      -7.4      4.098     11.118
REMARK  Name = 
REMARK  12 active torsions:
REMARK  status: ('A' for Active; 'I' for Inactive)
REMARK    1  A    between atoms: C_1  and  C_2
REMARK    2  A    between atoms: C_2  and  O_3
REMARK    3  A    between atoms: O_3  and  C_4
REMARK    4  A    between atoms: C_7  and  C_8
REMARK    5  A    between atoms: C_10  and  C_11
REMARK    6  A    between atoms: N_12  and  C_13
REMARK    7  A    between atoms: C_13  and  C_14
REMARK    8  A    between atoms: C_14  and  N_15
REMARK    9  A    between atoms: C_21  and  C_22
REMARK   10  A    between atoms: C_25  and  O_26
REMARK   11  A    between atoms: O_26  and  C_27
REMARK   12  A    between atoms: C_27  and  C_28
REMARK                            x       y       z     vdW  Elec       q    Type
REMARK                         _______ _______ _______ _____ _____    ______ ____
ROOT
ATOM      1  C   UNL     1       1.036  10.055  19.014  0.00  0.00    +0.000 A 
ATOM      2  C   UNL     1       1.879  11.148  18.919  0.00  0.00    +0.000 A 
ATOM      3  C   UNL     1       1.389  12.454  18.774  0.00  0.00    +0.000 A 
ATOM      4  C   UNL     1       2.437  13.535  18.587  0.00  0.00    +0.000 C 
ATOM      5  N   UNL     1       0.027  12.711  18.761  0.00  0.00    +0.000 N 
ATOM      6  C   UNL     1      -0.844  11.642  18.784  0.00  0.00    +0.000 A 
ATOM      7  C   UNL     1      -0.324  10.335  18.925  0.00  0.00    +0.000 A 
ENDROOT
BRANCH   1  11
ATOM      8  C   UNL     1       2.470   6.025  19.488  0.00  0.00    +0.000 A 
ATOM      9  C   UNL     1       1.879   6.686  20.559  0.00  0.00    +0.000 A 
ATOM     10  C   UNL     1       1.408   7.993  20.412  0.00  0.00    +0.000 A 
ATOM     11  C   UNL     1       1.543   8.682  19.196  0.00  0.00    +0.000 A 
ATOM     12  C   UNL     1       2.189   8.007  18.136  0.00  0.00    +0.000 A 
ATOM     13  C   UNL     1       2.650   6.696  18.281  0.00  0.00    +0.000 A 
BRANCH   8  14
ATOM     14  O   UNL     1       2.854   4.741  19.741  0.00  0.00    +0.000 OA
BRANCH  14  16
ATOM     15  C   UNL     1       1.504   2.817  20.043  0.00  0.00    +0.000 C 
ATOM     16  C   UNL     1       2.086   4.042  20.722  0.00  0.00    +0.000 C 
ENDBRANCH  14  16
ENDBRANCH   8  14
ENDBRANCH   1  11
BRANCH   6  17
ATOM     17  C   UNL     1      -2.314  11.802  18.743  0.00  0.00    +0.000 A 
ATOM     18  C   UNL     1      -3.074  12.410  19.750  0.00  0.00    +0.000 A 
ATOM     19  C   UNL     1      -4.472  12.292  19.752  0.00  0.00    +0.000 A 
ATOM     20  C   UNL     1      -5.147  11.727  18.672  0.00  0.00    +0.000 A 
ATOM     21  C   UNL     1      -4.425  11.320  17.563  0.00  0.00    +0.000 A 
ATOM     22  C   UNL     1      -3.028  11.334  17.611  0.00  0.00    +0.000 A 
BRANCH  20  23
ATOM     23  O   UNL     1      -6.484  11.529  18.850  0.00  0.00    +0.000 OA
BRANCH  23  24
ATOM     24  C   UNL     1      -6.896  10.186  19.106  0.00  0.00    +0.000 C 
ATOM     25  C   UNL     1      -7.555  10.163  20.474  0.00  0.00    +0.000 C 
ENDBRANCH  23  24
ENDBRANCH  20  23
ENDBRANCH   6  17
BRANCH   5  26
ATOM     26  C   UNL     1      -0.383  14.143  18.542  0.00  0.00    +0.000 C 
BRANCH  26  27
ATOM     27  C   UNL     1      -0.665  15.085  19.719  0.00  0.00    +0.000 C 
BRANCH  27  28
ATOM     28  N   UNL     1      -0.015  16.410  19.662  0.00  0.00    +0.000 NA
ATOM     29  C   UNL     1      -0.735  17.552  20.261  0.00  0.00    +0.000 C 
ATOM     30  C   UNL     1      -1.694  18.279  19.299  0.00  0.00    +0.000 C 
ATOM     31  O   UNL     1      -1.064  18.631  18.068  0.00  0.00    +0.000 OA
ATOM     32  C   UNL     1      -0.420  17.525  17.435  0.00  0.00    +0.000 C 
ATOM     33  C   UNL     1       0.560  16.802  18.373  0.00  0.00    +0.000 C 
ENDBRANCH  27  28
ENDBRANCH  26  27
ENDBRANCH   5  26
TORSDOF 9
ENDMDL
MODEL 7
REMARK VINA RESULT:      -7.3      4.292     11.055
REMARK  Name = 
REMARK  12 active torsions:
REMARK  status: ('A' for Active; 'I' for Inactive)
REMARK    1  A    between atoms: C_1  and  C_2
REMARK    2  A    between atoms: C_2  and  O_3
REMARK    3  A    between atoms: O_3  and  C_4
REMARK    4  A    between atoms: C_7  and  C_8
REMARK    5  A    between atoms: C_10  and  C_11
REMARK    6  A    between atoms: N_12  and  C_13
REMARK    7  A    between atoms: C_13  and  C_14
REMARK    8  A    between atoms: C_14  and  N_15
REMARK    9  A    between atoms: C_21  and  C_22
REMARK   10  A    between atoms: C_25  and  O_26
REMARK   11  A    between atoms: O_26  and  C_27
REMARK   12  A    between atoms: C_27  and  C_28
REMARK                            x       y       z     vdW  Elec       q    Type
REMARK                         _______ _______ _______ _____ _____    ______ ____
ROOT
ATOM      1  C   UNL     1       0.921  10.115  19.531  0.00  0.00    +0.000 A 
ATOM      2  C   UNL     1       1.647  11.193  20.006  0.00  0.00    +0.000 A 
ATOM      3  C   UNL     1       1.093  12.478  20.099  0.00  0.00    +0.000 A 
ATOM      4  C   UNL     1       2.042  13.575  20.546  0.00  0.00    +0.000 C 
ATOM      5  N   UNL     1      -0.229  12.715  19.757  0.00  0.00    +0.000 N 
ATOM      6  C   UNL     1      -0.964  11.681  19.216  0.00  0.00    +0.000 A 
ATOM      7  C   UNL     1      -0.380  10.397  19.127  0.00  0.00    +0.000 A 
ENDROOT
BRANCH   1  11
ATOM      8  C   UNL     1       2.523   6.131  19.257  0.00  0.00    +0.000 A 
ATOM      9  C   UNL     1       1.979   6.583  20.454  0.00  0.00    +0.000 A 
ATOM     10  C   UNL     1       1.454   7.874  20.550  0.00  0.00    +0.000 A 
ATOM     11  C   UNL     1       1.487   8.755  19.458  0.00  0.00    +0.000 A 
ATOM     12  C   UNL     1       2.087   8.290  18.266  0.00  0.00    +0.000 A 
ATOM     13  C   UNL     1       2.603   6.995  18.168  0.00  0.00    +0.000 A 
BRANCH   8  14
ATOM     14  O   UNL     1       2.968   4.842  19.276  0.00  0.00    +0.000 OA
BRANCH  14  16
ATOM     15  C   UNL     1       1.403   3.364  18.284  0.00  0.00    +0.000 C 
ATOM     16  C   UNL     1       2.726   4.081  18.091  0.00  0.00    +0.000 C 
ENDBRANCH  14  16
ENDBRANCH   8  14
ENDBRANCH   1  11
BRANCH   6  17
ATOM     17  C   UNL     1      -2.372  11.834  18.789  0.00  0.00    +0.000 A 
ATOM     18  C   UNL     1      -3.402  12.312  19.609  0.00  0.00    +0.000 A 
ATOM     19  C   UNL     1      -4.741  12.184  19.212  0.00  0.00    +0.000 A 
ATOM     20  C   UNL     1      -5.072  11.746  17.931  0.00  0.00    +0.000 A 
ATOM     21  C   UNL     1      -4.059  11.479  17.026  0.00  0.00    +0.000 A 
ATOM     22  C   UNL     1      -2.730  11.499  17.460  0.00  0.00    +0.000 A 
BRANCH  20  23
ATOM     23  O   UNL     1      -6.398  11.518  17.709  0.00  0.00    +0.000 OA
BRANCH  23  24
ATOM     24  C   UNL     1      -7.284  12.597  18.005  0.00  0.00    +0.000 C 
ATOM     25  C   UNL     1      -7.154  13.616  16.886  0.00  0.00    +0.000 C 
ENDBRANCH  23  24
ENDBRANCH  20  23
ENDBRANCH   6  17
BRANCH   5  26
ATOM     26  C   UNL     1      -0.698  14.144  19.843  0.00  0.00    +0.000 C 
BRANCH  26  27
ATOM     27  C   UNL     1      -0.463  15.135  18.696  0.00  0.00    +0.000 C 
BRANCH  27  28
ATOM     28  N   UNL     1      -0.151  16.523  19.089  0.00  0.00    +0.000 NA
ATOM     29  C   UNL     1      -0.846  17.611  18.370  0.00  0.00    +0.000 C 
ATOM     30  C   UNL     1      -0.127  18.095  17.096  0.00  0.00    +0.000 C 
ATOM     31  O   UNL     1       1.247  18.401  17.330  0.00  0.00    +0.000 OA
ATOM     32  C   UNL     1       1.956  17.335  17.963  0.00  0.00    +0.000 C 
ATOM     33  C   UNL     1       1.267  16.855  19.250  0.00  0.00    +0.000 C 
ENDBRANCH  27  28
ENDBRANCH  26  27
ENDBRANCH   5  26
TORSDOF 9
ENDMDL
MODEL 8
REMARK VINA RESULT:      -7.3      4.064     11.065
REMARK  Name = 
REMARK  12 active torsions:
REMARK  status: ('A' for Active; 'I' for Inactive)
REMARK    1  A    between atoms: C_1  and  C_2
REMARK    2  A    between atoms: C_2  and  O_3
REMARK    3  A    between atoms: O_3  and  C_4
REMARK    4  A    between atoms: C_7  and  C_8
REMARK    5  A    between atoms: C_10  and  C_11
REMARK    6  A    between atoms: N_12  and  C_13
REMARK    7  A    between atoms: C_13  and  C_14
REMARK    8  A    between atoms: C_14  and  N_15
REMARK    9  A    between atoms: C_21  and  C_22
REMARK   10  A    between atoms: C_25  and  O_26
REMARK   11  A    between atoms: O_26  and  C_27
REMARK   12  A    between atoms: C_27  and  C_28
REMARK                            x       y       z     vdW  Elec       q    Type
REMARK                         _______ _______ _______ _____ _____    ______ ____
ROOT
ATOM      1  C   UNL     1       1.308   9.912  18.658  0.00  0.00    +0.000 A 
ATOM      2  C   UNL     1       2.028  11.081  18.828  0.00  0.00    +0.000 A 
ATOM      3  C   UNL     1       1.425  12.345  18.741  0.00  0.00    +0.000 A 
ATOM      4  C   UNL     1       2.361  13.533  18.854  0.00  0.00    +0.000 C 
ATOM      5  N   UNL     1       0.062  12.474  18.521  0.00  0.00    +0.000 N 
ATOM      6  C   UNL     1      -0.676  11.335  18.279  0.00  0.00    +0.000 A 
ATOM      7  C   UNL     1      -0.042  10.074  18.366  0.00  0.00    +0.000 A 
ENDROOT
BRANCH   1  11
ATOM      8  C   UNL     1       3.082   6.002  18.942  0.00  0.00    +0.000 A 
ATOM      9  C   UNL     1       2.355   6.517  20.009  0.00  0.00    +0.000 A 
ATOM     10  C   UNL     1       1.773   7.784  19.923  0.00  0.00    +0.000 A 
ATOM     11  C   UNL     1       1.930   8.580  18.777  0.00  0.00    +0.000 A 
ATOM     12  C   UNL     1       2.713   8.055  17.724  0.00  0.00    +0.000 A 
ATOM     13  C   UNL     1       3.285   6.783  17.807  0.00  0.00    +0.000 A 
BRANCH   8  14
ATOM     14  O   UNL     1       3.568   4.741  19.129  0.00  0.00    +0.000 OA
BRANCH  14  16
ATOM     15  C   UNL     1       5.931   4.910  19.163  0.00  0.00    +0.000 C 
ATOM     16  C   UNL     1       4.735   4.405  18.378  0.00  0.00    +0.000 C 
ENDBRANCH  14  16
ENDBRANCH   8  14
ENDBRANCH   1  11
BRANCH   6  17
ATOM     17  C   UNL     1      -2.129  11.362  18.003  0.00  0.00    +0.000 A 
ATOM     18  C   UNL     1      -2.711  11.003  16.781  0.00  0.00    +0.000 A 
ATOM     19  C   UNL     1      -4.057  11.300  16.522  0.00  0.00    +0.000 A 
ATOM     20  C   UNL     1      -4.890  11.793  17.525  0.00  0.00    +0.000 A 
ATOM     21  C   UNL     1      -4.387  11.945  18.806  0.00  0.00    +0.000 A 
ATOM     22  C   UNL     1      -3.020  11.757  19.032  0.00  0.00    +0.000 A 
BRANCH  20  23
ATOM     23  O   UNL     1      -6.132  12.185  17.122  0.00  0.00    +0.000 OA
BRANCH  23  24
ATOM     24  C   UNL     1      -6.689  13.313  17.795  0.00  0.00    +0.000 C 
ATOM     25  C   UNL     1      -6.858  14.421  16.770  0.00  0.00    +0.000 C 
ENDBRANCH  23  24
ENDBRANCH  20  23
ENDBRANCH   6  17
BRANCH   5  26
ATOM     26  C   UNL     1      -0.465  13.878  18.389  0.00  0.00    +0.000 C 
BRANCH  26  27
ATOM     27  C   UNL     1      -0.885  14.696  19.617  0.00  0.00    +0.000 C 
BRANCH  27  28
ATOM     28  N   UNL     1      -0.226  16.007  19.782  0.00  0.00    +0.000 NA
ATOM     29  C   UNL     1      -0.873  16.990  20.676  0.00  0.00    +0.000 C 
ATOM     30  C   UNL     1      -1.907  17.899  19.984  0.00  0.00    +0.000 C 
ATOM     31  O   UNL     1      -1.390  18.509  18.802  0.00  0.00    +0.000 OA
ATOM     32  C   UNL     1      -0.821  17.567  17.891  0.00  0.00    +0.000 C 
ATOM     33  C   UNL     1       0.232  16.668  18.558  0.00  0.00    +0.000 C 
ENDBRANCH  27  28
ENDBRANCH  26  27
ENDBRANCH   5  26
TORSDOF 9
ENDMDL
MODEL 9
REMARK VINA RESULT:      -7.3      3.845     10.796
REMARK  Name = 
REMARK  12 active torsions:
REMARK  status: ('A' for Active; 'I' for Inactive)
REMARK    1  A    between atoms: C_1  and  C_2
REMARK    2  A    between atoms: C_2  and  O_3
REMARK    3  A    between atoms: O_3  and  C_4
REMARK    4  A    between atoms: C_7  and  C_8
REMARK    5  A    between atoms: C_10  and  C_11
REMARK    6  A    between atoms: N_12  and  C_13
REMARK    7  A    between atoms: C_13  and  C_14
REMARK    8  A    between atoms: C_14  and  N_15
REMARK    9  A    between atoms: C_21  and  C_22
REMARK   10  A    between atoms: C_25  and  O_26
REMARK   11  A    between atoms: O_26  and  C_27
REMARK   12  A    between atoms: C_27  and  C_28
REMARK                            x       y       z     vdW  Elec       q    Type
REMARK                         _______ _______ _______ _____ _____    ______ ____
ROOT
ATOM      1  C   UNL     1       1.200  10.240  18.728  0.00  0.00    +0.000 A 
ATOM      2  C   UNL     1       1.994  11.372  18.683  0.00  0.00    +0.000 A 
ATOM      3  C   UNL     1       1.448  12.660  18.595  0.00  0.00    +0.000 A 
ATOM      4  C   UNL     1       2.447  13.794  18.458  0.00  0.00    +0.000 C 
ATOM      5  N   UNL     1       0.076  12.858  18.593  0.00  0.00    +0.000 N 
ATOM      6  C   UNL     1      -0.748  11.752  18.567  0.00  0.00    +0.000 A 
ATOM      7  C   UNL     1      -0.171  10.464  18.650  0.00  0.00    +0.000 A 
ENDROOT
BRANCH   1  11
ATOM      8  C   UNL     1       2.813   6.261  19.020  0.00  0.00    +0.000 A 
ATOM      9  C   UNL     1       2.114   6.811  20.089  0.00  0.00    +0.000 A 
ATOM     10  C   UNL     1       1.585   8.100  20.001  0.00  0.00    +0.000 A 
ATOM     11  C   UNL     1       1.767   8.883  18.850  0.00  0.00    +0.000 A 
ATOM     12  C   UNL     1       2.521   8.322  17.795  0.00  0.00    +0.000 A 
ATOM     13  C   UNL     1       3.042   7.028  17.880  0.00  0.00    +0.000 A 
BRANCH   8  14
ATOM     14  O   UNL     1       3.248   4.983  19.211  0.00  0.00    +0.000 OA
BRANCH  14  16
ATOM     15  C   UNL     1       1.604   3.705  18.079  0.00  0.00    +0.000 C 
ATOM     16  C   UNL     1       3.071   4.093  18.107  0.00  0.00    +0.000 C 
ENDBRANCH  14  16
ENDBRANCH   8  14
ENDBRANCH   1  11
BRANCH   6  17
ATOM     17  C   UNL     1      -2.224  11.849  18.531  0.00  0.00    +0.000 A 
ATOM     18  C   UNL     1      -3.014  12.304  19.594  0.00  0.00    +0.000 A 
ATOM     19  C   UNL     1      -4.405  12.124  19.571  0.00  0.00    +0.000 A 
ATOM     20  C   UNL     1      -5.050  11.655  18.428  0.00  0.00    +0.000 A 
ATOM     21  C   UNL     1      -4.306  11.409  17.286  0.00  0.00    +0.000 A 
ATOM     22  C   UNL     1      -2.911  11.482  17.348  0.00  0.00    +0.000 A 
BRANCH  20  23
ATOM     23  O   UNL     1      -6.377  11.378  18.570  0.00  0.00    +0.000 OA
BRANCH  23  24
ATOM     24  C   UNL     1      -6.963  11.719  19.826  0.00  0.00    +0.000 C 
ATOM     25  C   UNL     1      -7.500  10.439  20.443  0.00  0.00    +0.000 C 
ENDBRANCH  23  24
ENDBRANCH  20  23
ENDBRANCH   6  17
BRANCH   5  26
ATOM     26  C   UNL     1      -0.397  14.279  18.436  0.00  0.00    +0.000 C 
BRANCH  26  27
ATOM     27  C   UNL     1      -0.499  15.226  19.639  0.00  0.00    +0.000 C 
BRANCH  27  28
ATOM     28  N   UNL     1      -0.498  14.589  20.971  0.00  0.00    +0.000 NA
ATOM     29  C   UNL     1      -1.633  14.881  21.870  0.00  0.00    +0.000 C 
ATOM     30  C   UNL     1      -1.440  16.123  22.761  0.00  0.00    +0.000 C 
ATOM     31  O   UNL     1      -0.196  16.102  23.459  0.00  0.00    +0.000 OA
ATOM     32  C   UNL     1       0.924  15.891  22.598  0.00  0.00    +0.000 C 
ATOM     33  C   UNL     1       0.760  14.641  21.720  0.00  0.00    +0.000 C 
ENDBRANCH  27  28
ENDBRANCH  26  27
ENDBRANCH   5  26
TORSDOF 9
ENDMDL
