MODEL 1
REMARK VINA RESULT:      -9.0      0.000      0.000
REMARK  Name = 
REMARK  5 active torsions:
REMARK  status: ('A' for Active; 'I' for Inactive)
REMARK    1  A    between atoms: C_1  and  O_2
REMARK    2  A    between atoms: O_2  and  C_3
REMARK    3  A    between atoms: C_6  and  N_7
REMARK    4  A    between atoms: C_8  and  C_9
REMARK    5  A    between atoms: C_9  and  C_10
REMARK                            x       y       z     vdW  Elec       q    Type
REMARK                         _______ _______ _______ _____ _____    ______ ____
ROOT
ATOM      1  N   UNL     1       4.648   4.134  17.947  0.00  0.00    +0.000 N 
ATOM      2  C   UNL     1       4.162   5.186  18.713  0.00  0.00    +0.000 A 
ATOM      3  N   UNL     1       4.066   4.951  20.001  0.00  0.00    +0.000 NA
ATOM      4  C   UNL     1       3.152   3.886  20.222  0.00  0.00    +0.000 A 
ATOM      5  C   UNL     1       2.308   3.920  21.326  0.00  0.00    +0.000 A 
ATOM      6  C   UNL     1       1.079   3.264  21.260  0.00  0.00    +0.000 A 
ATOM      7  C   UNL     1       0.701   2.583  20.098  0.00  0.00    +0.000 A 
ATOM      8  C   UNL     1       1.619   2.407  19.061  0.00  0.00    +0.000 A 
ATOM      9  C   UNL     1       2.877   3.002  19.168  0.00  0.00    +0.000 A 
ATOM     10  C   UNL     1       3.860   2.982  18.044  0.00  0.00    +0.000 A 
ATOM     11  O   UNL     1       3.805   2.058  17.244  0.00  0.00    +0.000 OA
ENDROOT
BRANCH   1  15
ATOM     12  C   UNL     1       7.134   5.018  14.619  0.00  0.00    +0.000 A 
ATOM     13  C   UNL     1       7.673   4.983  15.906  0.00  0.00    +0.000 A 
ATOM     14  C   UNL     1       6.908   4.575  17.004  0.00  0.00    +0.000 A 
ATOM     15  C   UNL     1       5.547   4.303  16.840  0.00  0.00    +0.000 A 
ATOM     16  C   UNL     1       5.045   4.230  15.533  0.00  0.00    +0.000 A 
ATOM     17  C   UNL     1       5.829   4.580  14.428  0.00  0.00    +0.000 A 
BRANCH  12  19
ATOM     18  C   UNL     1       7.647   5.209  12.304  0.00  0.00    +0.000 C 
ATOM     19  O   UNL     1       7.978   5.496  13.657  0.00  0.00    +0.000 OA
ENDBRANCH  12  19
ENDBRANCH   1  15
BRANCH   2  20
ATOM     20  C   UNL     1       3.029   5.945  17.987  0.00  0.00    +0.000 C 
BRANCH  20  21
ATOM     21  C   UNL     1       2.507   7.235  18.542  0.00  0.00    +0.000 A 
ATOM     22  C   UNL     1       2.325   8.293  17.632  0.00  0.00    +0.000 A 
ATOM     23  C   UNL     1       1.694   9.468  18.019  0.00  0.00    +0.000 A 
ATOM     24  C   UNL     1       1.209   9.600  19.313  0.00  0.00    +0.000 A 
ATOM     25  C   UNL     1       1.381   8.566  20.229  0.00  0.00    +0.000 A 
ATOM     26  C   UNL     1       2.023   7.384  19.848  0.00  0.00    +0.000 A 
ENDBRANCH  20  21
ENDBRANCH   2  20
TORSDOF 4
ENDMDL
MODEL 2
REMARK VINA RESULT:      -8.3      2.213      2.566
REMARK  Name = 
REMARK  5 active torsions:
REMARK  status: ('A' for Active; 'I' for Inactive)
REMARK    1  A    between atoms: C_1  and  O_2
REMARK    2  A    between atoms: O_2  and  C_3
REMARK    3  A    between atoms: C_6  and  N_7
REMARK    4  A    between atoms: C_8  and  C_9
REMARK    5  A    between atoms: C_9  and  C_10
REMARK                            x       y       z     vdW  Elec       q    Type
REMARK                         _______ _______ _______ _____ _____    ______ ____
ROOT
ATOM      1  N   UNL     1       4.520   5.063  18.944  0.00  0.00    +0.000 N 
ATOM      2  C   UNL     1       3.454   5.621  19.639  0.00  0.00    +0.000 A 
ATOM      3  N   UNL     1       2.965   4.886  20.610  0.00  0.00    +0.000 NA
ATOM      4  C   UNL     1       2.456   3.672  20.076  0.00  0.00    +0.000 A 
ATOM      5  C   UNL     1       1.301   3.113  20.612  0.00  0.00    +0.000 A 
ATOM      6  C   UNL     1       0.490   2.322  19.797  0.00  0.00    +0.000 A 
ATOM      7  C   UNL     1       0.835   2.096  18.461  0.00  0.00    +0.000 A 
ATOM      8  C   UNL     1       2.077   2.513  17.979  0.00  0.00    +0.000 A 
ATOM      9  C   UNL     1       2.918   3.239  18.824  0.00  0.00    +0.000 A 
ATOM     10  C   UNL     1       4.196   3.842  18.342  0.00  0.00    +0.000 A 
ATOM     11  O   UNL     1       4.764   3.313  17.397  0.00  0.00    +0.000 OA
ENDROOT
BRANCH   1  15
ATOM     12  C   UNL     1       7.708   7.621  17.790  0.00  0.00    +0.000 A 
ATOM     13  C   UNL     1       7.917   6.629  18.751  0.00  0.00    +0.000 A 
ATOM     14  C   UNL     1       6.923   5.695  19.060  0.00  0.00    +0.000 A 
ATOM     15  C   UNL     1       5.654   5.815  18.486  0.00  0.00    +0.000 A 
ATOM     16  C   UNL     1       5.490   6.738  17.445  0.00  0.00    +0.000 A 
ATOM     17  C   UNL     1       6.506   7.634  17.093  0.00  0.00    +0.000 A 
BRANCH  12  19
ATOM     18  C   UNL     1       8.552   9.816  18.141  0.00  0.00    +0.000 C 
ATOM     19  O   UNL     1       8.743   8.500  17.639  0.00  0.00    +0.000 OA
ENDBRANCH  12  19
ENDBRANCH   1  15
BRANCH   2  20
ATOM     20  C   UNL     1       2.494   6.382  18.698  0.00  0.00    +0.000 C 
BRANCH  20  21
ATOM     21  C   UNL     1       2.068   7.781  19.023  0.00  0.00    +0.000 A 
ATOM     22  C   UNL     1       2.016   8.696  17.954  0.00  0.00    +0.000 A 
ATOM     23  C   UNL     1       1.478   9.965  18.125  0.00  0.00    +0.000 A 
ATOM     24  C   UNL     1       0.957  10.336  19.357  0.00  0.00    +0.000 A 
ATOM     25  C   UNL     1       1.002   9.447  20.427  0.00  0.00    +0.000 A 
ATOM     26  C   UNL     1       1.550   8.171  20.264  0.00  0.00    +0.000 A 
ENDBRANCH  20  21
ENDBRANCH   2  20
TORSDOF 4
ENDMDL
MODEL 3
REMARK VINA RESULT:      -8.0      2.456      6.646
REMARK  Name = 
REMARK  5 active torsions:
REMARK  status: ('A' for Active; 'I' for Inactive)
REMARK    1  A    between atoms: C_1  and  O_2
REMARK    2  A    between atoms: O_2  and  C_3
REMARK    3  A    between atoms: C_6  and  N_7
REMARK    4  A    between atoms: C_8  and  C_9
REMARK    5  A    between atoms: C_9  and  C_10
REMARK                            x       y       z     vdW  Elec       q    Type
REMARK                         _______ _______ _______ _____ _____    ______ ____
ROOT
ATOM      1  N   UNL     1       3.876   6.834  18.169  0.00  0.00    +0.000 N 
ATOM      2  C   UNL     1       4.324   5.642  18.723  0.00  0.00    +0.000 A 
ATOM      3  N   UNL     1       5.628   5.493  18.767  0.00  0.00    +0.000 NA
ATOM      4  C   UNL     1       6.150   5.499  17.445  0.00  0.00    +0.000 A 
ATOM      5  C   UNL     1       7.212   4.664  17.120  0.00  0.00    +0.000 A 
ATOM      6  C   UNL     1       7.348   4.223  15.803  0.00  0.00    +0.000 A 
ATOM      7  C   UNL     1       6.428   4.615  14.826  0.00  0.00    +0.000 A 
ATOM      8  C   UNL     1       5.469   5.586  15.119  0.00  0.00    +0.000 A 
ATOM      9  C   UNL     1       5.388   6.081  16.421  0.00  0.00    +0.000 A 
ATOM     10  C   UNL     1       4.301   7.012  16.848  0.00  0.00    +0.000 A 
ATOM     11  O   UNL     1       3.792   7.733  16.000  0.00  0.00    +0.000 OA
ENDROOT
BRANCH   1  15
ATOM     12  C   UNL     1       0.832   9.240  19.895  0.00  0.00    +0.000 A 
ATOM     13  C   UNL     1       1.206   9.432  18.563  0.00  0.00    +0.000 A 
ATOM     14  C   UNL     1       2.115   8.576  17.933  0.00  0.00    +0.000 A 
ATOM     15  C   UNL     1       2.753   7.575  18.671  0.00  0.00    +0.000 A 
ATOM     16  C   UNL     1       2.289   7.320  19.969  0.00  0.00    +0.000 A 
ATOM     17  C   UNL     1       1.334   8.140  20.580  0.00  0.00    +0.000 A 
BRANCH  12  19
ATOM     18  C   UNL     1       0.542  11.466  20.683  0.00  0.00    +0.000 C 
ATOM     19  O   UNL     1      -0.015  10.190  20.394  0.00  0.00    +0.000 OA
ENDBRANCH  12  19
ENDBRANCH   1  15
BRANCH   2  20
ATOM     20  C   UNL     1       3.431   4.450  18.315  0.00  0.00    +0.000 C 
BRANCH  20  21
ATOM     21  C   UNL     1       2.636   3.712  19.348  0.00  0.00    +0.000 A 
ATOM     22  C   UNL     1       3.356   3.115  20.400  0.00  0.00    +0.000 A 
ATOM     23  C   UNL     1       2.700   2.554  21.488  0.00  0.00    +0.000 A 
ATOM     24  C   UNL     1       1.314   2.600  21.559  0.00  0.00    +0.000 A 
ATOM     25  C   UNL     1       0.584   3.183  20.528  0.00  0.00    +0.000 A 
ATOM     26  C   UNL     1       1.238   3.742  19.426  0.00  0.00    +0.000 A 
ENDBRANCH  20  21
ENDBRANCH   2  20
TORSDOF 4
ENDMDL
MODEL 4
REMARK VINA RESULT:      -8.0      0.494      1.420
REMARK  Name = 
REMARK  5 active torsions:
REMARK  status: ('A' for Active; 'I' for Inactive)
REMARK    1  A    between atoms: C_1  and  O_2
REMARK    2  A    between atoms: O_2  and  C_3
REMARK    3  A    between atoms: C_6  and  N_7
REMARK    4  A    between atoms: C_8  and  C_9
REMARK    5  A    between atoms: C_9  and  C_10
REMARK                            x       y       z     vdW  Elec       q    Type
REMARK                         _______ _______ _______ _____ _____    ______ ____
ROOT
ATOM      1  N   UNL     1       4.500   4.439  17.827  0.00  0.00    +0.000 N 
ATOM      2  C   UNL     1       3.948   5.449  18.604  0.00  0.00    +0.000 A 
ATOM      3  N   UNL     1       4.006   5.260  19.902  0.00  0.00    +0.000 NA
ATOM      4  C   UNL     1       3.273   4.092  20.245  0.00  0.00    +0.000 A 
ATOM      5  C   UNL     1       2.541   4.061  21.426  0.00  0.00    +0.000 A 
ATOM      6  C   UNL     1       1.412   3.243  21.502  0.00  0.00    +0.000 A 
ATOM      7  C   UNL     1       1.025   2.468  20.405  0.00  0.00    +0.000 A 
ATOM      8  C   UNL     1       1.857   2.372  19.288  0.00  0.00    +0.000 A 
ATOM      9  C   UNL     1       3.025   3.135  19.251  0.00  0.00    +0.000 A 
ATOM     10  C   UNL     1       3.891   3.197  18.036  0.00  0.00    +0.000 A 
ATOM     11  O   UNL     1       3.889   2.240  17.274  0.00  0.00    +0.000 OA
ENDROOT
BRANCH   1  15
ATOM     12  C   UNL     1       6.924   4.769  14.355  0.00  0.00    +0.000 A 
ATOM     13  C   UNL     1       5.551   4.548  14.232  0.00  0.00    +0.000 A 
ATOM     14  C   UNL     1       4.710   4.558  15.350  0.00  0.00    +0.000 A 
ATOM     15  C   UNL     1       5.259   4.678  16.631  0.00  0.00    +0.000 A 
ATOM     16  C   UNL     1       6.616   5.011  16.735  0.00  0.00    +0.000 A 
ATOM     17  C   UNL     1       7.446   5.061  15.609  0.00  0.00    +0.000 A 
BRANCH  12  19
ATOM     18  C   UNL     1       7.006   3.968  12.117  0.00  0.00    +0.000 C 
ATOM     19  O   UNL     1       7.627   4.668  13.187  0.00  0.00    +0.000 OA
ENDBRANCH  12  19
ENDBRANCH   1  15
BRANCH   2  20
ATOM     20  C   UNL     1       2.658   6.016  17.972  0.00  0.00    +0.000 C 
BRANCH  20  21
ATOM     21  C   UNL     1       2.071   7.300  18.474  0.00  0.00    +0.000 A 
ATOM     22  C   UNL     1       1.774   7.371  19.848  0.00  0.00    +0.000 A 
ATOM     23  C   UNL     1       1.384   8.568  20.434  0.00  0.00    +0.000 A 
ATOM     24  C   UNL     1       1.310   9.723  19.667  0.00  0.00    +0.000 A 
ATOM     25  C   UNL     1       1.597   9.673  18.306  0.00  0.00    +0.000 A 
ATOM     26  C   UNL     1       1.982   8.470  17.708  0.00  0.00    +0.000 A 
ENDBRANCH  20  21
ENDBRANCH   2  20
TORSDOF 4
ENDMDL
MODEL 5
REMARK VINA RESULT:      -8.0      2.725      6.587
REMARK  Name = 
REMARK  5 active torsions:
REMARK  status: ('A' for Active; 'I' for Inactive)
REMARK    1  A    between atoms: C_1  and  O_2
REMARK    2  A    between atoms: O_2  and  C_3
REMARK    3  A    between atoms: C_6  and  N_7
REMARK    4  A    between atoms: C_8  and  C_9
REMARK    5  A    between atoms: C_9  and  C_10
REMARK                            x       y       z     vdW  Elec       q    Type
REMARK                         _______ _______ _______ _____ _____    ______ ____
ROOT
ATOM      1  N   UNL     1       2.152   6.205  19.293  0.00  0.00    +0.000 N 
ATOM      2  C   UNL     1       2.834   5.968  18.106  0.00  0.00    +0.000 A 
ATOM      3  N   UNL     1       2.431   4.923  17.420  0.00  0.00    +0.000 NA
ATOM      4  C   UNL     1       2.623   3.747  18.193  0.00  0.00    +0.000 A 
ATOM      5  C   UNL     1       3.022   2.570  17.568  0.00  0.00    +0.000 A 
ATOM      6  C   UNL     1       3.753   1.631  18.296  0.00  0.00    +0.000 A 
ATOM      7  C   UNL     1       4.080   1.871  19.634  0.00  0.00    +0.000 A 
ATOM      8  C   UNL     1       3.533   2.968  20.302  0.00  0.00    +0.000 A 
ATOM      9  C   UNL     1       2.737   3.864  19.586  0.00  0.00    +0.000 A 
ATOM     10  C   UNL     1       2.234   5.134  20.190  0.00  0.00    +0.000 A 
ATOM     11  O   UNL     1       2.073   5.173  21.402  0.00  0.00    +0.000 OA
ENDROOT
BRANCH   1  15
ATOM     12  C   UNL     1       0.744  10.023  20.509  0.00  0.00    +0.000 A 
ATOM     13  C   UNL     1       0.914   9.006  21.451  0.00  0.00    +0.000 A 
ATOM     14  C   UNL     1       1.491   7.781  21.102  0.00  0.00    +0.000 A 
ATOM     15  C   UNL     1       1.804   7.515  19.765  0.00  0.00    +0.000 A 
ATOM     16  C   UNL     1       1.736   8.577  18.852  0.00  0.00    +0.000 A 
ATOM     17  C   UNL     1       1.214   9.823  19.217  0.00  0.00    +0.000 A 
BRANCH  12  19
ATOM     18  C   UNL     1      -0.517  11.039  22.251  0.00  0.00    +0.000 C 
ATOM     19  O   UNL     1       0.110  11.138  20.979  0.00  0.00    +0.000 OA
ENDBRANCH  12  19
ENDBRANCH   1  15
BRANCH   2  20
ATOM     20  C   UNL     1       4.345   6.252  18.250  0.00  0.00    +0.000 C 
BRANCH  20  21
ATOM     21  C   UNL     1       5.305   5.787  17.197  0.00  0.00    +0.000 A 
ATOM     22  C   UNL     1       6.358   4.953  17.617  0.00  0.00    +0.000 A 
ATOM     23  C   UNL     1       7.197   4.341  16.696  0.00  0.00    +0.000 A 
ATOM     24  C   UNL     1       6.985   4.528  15.336  0.00  0.00    +0.000 A 
ATOM     25  C   UNL     1       5.952   5.351  14.900  0.00  0.00    +0.000 A 
ATOM     26  C   UNL     1       5.109   5.977  15.823  0.00  0.00    +0.000 A 
ENDBRANCH  20  21
ENDBRANCH   2  20
TORSDOF 4
ENDMDL
MODEL 6
REMARK VINA RESULT:      -7.9      1.184      1.952
REMARK  Name = 
REMARK  5 active torsions:
REMARK  status: ('A' for Active; 'I' for Inactive)
REMARK    1  A    between atoms: C_1  and  O_2
REMARK    2  A    between atoms: O_2  and  C_3
REMARK    3  A    between atoms: C_6  and  N_7
REMARK    4  A    between atoms: C_8  and  C_9
REMARK    5  A    between atoms: C_9  and  C_10
REMARK                            x       y       z     vdW  Elec       q    Type
REMARK                         _______ _______ _______ _____ _____    ______ ____
ROOT
ATOM      1  N   UNL     1       4.545   3.689  17.741  0.00  0.00    +0.000 N 
ATOM      2  C   UNL     1       5.048   3.849  19.026  0.00  0.00    +0.000 A 
ATOM      3  N   UNL     1       4.841   2.842  19.844  0.00  0.00    +0.000 NA
ATOM      4  C   UNL     1       3.444   2.654  20.019  0.00  0.00    +0.000 A 
ATOM      5  C   UNL     1       2.950   2.280  21.264  0.00  0.00    +0.000 A 
ATOM      6  C   UNL     1       1.650   2.647  21.615  0.00  0.00    +0.000 A 
ATOM      7  C   UNL     1       0.857   3.382  20.727  0.00  0.00    +0.000 A 
ATOM      8  C   UNL     1       1.294   3.604  19.420  0.00  0.00    +0.000 A 
ATOM      9  C   UNL     1       2.566   3.165  19.051  0.00  0.00    +0.000 A 
ATOM     10  C   UNL     1       3.161   3.490  17.720  0.00  0.00    +0.000 A 
ATOM     11  O   UNL     1       2.402   3.685  16.780  0.00  0.00    +0.000 OA
ENDROOT
BRANCH   1  15
ATOM     12  C   UNL     1       6.770   4.620  14.245  0.00  0.00    +0.000 A 
ATOM     13  C   UNL     1       5.405   4.341  14.153  0.00  0.00    +0.000 A 
ATOM     14  C   UNL     1       4.623   4.153  15.298  0.00  0.00    +0.000 A 
ATOM     15  C   UNL     1       5.229   4.130  16.558  0.00  0.00    +0.000 A 
ATOM     16  C   UNL     1       6.572   4.522  16.647  0.00  0.00    +0.000 A 
ATOM     17  C   UNL     1       7.339   4.770  15.504  0.00  0.00    +0.000 A 
BRANCH  12  19
ATOM     18  C   UNL     1       6.970   3.864  11.999  0.00  0.00    +0.000 C 
ATOM     19  O   UNL     1       7.416   4.717  13.045  0.00  0.00    +0.000 OA
ENDBRANCH  12  19
ENDBRANCH   1  15
BRANCH   2  20
ATOM     20  C   UNL     1       4.868   5.296  19.534  0.00  0.00    +0.000 C 
BRANCH  20  21
ATOM     21  C   UNL     1       3.886   6.214  18.872  0.00  0.00    +0.000 A 
ATOM     22  C   UNL     1       2.737   6.556  19.609  0.00  0.00    +0.000 A 
ATOM     23  C   UNL     1       1.855   7.525  19.150  0.00  0.00    +0.000 A 
ATOM     24  C   UNL     1       2.116   8.190  17.959  0.00  0.00    +0.000 A 
ATOM     25  C   UNL     1       3.245   7.864  17.213  0.00  0.00    +0.000 A 
ATOM     26  C   UNL     1       4.133   6.883  17.667  0.00  0.00    +0.000 A 
ENDBRANCH  20  21
ENDBRANCH   2  20
TORSDOF 4
ENDMDL
MODEL 7
REMARK VINA RESULT:      -7.9      1.112      1.689
REMARK  Name = 
REMARK  5 active torsions:
REMARK  status: ('A' for Active; 'I' for Inactive)
REMARK    1  A    between atoms: C_1  and  O_2
REMARK    2  A    between atoms: O_2  and  C_3
REMARK    3  A    between atoms: C_6  and  N_7
REMARK    4  A    between atoms: C_8  and  C_9
REMARK    5  A    between atoms: C_9  and  C_10
REMARK                            x       y       z     vdW  Elec       q    Type
REMARK                         _______ _______ _______ _____ _____    ______ ____
ROOT
ATOM      1  N   UNL     1       4.694   3.551  17.809  0.00  0.00    +0.000 N 
ATOM      2  C   UNL     1       5.085   3.733  19.130  0.00  0.00    +0.000 A 
ATOM      3  N   UNL     1       4.723   2.785  19.963  0.00  0.00    +0.000 NA
ATOM      4  C   UNL     1       3.305   2.712  20.009  0.00  0.00    +0.000 A 
ATOM      5  C   UNL     1       2.668   2.436  21.214  0.00  0.00    +0.000 A 
ATOM      6  C   UNL     1       1.375   2.917  21.422  0.00  0.00    +0.000 A 
ATOM      7  C   UNL     1       0.730   3.667  20.434  0.00  0.00    +0.000 A 
ATOM      8  C   UNL     1       1.304   3.793  19.167  0.00  0.00    +0.000 A 
ATOM      9  C   UNL     1       2.566   3.242  18.941  0.00  0.00    +0.000 A 
ATOM     10  C   UNL     1       3.306   3.457  17.662  0.00  0.00    +0.000 A 
ATOM     11  O   UNL     1       2.657   3.664  16.646  0.00  0.00    +0.000 OA
ENDROOT
BRANCH   1  15
ATOM     12  C   UNL     1       6.902   4.885  14.435  0.00  0.00    +0.000 A 
ATOM     13  C   UNL     1       7.483   4.904  15.705  0.00  0.00    +0.000 A 
ATOM     14  C   UNL     1       6.827   4.358  16.813  0.00  0.00    +0.000 A 
ATOM     15  C   UNL     1       5.518   3.883  16.681  0.00  0.00    +0.000 A 
ATOM     16  C   UNL     1       4.990   3.764  15.388  0.00  0.00    +0.000 A 
ATOM     17  C   UNL     1       5.674   4.257  14.270  0.00  0.00    +0.000 A 
BRANCH  12  19
ATOM     18  C   UNL     1       7.569   4.960  12.153  0.00  0.00    +0.000 C 
ATOM     19  O   UNL     1       7.630   5.511  13.463  0.00  0.00    +0.000 OA
ENDBRANCH  12  19
ENDBRANCH   1  15
BRANCH   2  20
ATOM     20  C   UNL     1       4.976   5.212  19.560  0.00  0.00    +0.000 C 
BRANCH  20  21
ATOM     21  C   UNL     1       3.982   6.120  18.901  0.00  0.00    +0.000 A 
ATOM     22  C   UNL     1       2.869   6.511  19.668  0.00  0.00    +0.000 A 
ATOM     23  C   UNL     1       1.985   7.477  19.205  0.00  0.00    +0.000 A 
ATOM     24  C   UNL     1       2.209   8.089  17.979  0.00  0.00    +0.000 A 
ATOM     25  C   UNL     1       3.302   7.714  17.204  0.00  0.00    +0.000 A 
ATOM     26  C   UNL     1       4.191   6.737  17.661  0.00  0.00    +0.000 A 
ENDBRANCH  20  21
ENDBRANCH   2  20
TORSDOF 4
ENDMDL
MODEL 8
REMARK VINA RESULT:      -7.9      4.242      7.296
REMARK  Name = 
REMARK  5 active torsions:
REMARK  status: ('A' for Active; 'I' for Inactive)
REMARK    1  A    between atoms: C_1  and  O_2
REMARK    2  A    between atoms: O_2  and  C_3
REMARK    3  A    between atoms: C_6  and  N_7
REMARK    4  A    between atoms: C_8  and  C_9
REMARK    5  A    between atoms: C_9  and  C_10
REMARK                            x       y       z     vdW  Elec       q    Type
REMARK                         _______ _______ _______ _____ _____    ______ ____
ROOT
ATOM      1  N   UNL     1       1.028   9.646  20.001  0.00  0.00    +0.000 N 
ATOM      2  C   UNL     1       0.192  10.490  19.282  0.00  0.00    +0.000 A 
ATOM      3  N   UNL     1       0.276  11.765  19.586  0.00  0.00    +0.000 NA
ATOM      4  C   UNL     1      -0.095  11.953  20.944  0.00  0.00    +0.000 A 
ATOM      5  C   UNL     1      -0.811  13.087  21.311  0.00  0.00    +0.000 A 
ATOM      6  C   UNL     1      -1.656  13.025  22.419  0.00  0.00    +0.000 A 
ATOM      7  C   UNL     1      -1.781  11.839  23.149  0.00  0.00    +0.000 A 
ATOM      8  C   UNL     1      -0.935  10.761  22.882  0.00  0.00    +0.000 A 
ATOM      9  C   UNL     1      -0.036  10.859  21.819  0.00  0.00    +0.000 A 
ATOM     10  C   UNL     1       0.799   9.701  21.380  0.00  0.00    +0.000 A 
ATOM     11  O   UNL     1       1.090   8.850  22.210  0.00  0.00    +0.000 OA
ENDROOT
BRANCH   1  15
ATOM     12  C   UNL     1       3.405   6.520  18.382  0.00  0.00    +0.000 A 
ATOM     13  C   UNL     1       2.759   6.347  19.608  0.00  0.00    +0.000 A 
ATOM     14  C   UNL     1       1.873   7.308  20.106  0.00  0.00    +0.000 A 
ATOM     15  C   UNL     1       1.709   8.520  19.427  0.00  0.00    +0.000 A 
ATOM     16  C   UNL     1       2.271   8.636  18.148  0.00  0.00    +0.000 A 
ATOM     17  C   UNL     1       3.110   7.647  17.624  0.00  0.00    +0.000 A 
BRANCH  12  19
ATOM     18  C   UNL     1       5.183   5.099  19.071  0.00  0.00    +0.000 C 
ATOM     19  O   UNL     1       4.287   5.530  18.054  0.00  0.00    +0.000 OA
ENDBRANCH  12  19
ENDBRANCH   1  15
BRANCH   2  20
ATOM     20  C   UNL     1      -1.194   9.852  19.040  0.00  0.00    +0.000 C 
BRANCH  20  21
ATOM     21  C   UNL     1      -2.102  10.395  17.980  0.00  0.00    +0.000 A 
ATOM     22  C   UNL     1      -1.945   9.880  16.680  0.00  0.00    +0.000 A 
ATOM     23  C   UNL     1      -2.844  10.198  15.671  0.00  0.00    +0.000 A 
ATOM     24  C   UNL     1      -3.933  11.015  15.946  0.00  0.00    +0.000 A 
ATOM     25  C   UNL     1      -4.105  11.537  17.224  0.00  0.00    +0.000 A 
ATOM     26  C   UNL     1      -3.198  11.227  18.242  0.00  0.00    +0.000 A 
ENDBRANCH  20  21
ENDBRANCH   2  20
TORSDOF 4
ENDMDL
MODEL 9
REMARK VINA RESULT:      -7.9      2.286      2.951
REMARK  Name = 
REMARK  5 active torsions:
REMARK  status: ('A' for Active; 'I' for Inactive)
REMARK    1  A    between atoms: C_1  and  O_2
REMARK    2  A    between atoms: O_2  and  C_3
REMARK    3  A    between atoms: C_6  and  N_7
REMARK    4  A    between atoms: C_8  and  C_9
REMARK    5  A    between atoms: C_9  and  C_10
REMARK                            x       y       z     vdW  Elec       q    Type
REMARK                         _______ _______ _______ _____ _____    ______ ____
ROOT
ATOM      1  N   UNL     1       4.553   3.424  17.684  0.00  0.00    +0.000 N 
ATOM      2  C   UNL     1       4.994   3.637  18.984  0.00  0.00    +0.000 A 
ATOM      3  N   UNL     1       4.675   2.703  19.850  0.00  0.00    +0.000 NA
ATOM      4  C   UNL     1       3.261   2.616  19.953  0.00  0.00    +0.000 A 
ATOM      5  C   UNL     1       2.675   2.359  21.188  0.00  0.00    +0.000 A 
ATOM      6  C   UNL     1       1.385   2.831  21.437  0.00  0.00    +0.000 A 
ATOM      7  C   UNL     1       0.694   3.553  20.459  0.00  0.00    +0.000 A 
ATOM      8  C   UNL     1       1.216   3.659  19.169  0.00  0.00    +0.000 A 
ATOM      9  C   UNL     1       2.474   3.116  18.905  0.00  0.00    +0.000 A 
ATOM     10  C   UNL     1       3.162   3.312  17.594  0.00  0.00    +0.000 A 
ATOM     11  O   UNL     1       2.471   3.491  16.600  0.00  0.00    +0.000 OA
ENDROOT
BRANCH   1  15
ATOM     12  C   UNL     1       6.695   4.752  14.265  0.00  0.00    +0.000 A 
ATOM     13  C   UNL     1       7.373   4.480  15.455  0.00  0.00    +0.000 A 
ATOM     14  C   UNL     1       6.714   3.925  16.557  0.00  0.00    +0.000 A 
ATOM     15  C   UNL     1       5.329   3.739  16.517  0.00  0.00    +0.000 A 
ATOM     16  C   UNL     1       4.679   3.909  15.287  0.00  0.00    +0.000 A 
ATOM     17  C   UNL     1       5.352   4.407  14.166  0.00  0.00    +0.000 A 
BRANCH  12  19
ATOM     18  C   UNL     1       7.432   4.762  12.004  0.00  0.00    +0.000 C 
ATOM     19  O   UNL     1       7.452   5.350  13.298  0.00  0.00    +0.000 OA
ENDBRANCH  12  19
ENDBRANCH   1  15
BRANCH   2  20
ATOM     20  C   UNL     1       4.885   5.124  19.387  0.00  0.00    +0.000 C 
BRANCH  20  21
ATOM     21  C   UNL     1       5.828   6.135  18.811  0.00  0.00    +0.000 A 
ATOM     22  C   UNL     1       7.173   6.059  19.219  0.00  0.00    +0.000 A 
ATOM     23  C   UNL     1       8.149   6.842  18.618  0.00  0.00    +0.000 A 
ATOM     24  C   UNL     1       7.807   7.697  17.579  0.00  0.00    +0.000 A 
ATOM     25  C   UNL     1       6.482   7.790  17.162  0.00  0.00    +0.000 A 
ATOM     26  C   UNL     1       5.494   7.010  17.769  0.00  0.00    +0.000 A 
ENDBRANCH  20  21
ENDBRANCH   2  20
TORSDOF 4
ENDMDL
