MODEL 1
REMARK VINA RESULT:      -6.2      0.000      0.000
REMARK  Name = 
REMARK  5 active torsions:
REMARK  status: ('A' for Active; 'I' for Inactive)
REMARK    1  A    between atoms: C_2  and  C_3
REMARK    2  A    between atoms: C_2  and  O_12
REMARK    3  A    between atoms: C_3  and  C_4
REMARK    4  A    between atoms: C_4  and  C_5
REMARK    5  A    between atoms: O_12  and  C_13
REMARK                            x       y       z     vdW  Elec       q    Type
REMARK                         _______ _______ _______ _____ _____    ______ ____
ROOT
ATOM      1  C   UNL     1       4.726   5.979  18.328  0.00  0.00    +0.000 C 
ENDROOT
BRANCH   1   3
ATOM      2  O   UNL     1       6.068   4.133  19.218  0.00  0.00    +0.000 OA
ATOM      3  C   UNL     1       4.992   4.601  18.881  0.00  0.00    +0.000 C 
BRANCH   3   4
ATOM      4  O   UNL     1       3.781   4.010  19.068  0.00  0.00    +0.000 OA
BRANCH   4   5
ATOM      5  C   UNL     1       3.747   2.651  19.558  0.00  0.00    +0.000 C 
ATOM      6  C   UNL     1       3.135   2.595  20.965  0.00  0.00    +0.000 C 
ATOM      7  S   UNL     1       1.370   3.009  20.811  0.00  0.00    +0.000 S 
ATOM      8  S   UNL     1       1.139   2.372  18.873  0.00  0.00    +0.000 S 
ATOM      9  C   UNL     1       2.859   1.834  18.615  0.00  0.00    +0.000 C 
ENDBRANCH   4   5
ENDBRANCH   3   4
ENDBRANCH   1   3
BRANCH   1  10
ATOM     10  C   UNL     1       3.360   6.147  17.684  0.00  0.00    +0.000 C 
BRANCH  10  11
ATOM     11  C   UNL     1       2.568   7.204  18.422  0.00  0.00    +0.000 A 
ATOM     12  C   UNL     1       2.206   8.396  17.775  0.00  0.00    +0.000 A 
ATOM     13  C   UNL     1       1.524   9.399  18.466  0.00  0.00    +0.000 A 
ATOM     14  C   UNL     1       1.201   9.219  19.807  0.00  0.00    +0.000 A 
ATOM     15 BR   UNL     1       0.273  10.575  20.742  0.00  0.00    +0.000 Br
ATOM     16  C   UNL     1       1.563   8.045  20.468  0.00  0.00    +0.000 A 
ATOM     17  C   UNL     1       2.249   7.041  19.777  0.00  0.00    +0.000 A 
ENDBRANCH  10  11
ENDBRANCH   1  10
TORSDOF 5
ENDMDL
MODEL 2
REMARK VINA RESULT:      -5.9      2.923      3.764
REMARK  Name = 
REMARK  5 active torsions:
REMARK  status: ('A' for Active; 'I' for Inactive)
REMARK    1  A    between atoms: C_2  and  C_3
REMARK    2  A    between atoms: C_2  and  O_12
REMARK    3  A    between atoms: C_3  and  C_4
REMARK    4  A    between atoms: C_4  and  C_5
REMARK    5  A    between atoms: O_12  and  C_13
REMARK                            x       y       z     vdW  Elec       q    Type
REMARK                         _______ _______ _______ _____ _____    ______ ____
ROOT
ATOM      1  C   UNL     1       2.260   4.852  18.962  0.00  0.00    +0.000 C 
ENDROOT
BRANCH   1   3
ATOM      2  O   UNL     1       2.266   3.476  16.935  0.00  0.00    +0.000 OA
ATOM      3  C   UNL     1       2.851   4.162  17.758  0.00  0.00    +0.000 C 
BRANCH   3   4
ATOM      4  O   UNL     1       4.151   4.556  17.674  0.00  0.00    +0.000 OA
BRANCH   4   5
ATOM      5  C   UNL     1       4.716   4.790  16.365  0.00  0.00    +0.000 C 
ATOM      6  C   UNL     1       5.071   6.272  16.183  0.00  0.00    +0.000 C 
ATOM      7  S   UNL     1       6.466   6.642  17.292  0.00  0.00    +0.000 S 
ATOM      8  S   UNL     1       7.243   4.743  17.348  0.00  0.00    +0.000 S 
ATOM      9  C   UNL     1       6.006   3.971  16.258  0.00  0.00    +0.000 C 
ENDBRANCH   4   5
ENDBRANCH   3   4
ENDBRANCH   1   3
BRANCH   1  10
ATOM     10  C   UNL     1       3.106   5.986  19.517  0.00  0.00    +0.000 C 
BRANCH  10  11
ATOM     11  C   UNL     1       2.375   7.301  19.360  0.00  0.00    +0.000 A 
ATOM     12  C   UNL     1       1.696   7.865  20.451  0.00  0.00    +0.000 A 
ATOM     13  C   UNL     1       0.972   9.050  20.300  0.00  0.00    +0.000 A 
ATOM     14  C   UNL     1       0.922   9.676  19.059  0.00  0.00    +0.000 A 
ATOM     15 BR   UNL     1      -0.052  11.284  18.854  0.00  0.00    +0.000 Br
ATOM     16  C   UNL     1       1.584   9.123  17.963  0.00  0.00    +0.000 A 
ATOM     17  C   UNL     1       2.306   7.935  18.112  0.00  0.00    +0.000 A 
ENDBRANCH  10  11
ENDBRANCH   1  10
TORSDOF 5
ENDMDL
MODEL 3
REMARK VINA RESULT:      -5.8      1.218      1.425
REMARK  Name = 
REMARK  5 active torsions:
REMARK  status: ('A' for Active; 'I' for Inactive)
REMARK    1  A    between atoms: C_2  and  C_3
REMARK    2  A    between atoms: C_2  and  O_12
REMARK    3  A    between atoms: C_3  and  C_4
REMARK    4  A    between atoms: C_4  and  C_5
REMARK    5  A    between atoms: O_12  and  C_13
REMARK                            x       y       z     vdW  Elec       q    Type
REMARK                         _______ _______ _______ _____ _____    ______ ____
ROOT
ATOM      1  C   UNL     1       4.319   5.637  18.012  0.00  0.00    +0.000 C 
ENDROOT
BRANCH   1   3
ATOM      2  O   UNL     1       4.665   3.708  16.544  0.00  0.00    +0.000 OA
ATOM      3  C   UNL     1       3.956   4.364  17.289  0.00  0.00    +0.000 C 
BRANCH   3   4
ATOM      4  O   UNL     1       2.721   3.999  17.728  0.00  0.00    +0.000 OA
BRANCH   4   5
ATOM      5  C   UNL     1       2.497   2.615  18.077  0.00  0.00    +0.000 C 
ATOM      6  C   UNL     1       3.432   2.182  19.215  0.00  0.00    +0.000 C 
ATOM      7  S   UNL     1       2.908   3.063  20.719  0.00  0.00    +0.000 S 
ATOM      8  S   UNL     1       0.941   3.303  20.188  0.00  0.00    +0.000 S 
ATOM      9  C   UNL     1       1.052   2.482  18.567  0.00  0.00    +0.000 C 
ENDBRANCH   4   5
ENDBRANCH   3   4
ENDBRANCH   1   3
BRANCH   1  10
ATOM     10  C   UNL     1       3.823   6.908  17.341  0.00  0.00    +0.000 C 
BRANCH  10  11
ATOM     11  C   UNL     1       2.822   7.607  18.233  0.00  0.00    +0.000 A 
ATOM     12  C   UNL     1       2.210   8.798  17.811  0.00  0.00    +0.000 A 
ATOM     13  C   UNL     1       1.327   9.478  18.652  0.00  0.00    +0.000 A 
ATOM     14  C   UNL     1       1.052   8.975  19.919  0.00  0.00    +0.000 A 
ATOM     15 BR   UNL     1      -0.148   9.892  21.057  0.00  0.00    +0.000 Br
ATOM     16  C   UNL     1       1.659   7.797  20.357  0.00  0.00    +0.000 A 
ATOM     17  C   UNL     1       2.546   7.117  19.517  0.00  0.00    +0.000 A 
ENDBRANCH  10  11
ENDBRANCH   1  10
TORSDOF 5
ENDMDL
MODEL 4
REMARK VINA RESULT:      -5.8      1.351      1.517
REMARK  Name = 
REMARK  5 active torsions:
REMARK  status: ('A' for Active; 'I' for Inactive)
REMARK    1  A    between atoms: C_2  and  C_3
REMARK    2  A    between atoms: C_2  and  O_12
REMARK    3  A    between atoms: C_3  and  C_4
REMARK    4  A    between atoms: C_4  and  C_5
REMARK    5  A    between atoms: O_12  and  C_13
REMARK                            x       y       z     vdW  Elec       q    Type
REMARK                         _______ _______ _______ _____ _____    ______ ____
ROOT
ATOM      1  C   UNL     1       3.871   6.603  17.648  0.00  0.00    +0.000 C 
ENDROOT
BRANCH   1   3
ATOM      2  O   UNL     1       5.266   4.969  16.472  0.00  0.00    +0.000 OA
ATOM      3  C   UNL     1       4.264   5.250  17.110  0.00  0.00    +0.000 C 
BRANCH   3   4
ATOM      4  O   UNL     1       3.355   4.356  17.586  0.00  0.00    +0.000 OA
BRANCH   4   5
ATOM      5  C   UNL     1       3.804   3.018  17.895  0.00  0.00    +0.000 C 
ATOM      6  C   UNL     1       4.262   2.921  19.357  0.00  0.00    +0.000 C 
ATOM      7  S   UNL     1       2.785   3.100  20.406  0.00  0.00    +0.000 S 
ATOM      8  S   UNL     1       1.429   2.388  19.041  0.00  0.00    +0.000 S 
ATOM      9  C   UNL     1       2.618   2.068  17.700  0.00  0.00    +0.000 C 
ENDBRANCH   4   5
ENDBRANCH   3   4
ENDBRANCH   1   3
BRANCH   1  10
ATOM     10  C   UNL     1       3.126   6.563  18.972  0.00  0.00    +0.000 C 
BRANCH  10  11
ATOM     11  C   UNL     1       2.184   7.743  19.071  0.00  0.00    +0.000 A 
ATOM     12  C   UNL     1       1.901   8.517  17.935  0.00  0.00    +0.000 A 
ATOM     13  C   UNL     1       1.077   9.641  18.030  0.00  0.00    +0.000 A 
ATOM     14  C   UNL     1       0.533   9.998  19.259  0.00  0.00    +0.000 A 
ATOM     15 BR   UNL     1      -0.587  11.515  19.388  0.00  0.00    +0.000 Br
ATOM     16  C   UNL     1       0.813   9.244  20.400  0.00  0.00    +0.000 A 
ATOM     17  C   UNL     1       1.640   8.121  20.306  0.00  0.00    +0.000 A 
ENDBRANCH  10  11
ENDBRANCH   1  10
TORSDOF 5
ENDMDL
MODEL 5
REMARK VINA RESULT:      -5.7      1.006      1.670
REMARK  Name = 
REMARK  5 active torsions:
REMARK  status: ('A' for Active; 'I' for Inactive)
REMARK    1  A    between atoms: C_2  and  C_3
REMARK    2  A    between atoms: C_2  and  O_12
REMARK    3  A    between atoms: C_3  and  C_4
REMARK    4  A    between atoms: C_4  and  C_5
REMARK    5  A    between atoms: O_12  and  C_13
REMARK                            x       y       z     vdW  Elec       q    Type
REMARK                         _______ _______ _______ _____ _____    ______ ____
ROOT
ATOM      1  C   UNL     1       4.899   6.547  18.076  0.00  0.00    +0.000 C 
ENDROOT
BRANCH   1   3
ATOM      2  O   UNL     1       6.217   5.199  19.641  0.00  0.00    +0.000 OA
ATOM      3  C   UNL     1       5.271   5.326  18.880  0.00  0.00    +0.000 C 
BRANCH   3   4
ATOM      4  O   UNL     1       4.271   4.419  18.707  0.00  0.00    +0.000 OA
BRANCH   4   5
ATOM      5  C   UNL     1       3.782   3.706  19.864  0.00  0.00    +0.000 C 
ATOM      6  C   UNL     1       2.249   3.636  19.852  0.00  0.00    +0.000 C 
ATOM      7  S   UNL     1       1.761   2.549  18.477  0.00  0.00    +0.000 S 
ATOM      8  S   UNL     1       3.474   1.420  18.438  0.00  0.00    +0.000 S 
ATOM      9  C   UNL     1       4.328   2.276  19.800  0.00  0.00    +0.000 C 
ENDBRANCH   4   5
ENDBRANCH   3   4
ENDBRANCH   1   3
BRANCH   1  10
ATOM     10  C   UNL     1       3.469   6.552  17.562  0.00  0.00    +0.000 C 
BRANCH  10  11
ATOM     11  C   UNL     1       2.643   7.550  18.345  0.00  0.00    +0.000 A 
ATOM     12  C   UNL     1       2.319   7.300  19.687  0.00  0.00    +0.000 A 
ATOM     13  C   UNL     1       1.510   8.188  20.399  0.00  0.00    +0.000 A 
ATOM     14  C   UNL     1       1.021   9.331  19.774  0.00  0.00    +0.000 A 
ATOM     15 BR   UNL     1      -0.068  10.538  20.738  0.00  0.00    +0.000 Br
ATOM     16  C   UNL     1       1.326   9.589  18.437  0.00  0.00    +0.000 A 
ATOM     17  C   UNL     1       2.133   8.698  17.723  0.00  0.00    +0.000 A 
ENDBRANCH  10  11
ENDBRANCH   1  10
TORSDOF 5
ENDMDL
MODEL 6
REMARK VINA RESULT:      -5.7      2.904      3.979
REMARK  Name = 
REMARK  5 active torsions:
REMARK  status: ('A' for Active; 'I' for Inactive)
REMARK    1  A    between atoms: C_2  and  C_3
REMARK    2  A    between atoms: C_2  and  O_12
REMARK    3  A    between atoms: C_3  and  C_4
REMARK    4  A    between atoms: C_4  and  C_5
REMARK    5  A    between atoms: O_12  and  C_13
REMARK                            x       y       z     vdW  Elec       q    Type
REMARK                         _______ _______ _______ _____ _____    ______ ____
ROOT
ATOM      1  C   UNL     1       3.110   2.856  18.250  0.00  0.00    +0.000 C 
ENDROOT
BRANCH   1   3
ATOM      2  O   UNL     1       5.051   2.980  19.739  0.00  0.00    +0.000 OA
ATOM      3  C   UNL     1       4.512   3.219  18.670  0.00  0.00    +0.000 C 
BRANCH   3   4
ATOM      4  O   UNL     1       5.126   3.751  17.578  0.00  0.00    +0.000 OA
BRANCH   4   5
ATOM      5  C   UNL     1       6.202   4.694  17.785  0.00  0.00    +0.000 C 
ATOM      6  C   UNL     1       7.365   4.411  16.826  0.00  0.00    +0.000 C 
ATOM      7  S   UNL     1       6.799   4.814  15.144  0.00  0.00    +0.000 S 
ATOM      8  S   UNL     1       5.397   6.211  15.687  0.00  0.00    +0.000 S 
ATOM      9  C   UNL     1       5.661   6.096  17.485  0.00  0.00    +0.000 C 
ENDBRANCH   4   5
ENDBRANCH   3   4
ENDBRANCH   1   3
BRANCH   1  10
ATOM     10  C   UNL     1       2.333   3.988  17.598  0.00  0.00    +0.000 C 
BRANCH  10  11
ATOM     11  C   UNL     1       2.145   5.120  18.584  0.00  0.00    +0.000 A 
ATOM     12  C   UNL     1       1.721   4.851  19.895  0.00  0.00    +0.000 A 
ATOM     13  C   UNL     1       1.492   5.894  20.794  0.00  0.00    +0.000 A 
ATOM     14  C   UNL     1       1.684   7.211  20.390  0.00  0.00    +0.000 A 
ATOM     15 BR   UNL     1       1.380   8.625  21.608  0.00  0.00    +0.000 Br
ATOM     16  C   UNL     1       2.096   7.496  19.087  0.00  0.00    +0.000 A 
ATOM     17  C   UNL     1       2.322   6.452  18.185  0.00  0.00    +0.000 A 
ENDBRANCH  10  11
ENDBRANCH   1  10
TORSDOF 5
ENDMDL
MODEL 7
REMARK VINA RESULT:      -5.7      2.882      3.673
REMARK  Name = 
REMARK  5 active torsions:
REMARK  status: ('A' for Active; 'I' for Inactive)
REMARK    1  A    between atoms: C_2  and  C_3
REMARK    2  A    between atoms: C_2  and  O_12
REMARK    3  A    between atoms: C_3  and  C_4
REMARK    4  A    between atoms: C_4  and  C_5
REMARK    5  A    between atoms: O_12  and  C_13
REMARK                            x       y       z     vdW  Elec       q    Type
REMARK                         _______ _______ _______ _____ _____    ______ ____
ROOT
ATOM      1  C   UNL     1       2.020   5.040  19.237  0.00  0.00    +0.000 C 
ENDROOT
BRANCH   1   3
ATOM      2  O   UNL     1       1.662   3.654  17.249  0.00  0.00    +0.000 OA
ATOM      3  C   UNL     1       2.369   4.387  17.923  0.00  0.00    +0.000 C 
BRANCH   3   4
ATOM      4  O   UNL     1       3.583   4.875  17.548  0.00  0.00    +0.000 OA
BRANCH   4   5
ATOM      5  C   UNL     1       4.682   3.948  17.406  0.00  0.00    +0.000 C 
ATOM      6  C   UNL     1       5.208   3.946  15.964  0.00  0.00    +0.000 C 
ATOM      7  S   UNL     1       6.001   5.557  15.668  0.00  0.00    +0.000 S 
ATOM      8  S   UNL     1       6.508   5.942  17.619  0.00  0.00    +0.000 S 
ATOM      9  C   UNL     1       5.812   4.416  18.328  0.00  0.00    +0.000 C 
ENDBRANCH   4   5
ENDBRANCH   3   4
ENDBRANCH   1   3
BRANCH   1  10
ATOM     10  C   UNL     1       2.930   6.194  19.628  0.00  0.00    +0.000 C 
BRANCH  10  11
ATOM     11  C   UNL     1       2.204   7.509  19.442  0.00  0.00    +0.000 A 
ATOM     12  C   UNL     1       1.535   8.105  20.522  0.00  0.00    +0.000 A 
ATOM     13  C   UNL     1       0.817   9.289  20.345  0.00  0.00    +0.000 A 
ATOM     14  C   UNL     1       0.762   9.883  19.089  0.00  0.00    +0.000 A 
ATOM     15 BR   UNL     1      -0.205  11.490  18.849  0.00  0.00    +0.000 Br
ATOM     16  C   UNL     1       1.414   9.298  18.003  0.00  0.00    +0.000 A 
ATOM     17  C   UNL     1       2.130   8.110  18.178  0.00  0.00    +0.000 A 
ENDBRANCH  10  11
ENDBRANCH   1  10
TORSDOF 5
ENDMDL
MODEL 8
REMARK VINA RESULT:      -5.7      3.829      5.178
REMARK  Name = 
REMARK  5 active torsions:
REMARK  status: ('A' for Active; 'I' for Inactive)
REMARK    1  A    between atoms: C_2  and  C_3
REMARK    2  A    between atoms: C_2  and  O_12
REMARK    3  A    between atoms: C_3  and  C_4
REMARK    4  A    between atoms: C_4  and  C_5
REMARK    5  A    between atoms: O_12  and  C_13
REMARK                            x       y       z     vdW  Elec       q    Type
REMARK                         _______ _______ _______ _____ _____    ______ ____
ROOT
ATOM      1  C   UNL     1       5.492   5.246  19.310  0.00  0.00    +0.000 C 
ENDROOT
BRANCH   1   3
ATOM      2  O   UNL     1       3.314   6.297  19.699  0.00  0.00    +0.000 OA
ATOM      3  C   UNL     1       3.988   5.352  19.321  0.00  0.00    +0.000 C 
BRANCH   3   4
ATOM      4  O   UNL     1       3.508   4.241  18.698  0.00  0.00    +0.000 OA
BRANCH   4   5
ATOM      5  C   UNL     1       3.633   2.968  19.370  0.00  0.00    +0.000 C 
ATOM      6  C   UNL     1       3.020   3.033  20.775  0.00  0.00    +0.000 C 
ATOM      7  S   UNL     1       1.219   3.207  20.580  0.00  0.00    +0.000 S 
ATOM      8  S   UNL     1       1.083   2.288  18.750  0.00  0.00    +0.000 S 
ATOM      9  C   UNL     1       2.857   1.929  18.555  0.00  0.00    +0.000 C 
ENDBRANCH   4   5
ENDBRANCH   3   4
ENDBRANCH   1   3
BRANCH   1  10
ATOM     10  C   UNL     1       6.180   6.134  18.286  0.00  0.00    +0.000 C 
BRANCH  10  11
ATOM     11  C   UNL     1       6.101   5.499  16.915  0.00  0.00    +0.000 A 
ATOM     12  C   UNL     1       6.875   4.367  16.616  0.00  0.00    +0.000 A 
ATOM     13  C   UNL     1       6.850   3.808  15.337  0.00  0.00    +0.000 A 
ATOM     14  C   UNL     1       6.053   4.377  14.349  0.00  0.00    +0.000 A 
ATOM     15 BR   UNL     1       6.013   3.619  12.618  0.00  0.00    +0.000 Br
ATOM     16  C   UNL     1       5.284   5.508  14.627  0.00  0.00    +0.000 A 
ATOM     17  C   UNL     1       5.312   6.071  15.908  0.00  0.00    +0.000 A 
ENDBRANCH  10  11
ENDBRANCH   1  10
TORSDOF 5
ENDMDL
MODEL 9
REMARK VINA RESULT:      -5.7      2.786      3.463
REMARK  Name = 
REMARK  5 active torsions:
REMARK  status: ('A' for Active; 'I' for Inactive)
REMARK    1  A    between atoms: C_2  and  C_3
REMARK    2  A    between atoms: C_2  and  O_12
REMARK    3  A    between atoms: C_3  and  C_4
REMARK    4  A    between atoms: C_4  and  C_5
REMARK    5  A    between atoms: O_12  and  C_13
REMARK                            x       y       z     vdW  Elec       q    Type
REMARK                         _______ _______ _______ _____ _____    ______ ____
ROOT
ATOM      1  C   UNL     1       1.998   5.103  19.354  0.00  0.00    +0.000 C 
ENDROOT
BRANCH   1   3
ATOM      2  O   UNL     1       1.345   3.886  17.331  0.00  0.00    +0.000 OA
ATOM      3  C   UNL     1       2.172   4.507  17.980  0.00  0.00    +0.000 C 
BRANCH   3   4
ATOM      4  O   UNL     1       3.392   4.906  17.527  0.00  0.00    +0.000 OA
BRANCH   4   5
ATOM      5  C   UNL     1       4.412   3.903  17.325  0.00  0.00    +0.000 C 
ATOM      6  C   UNL     1       5.122   4.113  15.981  0.00  0.00    +0.000 C 
ATOM      7  S   UNL     1       6.091   5.649  16.108  0.00  0.00    +0.000 S 
ATOM      8  S   UNL     1       6.366   5.596  18.140  0.00  0.00    +0.000 S 
ATOM      9  C   UNL     1       5.447   4.054  18.444  0.00  0.00    +0.000 C 
ENDBRANCH   4   5
ENDBRANCH   3   4
ENDBRANCH   1   3
BRANCH   1  10
ATOM     10  C   UNL     1       2.889   6.301  19.639  0.00  0.00    +0.000 C 
BRANCH  10  11
ATOM     11  C   UNL     1       2.111   7.583  19.440  0.00  0.00    +0.000 A 
ATOM     12  C   UNL     1       2.115   8.225  18.192  0.00  0.00    +0.000 A 
ATOM     13  C   UNL     1       1.445   9.437  18.016  0.00  0.00    +0.000 A 
ATOM     14  C   UNL     1       0.769  10.015  19.085  0.00  0.00    +0.000 A 
ATOM     15 BR   UNL     1      -0.144  11.654  18.847  0.00  0.00    +0.000 Br
ATOM     16  C   UNL     1       0.764   9.395  20.335  0.00  0.00    +0.000 A 
ATOM     17  C   UNL     1       1.437   8.183  20.513  0.00  0.00    +0.000 A 
ENDBRANCH  10  11
ENDBRANCH   1  10
TORSDOF 5
ENDMDL
