MODEL 1
REMARK VINA RESULT:      -7.9      0.000      0.000
REMARK  Name = 
REMARK  7 active torsions:
REMARK  status: ('A' for Active; 'I' for Inactive)
REMARK    1  A    between atoms: C_1  and  N_2
REMARK    2  A    between atoms: N_2  and  C_3
REMARK    3  A    between atoms: N_2  and  C_4
REMARK    4  A    between atoms: C_7  and  N_8
REMARK    5  A    between atoms: C_11  and  N_12
REMARK    6  A    between atoms: C_13  and  C_14
REMARK    7  A    between atoms: C_14  and  C_16
REMARK                            x       y       z     vdW  Elec       q    Type
REMARK                         _______ _______ _______ _____ _____    ______ ____
ROOT
ATOM      1  N   UNL     1       2.949   6.394  18.562  0.00  0.00    +0.000 N 
ATOM      2  C   UNL     1       4.191   6.291  18.023  0.00  0.00    +0.000 A 
ATOM      3  N   UNL     1       5.103   7.233  17.963  0.00  0.00    +0.000 NA
ATOM      4  C   UNL     1       6.197   6.814  17.277  0.00  0.00    +0.000 A 
ATOM      5  C   UNL     1       6.182   5.509  16.837  0.00  0.00    +0.000 A 
ATOM      6  S   UNL     1       4.673   4.806  17.288  0.00  0.00    +0.000 S 
ATOM      7  H   UNL     1       2.354   5.582  18.460  0.00  0.00    +0.000 HD
ENDROOT
BRANCH   1  11
ATOM      8  C   UNL     1       0.621   9.907  19.338  0.00  0.00    +0.000 A 
ATOM      9  C   UNL     1       1.043   9.037  20.353  0.00  0.00    +0.000 A 
ATOM     10  C   UNL     1       1.833   7.904  20.090  0.00  0.00    +0.000 A 
ATOM     11  C   UNL     1       2.240   7.592  18.791  0.00  0.00    +0.000 A 
ATOM     12  C   UNL     1       1.908   8.502  17.791  0.00  0.00    +0.000 A 
ATOM     13  C   UNL     1       1.112   9.626  18.056  0.00  0.00    +0.000 A 
BRANCH   8  15
ATOM     14  C   UNL     1      -1.339  11.255  18.682  0.00  0.00    +0.000 C 
ATOM     15  N   UNL     1      -0.214  11.003  19.574  0.00  0.00    +0.000 N 
ATOM     16  C   UNL     1       0.360  12.168  20.247  0.00  0.00    +0.000 C 
ENDBRANCH   8  15
ENDBRANCH   1  11
BRANCH   4  17
ATOM     17  N   UNL     1       7.151   7.741  17.108  0.00  0.00    +0.000 N 
ATOM     18  H   UNL     1       7.718   7.952  17.926  0.00  0.00    +0.000 HD
ATOM     19  H   UNL     1       7.044   8.534  16.484  0.00  0.00    +0.000 HD
ENDBRANCH   4  17
BRANCH   5  20
ATOM     20  C   UNL     1       7.138   4.706  16.106  0.00  0.00    +0.000 C 
ATOM     21  O   UNL     1       8.070   4.101  16.641  0.00  0.00    +0.000 OA
BRANCH  20  22
ATOM     22  C   UNL     1       7.017   4.563  14.627  0.00  0.00    +0.000 A 
ATOM     23  C   UNL     1       7.827   5.363  13.805  0.00  0.00    +0.000 A 
ATOM     24  C   UNL     1       7.758   5.244  12.415  0.00  0.00    +0.000 A 
ATOM     25  C   UNL     1       6.880   4.328  11.842  0.00  0.00    +0.000 A 
ATOM     26  C   UNL     1       6.061   3.556  12.659  0.00  0.00    +0.000 A 
ATOM     27  F   UNL     1       5.220   2.675  12.103  0.00  0.00    +0.000 F 
ATOM     28  C   UNL     1       6.106   3.676  14.043  0.00  0.00    +0.000 A 
ENDBRANCH  20  22
ENDBRANCH   5  20
TORSDOF 5
ENDMDL
MODEL 2
REMARK VINA RESULT:      -7.9      1.387      1.969
REMARK  Name = 
REMARK  7 active torsions:
REMARK  status: ('A' for Active; 'I' for Inactive)
REMARK    1  A    between atoms: C_1  and  N_2
REMARK    2  A    between atoms: N_2  and  C_3
REMARK    3  A    between atoms: N_2  and  C_4
REMARK    4  A    between atoms: C_7  and  N_8
REMARK    5  A    between atoms: C_11  and  N_12
REMARK    6  A    between atoms: C_13  and  C_14
REMARK    7  A    between atoms: C_14  and  C_16
REMARK                            x       y       z     vdW  Elec       q    Type
REMARK                         _______ _______ _______ _____ _____    ______ ____
ROOT
ATOM      1  N   UNL     1       2.817   7.670  17.447  0.00  0.00    +0.000 N 
ATOM      2  C   UNL     1       3.803   6.738  17.483  0.00  0.00    +0.000 A 
ATOM      3  N   UNL     1       4.063   5.904  18.462  0.00  0.00    +0.000 NA
ATOM      4  C   UNL     1       5.176   5.171  18.201  0.00  0.00    +0.000 A 
ATOM      5  C   UNL     1       5.775   5.380  16.979  0.00  0.00    +0.000 A 
ATOM      6  S   UNL     1       4.891   6.607  16.149  0.00  0.00    +0.000 S 
ATOM      7  H   UNL     1       2.806   8.272  16.634  0.00  0.00    +0.000 HD
ENDROOT
BRANCH   1  11
ATOM      8  C   UNL     1       0.922   9.495  20.830  0.00  0.00    +0.000 A 
ATOM      9  C   UNL     1       0.925  10.079  19.555  0.00  0.00    +0.000 A 
ATOM     10  C   UNL     1       1.523   9.456  18.446  0.00  0.00    +0.000 A 
ATOM     11  C   UNL     1       2.146   8.212  18.563  0.00  0.00    +0.000 A 
ATOM     12  C   UNL     1       2.064   7.581  19.803  0.00  0.00    +0.000 A 
ATOM     13  C   UNL     1       1.474   8.210  20.908  0.00  0.00    +0.000 A 
BRANCH   8  15
ATOM     14  C   UNL     1       0.161   9.359  23.173  0.00  0.00    +0.000 C 
ATOM     15  N   UNL     1       0.386  10.128  21.955  0.00  0.00    +0.000 N 
ATOM     16  C   UNL     1      -0.486  11.282  21.741  0.00  0.00    +0.000 C 
ENDBRANCH   8  15
ENDBRANCH   1  11
BRANCH   4  17
ATOM     17  N   UNL     1       5.553   4.342  19.185  0.00  0.00    +0.000 N 
ATOM     18  H   UNL     1       4.878   4.202  19.933  0.00  0.00    +0.000 HD
ATOM     19  H   UNL     1       6.514   4.258  19.496  0.00  0.00    +0.000 HD
ENDBRANCH   4  17
BRANCH   5  20
ATOM     20  C   UNL     1       6.935   4.799  16.339  0.00  0.00    +0.000 C 
ATOM     21  O   UNL     1       7.931   4.414  16.956  0.00  0.00    +0.000 OA
BRANCH  20  22
ATOM     22  C   UNL     1       6.963   4.625  14.859  0.00  0.00    +0.000 A 
ATOM     23  C   UNL     1       7.840   5.422  14.104  0.00  0.00    +0.000 A 
ATOM     24  C   UNL     1       7.911   5.274  12.718  0.00  0.00    +0.000 A 
ATOM     25  C   UNL     1       7.107   4.332  12.080  0.00  0.00    +0.000 A 
ATOM     26  C   UNL     1       6.222   3.564  12.828  0.00  0.00    +0.000 A 
ATOM     27  F   UNL     1       5.452   2.658  12.211  0.00  0.00    +0.000 F 
ATOM     28  C   UNL     1       6.127   3.712  14.207  0.00  0.00    +0.000 A 
ENDBRANCH  20  22
ENDBRANCH   5  20
TORSDOF 5
ENDMDL
MODEL 3
REMARK VINA RESULT:      -7.8      0.509      1.118
REMARK  Name = 
REMARK  7 active torsions:
REMARK  status: ('A' for Active; 'I' for Inactive)
REMARK    1  A    between atoms: C_1  and  N_2
REMARK    2  A    between atoms: N_2  and  C_3
REMARK    3  A    between atoms: N_2  and  C_4
REMARK    4  A    between atoms: C_7  and  N_8
REMARK    5  A    between atoms: C_11  and  N_12
REMARK    6  A    between atoms: C_13  and  C_14
REMARK    7  A    between atoms: C_14  and  C_16
REMARK                            x       y       z     vdW  Elec       q    Type
REMARK                         _______ _______ _______ _____ _____    ______ ____
ROOT
ATOM      1  N   UNL     1       2.970   6.332  18.656  0.00  0.00    +0.000 N 
ATOM      2  C   UNL     1       4.199   6.253  18.083  0.00  0.00    +0.000 A 
ATOM      3  N   UNL     1       5.075   7.222  17.963  0.00  0.00    +0.000 NA
ATOM      4  C   UNL     1       6.163   6.816  17.259  0.00  0.00    +0.000 A 
ATOM      5  C   UNL     1       6.180   5.496  16.864  0.00  0.00    +0.000 A 
ATOM      6  S   UNL     1       4.711   4.759  17.385  0.00  0.00    +0.000 S 
ATOM      7  H   UNL     1       2.401   5.498  18.600  0.00  0.00    +0.000 HD
ENDROOT
BRANCH   1  11
ATOM      8  C   UNL     1       0.895  10.039  19.217  0.00  0.00    +0.000 A 
ATOM      9  C   UNL     1       1.312   9.587  17.957  0.00  0.00    +0.000 A 
ATOM     10  C   UNL     1       1.965   8.354  17.781  0.00  0.00    +0.000 A 
ATOM     11  C   UNL     1       2.228   7.513  18.865  0.00  0.00    +0.000 A 
ATOM     12  C   UNL     1       1.731   7.910  20.105  0.00  0.00    +0.000 A 
ATOM     13  C   UNL     1       1.088   9.144  20.276  0.00  0.00    +0.000 A 
BRANCH   8  15
ATOM     14  C   UNL     1       0.940  12.484  18.885  0.00  0.00    +0.000 C 
ATOM     15  N   UNL     1       0.299  11.288  19.417  0.00  0.00    +0.000 N 
ATOM     16  C   UNL     1      -0.531  11.467  20.608  0.00  0.00    +0.000 C 
ENDBRANCH   8  15
ENDBRANCH   1  11
BRANCH   4  17
ATOM     17  N   UNL     1       7.078   7.768  17.029  0.00  0.00    +0.000 N 
ATOM     18  H   UNL     1       7.604   7.682  16.162  0.00  0.00    +0.000 HD
ATOM     19  H   UNL     1       7.607   8.214  17.771  0.00  0.00    +0.000 HD
ENDBRANCH   4  17
BRANCH   5  20
ATOM     20  C   UNL     1       7.142   4.701  16.132  0.00  0.00    +0.000 C 
ATOM     21  O   UNL     1       8.075   4.097  16.667  0.00  0.00    +0.000 OA
BRANCH  20  22
ATOM     22  C   UNL     1       7.025   4.563  14.653  0.00  0.00    +0.000 A 
ATOM     23  C   UNL     1       7.836   5.369  13.836  0.00  0.00    +0.000 A 
ATOM     24  C   UNL     1       7.772   5.256  12.446  0.00  0.00    +0.000 A 
ATOM     25  C   UNL     1       6.897   4.340  11.866  0.00  0.00    +0.000 A 
ATOM     26  C   UNL     1       6.077   3.563  12.678  0.00  0.00    +0.000 A 
ATOM     27  F   UNL     1       5.239   2.682  12.116  0.00  0.00    +0.000 F 
ATOM     28  C   UNL     1       6.117   3.678  14.062  0.00  0.00    +0.000 A 
ENDBRANCH  20  22
ENDBRANCH   5  20
TORSDOF 5
ENDMDL
MODEL 4
REMARK VINA RESULT:      -7.7      1.355      1.712
REMARK  Name = 
REMARK  7 active torsions:
REMARK  status: ('A' for Active; 'I' for Inactive)
REMARK    1  A    between atoms: C_1  and  N_2
REMARK    2  A    between atoms: N_2  and  C_3
REMARK    3  A    between atoms: N_2  and  C_4
REMARK    4  A    between atoms: C_7  and  N_8
REMARK    5  A    between atoms: C_11  and  N_12
REMARK    6  A    between atoms: C_13  and  C_14
REMARK    7  A    between atoms: C_14  and  C_16
REMARK                            x       y       z     vdW  Elec       q    Type
REMARK                         _______ _______ _______ _____ _____    ______ ____
ROOT
ATOM      1  N   UNL     1       2.797   7.603  17.444  0.00  0.00    +0.000 N 
ATOM      2  C   UNL     1       3.833   6.727  17.512  0.00  0.00    +0.000 A 
ATOM      3  N   UNL     1       4.207   6.031  18.559  0.00  0.00    +0.000 NA
ATOM      4  C   UNL     1       5.336   5.322  18.300  0.00  0.00    +0.000 A 
ATOM      5  C   UNL     1       5.833   5.408  17.019  0.00  0.00    +0.000 A 
ATOM      6  S   UNL     1       4.827   6.484  16.122  0.00  0.00    +0.000 S 
ATOM      7  H   UNL     1       2.695   8.101  16.570  0.00  0.00    +0.000 HD
ENDROOT
BRANCH   1  11
ATOM      8  C   UNL     1       0.767   9.386  20.770  0.00  0.00    +0.000 A 
ATOM      9  C   UNL     1       1.369   8.121  20.838  0.00  0.00    +0.000 A 
ATOM     10  C   UNL     1       2.059   7.560  19.749  0.00  0.00    +0.000 A 
ATOM     11  C   UNL     1       2.181   8.245  18.538  0.00  0.00    +0.000 A 
ATOM     12  C   UNL     1       1.670   9.540  18.493  0.00  0.00    +0.000 A 
ATOM     13  C   UNL     1       0.975  10.092  19.578  0.00  0.00    +0.000 A 
BRANCH   8  15
ATOM     14  C   UNL     1      -0.353  11.340  21.779  0.00  0.00    +0.000 C 
ATOM     15  N   UNL     1       0.025   9.933  21.821  0.00  0.00    +0.000 N 
ATOM     16  C   UNL     1       0.178   9.338  23.149  0.00  0.00    +0.000 C 
ENDBRANCH   8  15
ENDBRANCH   1  11
BRANCH   4  17
ATOM     17  N   UNL     1       5.828   4.636  19.342  0.00  0.00    +0.000 N 
ATOM     18  H   UNL     1       5.144   4.157  19.923  0.00  0.00    +0.000 HD
ATOM     19  H   UNL     1       6.650   4.932  19.858  0.00  0.00    +0.000 HD
ENDBRANCH   4  17
BRANCH   5  20
ATOM     20  C   UNL     1       6.974   4.807  16.363  0.00  0.00    +0.000 C 
ATOM     21  O   UNL     1       7.971   4.403  16.966  0.00  0.00    +0.000 OA
BRANCH  20  22
ATOM     22  C   UNL     1       6.979   4.633  14.883  0.00  0.00    +0.000 A 
ATOM     23  C   UNL     1       7.847   5.427  14.115  0.00  0.00    +0.000 A 
ATOM     24  C   UNL     1       7.896   5.280  12.727  0.00  0.00    +0.000 A 
ATOM     25  C   UNL     1       7.079   4.342  12.102  0.00  0.00    +0.000 A 
ATOM     26  C   UNL     1       6.203   3.576  12.863  0.00  0.00    +0.000 A 
ATOM     27  F   UNL     1       5.420   2.674  12.257  0.00  0.00    +0.000 F 
ATOM     28  C   UNL     1       6.129   3.724  14.243  0.00  0.00    +0.000 A 
ENDBRANCH  20  22
ENDBRANCH   5  20
TORSDOF 5
ENDMDL
MODEL 5
REMARK VINA RESULT:      -7.6      1.673      2.370
REMARK  Name = 
REMARK  7 active torsions:
REMARK  status: ('A' for Active; 'I' for Inactive)
REMARK    1  A    between atoms: C_1  and  N_2
REMARK    2  A    between atoms: N_2  and  C_3
REMARK    3  A    between atoms: N_2  and  C_4
REMARK    4  A    between atoms: C_7  and  N_8
REMARK    5  A    between atoms: C_11  and  N_12
REMARK    6  A    between atoms: C_13  and  C_14
REMARK    7  A    between atoms: C_14  and  C_16
REMARK                            x       y       z     vdW  Elec       q    Type
REMARK                         _______ _______ _______ _____ _____    ______ ____
ROOT
ATOM      1  N   UNL     1       2.797   7.719  17.519  0.00  0.00    +0.000 N 
ATOM      2  C   UNL     1       3.786   6.790  17.571  0.00  0.00    +0.000 A 
ATOM      3  N   UNL     1       4.037   5.964  18.560  0.00  0.00    +0.000 NA
ATOM      4  C   UNL     1       5.155   5.232  18.316  0.00  0.00    +0.000 A 
ATOM      5  C   UNL     1       5.765   5.433  17.098  0.00  0.00    +0.000 A 
ATOM      6  S   UNL     1       4.887   6.651  16.249  0.00  0.00    +0.000 S 
ATOM      7  H   UNL     1       2.793   8.315  16.701  0.00  0.00    +0.000 HD
ENDROOT
BRANCH   1  11
ATOM      8  C   UNL     1       0.854   9.571  20.859  0.00  0.00    +0.000 A 
ATOM      9  C   UNL     1       0.808  10.105  19.563  0.00  0.00    +0.000 A 
ATOM     10  C   UNL     1       1.424   9.472  18.469  0.00  0.00    +0.000 A 
ATOM     11  C   UNL     1       2.114   8.267  18.624  0.00  0.00    +0.000 A 
ATOM     12  C   UNL     1       2.081   7.681  19.887  0.00  0.00    +0.000 A 
ATOM     13  C   UNL     1       1.474   8.321  20.977  0.00  0.00    +0.000 A 
BRANCH   8  15
ATOM     14  C   UNL     1      -0.335   9.430  23.017  0.00  0.00    +0.000 C 
ATOM     15  N   UNL     1       0.300  10.217  21.967  0.00  0.00    +0.000 N 
ATOM     16  C   UNL     1      -0.193  11.583  21.787  0.00  0.00    +0.000 C 
ENDBRANCH   8  15
ENDBRANCH   1  11
BRANCH   4  17
ATOM     17  N   UNL     1       5.524   4.411  19.310  0.00  0.00    +0.000 N 
ATOM     18  H   UNL     1       6.446   3.991  19.222  0.00  0.00    +0.000 HD
ATOM     19  H   UNL     1       4.866   3.825  19.813  0.00  0.00    +0.000 HD
ENDBRANCH   4  17
BRANCH   5  20
ATOM     20  C   UNL     1       6.934   4.850  16.475  0.00  0.00    +0.000 C 
ATOM     21  O   UNL     1       7.917   4.457  17.106  0.00  0.00    +0.000 OA
BRANCH  20  22
ATOM     22  C   UNL     1       6.986   4.684  14.995  0.00  0.00    +0.000 A 
ATOM     23  C   UNL     1       6.212   3.672  14.403  0.00  0.00    +0.000 A 
ATOM     24  C   UNL     1       6.218   3.498  13.018  0.00  0.00    +0.000 A 
ATOM     25  C   UNL     1       6.998   4.330  12.219  0.00  0.00    +0.000 A 
ATOM     26  C   UNL     1       7.783   5.313  12.811  0.00  0.00    +0.000 A 
ATOM     27  F   UNL     1       8.530   6.112  12.039  0.00  0.00    +0.000 F 
ATOM     28  C   UNL     1       7.802   5.487  14.189  0.00  0.00    +0.000 A 
ENDBRANCH  20  22
ENDBRANCH   5  20
TORSDOF 5
ENDMDL
MODEL 6
REMARK VINA RESULT:      -7.6      0.940      1.517
REMARK  Name = 
REMARK  7 active torsions:
REMARK  status: ('A' for Active; 'I' for Inactive)
REMARK    1  A    between atoms: C_1  and  N_2
REMARK    2  A    between atoms: N_2  and  C_3
REMARK    3  A    between atoms: N_2  and  C_4
REMARK    4  A    between atoms: C_7  and  N_8
REMARK    5  A    between atoms: C_11  and  N_12
REMARK    6  A    between atoms: C_13  and  C_14
REMARK    7  A    between atoms: C_14  and  C_16
REMARK                            x       y       z     vdW  Elec       q    Type
REMARK                         _______ _______ _______ _____ _____    ______ ____
ROOT
ATOM      1  N   UNL     1       2.932   6.462  18.585  0.00  0.00    +0.000 N 
ATOM      2  C   UNL     1       4.171   6.348  18.042  0.00  0.00    +0.000 A 
ATOM      3  N   UNL     1       5.083   7.288  17.958  0.00  0.00    +0.000 NA
ATOM      4  C   UNL     1       6.174   6.854  17.275  0.00  0.00    +0.000 A 
ATOM      5  C   UNL     1       6.156   5.541  16.861  0.00  0.00    +0.000 A 
ATOM      6  S   UNL     1       4.649   4.847  17.334  0.00  0.00    +0.000 S 
ATOM      7  H   UNL     1       2.337   5.649  18.503  0.00  0.00    +0.000 HD
ENDROOT
BRANCH   1  11
ATOM      8  C   UNL     1       0.607   9.991  19.293  0.00  0.00    +0.000 A 
ATOM      9  C   UNL     1       0.988   9.115  20.320  0.00  0.00    +0.000 A 
ATOM     10  C   UNL     1       1.777   7.976  20.080  0.00  0.00    +0.000 A 
ATOM     11  C   UNL     1       2.226   7.664  18.794  0.00  0.00    +0.000 A 
ATOM     12  C   UNL     1       1.933   8.580  17.786  0.00  0.00    +0.000 A 
ATOM     13  C   UNL     1       1.138   9.709  18.028  0.00  0.00    +0.000 A 
BRANCH   8  15
ATOM     14  C   UNL     1      -0.032  11.928  20.682  0.00  0.00    +0.000 C 
ATOM     15  N   UNL     1      -0.228  11.092  19.504  0.00  0.00    +0.000 N 
ATOM     16  C   UNL     1      -1.585  11.036  18.962  0.00  0.00    +0.000 C 
ENDBRANCH   8  15
ENDBRANCH   1  11
BRANCH   4  17
ATOM     17  N   UNL     1       7.127   7.777  17.082  0.00  0.00    +0.000 N 
ATOM     18  H   UNL     1       7.555   7.791  16.159  0.00  0.00    +0.000 HD
ATOM     19  H   UNL     1       7.757   8.080  17.817  0.00  0.00    +0.000 HD
ENDBRANCH   4  17
BRANCH   5  20
ATOM     20  C   UNL     1       7.107   4.723  16.141  0.00  0.00    +0.000 C 
ATOM     21  O   UNL     1       8.014   4.090  16.689  0.00  0.00    +0.000 OA
BRANCH  20  22
ATOM     22  C   UNL     1       7.014   4.597  14.659  0.00  0.00    +0.000 A 
ATOM     23  C   UNL     1       6.202   3.586  14.119  0.00  0.00    +0.000 A 
ATOM     24  C   UNL     1       6.072   3.449  12.735  0.00  0.00    +0.000 A 
ATOM     25  C   UNL     1       6.753   4.319  11.887  0.00  0.00    +0.000 A 
ATOM     26  C   UNL     1       7.576   5.302  12.426  0.00  0.00    +0.000 A 
ATOM     27  F   UNL     1       8.226   6.137  11.606  0.00  0.00    +0.000 F 
ATOM     28  C   UNL     1       7.729   5.439  13.800  0.00  0.00    +0.000 A 
ENDBRANCH  20  22
ENDBRANCH   5  20
TORSDOF 5
ENDMDL
MODEL 7
REMARK VINA RESULT:      -7.6      1.702      2.233
REMARK  Name = 
REMARK  7 active torsions:
REMARK  status: ('A' for Active; 'I' for Inactive)
REMARK    1  A    between atoms: C_1  and  N_2
REMARK    2  A    between atoms: N_2  and  C_3
REMARK    3  A    between atoms: N_2  and  C_4
REMARK    4  A    between atoms: C_7  and  N_8
REMARK    5  A    between atoms: C_11  and  N_12
REMARK    6  A    between atoms: C_13  and  C_14
REMARK    7  A    between atoms: C_14  and  C_16
REMARK                            x       y       z     vdW  Elec       q    Type
REMARK                         _______ _______ _______ _____ _____    ______ ____
ROOT
ATOM      1  N   UNL     1       2.802   7.690  17.534  0.00  0.00    +0.000 N 
ATOM      2  C   UNL     1       3.802   6.774  17.589  0.00  0.00    +0.000 A 
ATOM      3  N   UNL     1       4.098   5.991  18.600  0.00  0.00    +0.000 NA
ATOM      4  C   UNL     1       5.213   5.260  18.346  0.00  0.00    +0.000 A 
ATOM      5  C   UNL     1       5.778   5.417  17.099  0.00  0.00    +0.000 A 
ATOM      6  S   UNL     1       4.857   6.591  16.235  0.00  0.00    +0.000 S 
ATOM      7  H   UNL     1       2.762   8.252  16.694  0.00  0.00    +0.000 HD
ENDROOT
BRANCH   1  11
ATOM      8  C   UNL     1       0.681   9.297  20.893  0.00  0.00    +0.000 A 
ATOM      9  C   UNL     1       1.350   8.065  20.937  0.00  0.00    +0.000 A 
ATOM     10  C   UNL     1       2.068   7.563  19.837  0.00  0.00    +0.000 A 
ATOM     11  C   UNL     1       2.153   8.277  18.640  0.00  0.00    +0.000 A 
ATOM     12  C   UNL     1       1.573   9.543  18.620  0.00  0.00    +0.000 A 
ATOM     13  C   UNL     1       0.849  10.036  19.715  0.00  0.00    +0.000 A 
BRANCH   8  15
ATOM     14  C   UNL     1      -0.773  11.062  21.820  0.00  0.00    +0.000 C 
ATOM     15  N   UNL     1      -0.088   9.782  21.954  0.00  0.00    +0.000 N 
ATOM     16  C   UNL     1       0.286   9.381  23.310  0.00  0.00    +0.000 C 
ENDBRANCH   8  15
ENDBRANCH   1  11
BRANCH   4  17
ATOM     17  N   UNL     1       5.627   4.485  19.358  0.00  0.00    +0.000 N 
ATOM     18  H   UNL     1       6.620   4.263  19.374  0.00  0.00    +0.000 HD
ATOM     19  H   UNL     1       5.051   3.754  19.763  0.00  0.00    +0.000 HD
ENDBRANCH   4  17
BRANCH   5  20
ATOM     20  C   UNL     1       6.930   4.821  16.459  0.00  0.00    +0.000 C 
ATOM     21  O   UNL     1       7.914   4.405  17.076  0.00  0.00    +0.000 OA
BRANCH  20  22
ATOM     22  C   UNL     1       6.964   4.666  14.977  0.00  0.00    +0.000 A 
ATOM     23  C   UNL     1       6.172   3.667  14.386  0.00  0.00    +0.000 A 
ATOM     24  C   UNL     1       6.161   3.504  12.999  0.00  0.00    +0.000 A 
ATOM     25  C   UNL     1       6.940   4.335  12.198  0.00  0.00    +0.000 A 
ATOM     26  C   UNL     1       7.742   5.305  12.789  0.00  0.00    +0.000 A 
ATOM     27  F   UNL     1       8.488   6.104  12.015  0.00  0.00    +0.000 F 
ATOM     28  C   UNL     1       7.778   5.468  14.169  0.00  0.00    +0.000 A 
ENDBRANCH  20  22
ENDBRANCH   5  20
TORSDOF 5
ENDMDL
MODEL 8
REMARK VINA RESULT:      -7.5      0.967      1.792
REMARK  Name = 
REMARK  7 active torsions:
REMARK  status: ('A' for Active; 'I' for Inactive)
REMARK    1  A    between atoms: C_1  and  N_2
REMARK    2  A    between atoms: N_2  and  C_3
REMARK    3  A    between atoms: N_2  and  C_4
REMARK    4  A    between atoms: C_7  and  N_8
REMARK    5  A    between atoms: C_11  and  N_12
REMARK    6  A    between atoms: C_13  and  C_14
REMARK    7  A    between atoms: C_14  and  C_16
REMARK                            x       y       z     vdW  Elec       q    Type
REMARK                         _______ _______ _______ _____ _____    ______ ____
ROOT
ATOM      1  N   UNL     1       2.956   6.323  18.705  0.00  0.00    +0.000 N 
ATOM      2  C   UNL     1       4.184   6.247  18.132  0.00  0.00    +0.000 A 
ATOM      3  N   UNL     1       5.060   7.217  18.015  0.00  0.00    +0.000 NA
ATOM      4  C   UNL     1       6.148   6.815  17.310  0.00  0.00    +0.000 A 
ATOM      5  C   UNL     1       6.167   5.496  16.911  0.00  0.00    +0.000 A 
ATOM      6  S   UNL     1       4.698   4.756  17.429  0.00  0.00    +0.000 S 
ATOM      7  H   UNL     1       2.388   5.488  18.647  0.00  0.00    +0.000 HD
ENDROOT
BRANCH   1  11
ATOM      8  C   UNL     1       0.876  10.026  19.276  0.00  0.00    +0.000 A 
ATOM      9  C   UNL     1       1.291   9.576  18.014  0.00  0.00    +0.000 A 
ATOM     10  C   UNL     1       1.945   8.344  17.835  0.00  0.00    +0.000 A 
ATOM     11  C   UNL     1       2.212   7.502  18.918  0.00  0.00    +0.000 A 
ATOM     12  C   UNL     1       1.717   7.897  20.159  0.00  0.00    +0.000 A 
ATOM     13  C   UNL     1       1.073   9.130  20.334  0.00  0.00    +0.000 A 
BRANCH   8  15
ATOM     14  C   UNL     1       1.004  12.307  20.206  0.00  0.00    +0.000 C 
ATOM     15  N   UNL     1       0.279  11.273  19.479  0.00  0.00    +0.000 N 
ATOM     16  C   UNL     1      -1.182  11.331  19.545  0.00  0.00    +0.000 C 
ENDBRANCH   8  15
ENDBRANCH   1  11
BRANCH   4  17
ATOM     17  N   UNL     1       7.063   7.768  17.083  0.00  0.00    +0.000 N 
ATOM     18  H   UNL     1       7.960   7.645  17.546  0.00  0.00    +0.000 HD
ATOM     19  H   UNL     1       6.819   8.743  16.944  0.00  0.00    +0.000 HD
ENDBRANCH   4  17
BRANCH   5  20
ATOM     20  C   UNL     1       7.129   4.704  16.177  0.00  0.00    +0.000 C 
ATOM     21  O   UNL     1       8.051   4.083  16.712  0.00  0.00    +0.000 OA
BRANCH  20  22
ATOM     22  C   UNL     1       7.029   4.592  14.694  0.00  0.00    +0.000 A 
ATOM     23  C   UNL     1       6.212   3.587  14.149  0.00  0.00    +0.000 A 
ATOM     24  C   UNL     1       6.076   3.463  12.765  0.00  0.00    +0.000 A 
ATOM     25  C   UNL     1       6.754   4.339  11.921  0.00  0.00    +0.000 A 
ATOM     26  C   UNL     1       7.582   5.315  12.465  0.00  0.00    +0.000 A 
ATOM     27  F   UNL     1       8.231   6.156  11.649  0.00  0.00    +0.000 F 
ATOM     28  C   UNL     1       7.742   5.439  13.839  0.00  0.00    +0.000 A 
ENDBRANCH  20  22
ENDBRANCH   5  20
TORSDOF 5
ENDMDL
MODEL 9
REMARK VINA RESULT:      -7.4      3.041      4.246
REMARK  Name = 
REMARK  7 active torsions:
REMARK  status: ('A' for Active; 'I' for Inactive)
REMARK    1  A    between atoms: C_1  and  N_2
REMARK    2  A    between atoms: N_2  and  C_3
REMARK    3  A    between atoms: N_2  and  C_4
REMARK    4  A    between atoms: C_7  and  N_8
REMARK    5  A    between atoms: C_11  and  N_12
REMARK    6  A    between atoms: C_13  and  C_14
REMARK    7  A    between atoms: C_14  and  C_16
REMARK                            x       y       z     vdW  Elec       q    Type
REMARK                         _______ _______ _______ _____ _____    ______ ____
ROOT
ATOM      1  N   UNL     1       1.228   7.761  21.564  0.00  0.00    +0.000 N 
ATOM      2  C   UNL     1       1.815   7.313  20.424  0.00  0.00    +0.000 A 
ATOM      3  N   UNL     1       2.157   8.030  19.380  0.00  0.00    +0.000 NA
ATOM      4  C   UNL     1       2.638   7.246  18.381  0.00  0.00    +0.000 A 
ATOM      5  C   UNL     1       2.736   5.899  18.653  0.00  0.00    +0.000 A 
ATOM      6  S   UNL     1       2.140   5.626  20.248  0.00  0.00    +0.000 S 
ATOM      7  H   UNL     1       0.976   7.053  22.240  0.00  0.00    +0.000 HD
ENDROOT
BRANCH   1  11
ATOM      8  C   UNL     1      -1.141  11.296  22.068  0.00  0.00    +0.000 A 
ATOM      9  C   UNL     1      -0.810  10.446  23.133  0.00  0.00    +0.000 A 
ATOM     10  C   UNL     1      -0.006   9.306  22.960  0.00  0.00    +0.000 A 
ATOM     11  C   UNL     1       0.508   8.965  21.707  0.00  0.00    +0.000 A 
ATOM     12  C   UNL     1       0.265   9.856  20.664  0.00  0.00    +0.000 A 
ATOM     13  C   UNL     1      -0.545  10.987  20.839  0.00  0.00    +0.000 A 
BRANCH   8  15
ATOM     14  C   UNL     1      -3.043  12.370  23.215  0.00  0.00    +0.000 C 
ATOM     15  N   UNL     1      -1.988  12.399  22.210  0.00  0.00    +0.000 N 
ATOM     16  C   UNL     1      -2.231  13.231  21.032  0.00  0.00    +0.000 C 
ENDBRANCH   8  15
ENDBRANCH   1  11
BRANCH   4  17
ATOM     17  N   UNL     1       2.945   7.894  17.249  0.00  0.00    +0.000 N 
ATOM     18  H   UNL     1       2.925   7.338  16.397  0.00  0.00    +0.000 HD
ATOM     19  H   UNL     1       3.619   8.652  17.213  0.00  0.00    +0.000 HD
ENDBRANCH   4  17
BRANCH   5  20
ATOM     20  C   UNL     1       3.203   4.771  17.877  0.00  0.00    +0.000 C 
ATOM     21  O   UNL     1       2.470   3.852  17.503  0.00  0.00    +0.000 OA
BRANCH  20  22
ATOM     22  C   UNL     1       4.635   4.682  17.474  0.00  0.00    +0.000 A 
ATOM     23  C   UNL     1       4.945   4.208  16.189  0.00  0.00    +0.000 A 
ATOM     24  C   UNL     1       6.273   4.130  15.766  0.00  0.00    +0.000 A 
ATOM     25  C   UNL     1       7.297   4.522  16.625  0.00  0.00    +0.000 A 
ATOM     26  C   UNL     1       6.987   4.965  17.906  0.00  0.00    +0.000 A 
ATOM     27  F   UNL     1       7.975   5.343  18.728  0.00  0.00    +0.000 F 
ATOM     28  C   UNL     1       5.671   5.032  18.347  0.00  0.00    +0.000 A 
ENDBRANCH  20  22
ENDBRANCH   5  20
TORSDOF 5
ENDMDL
