MODEL 1
REMARK VINA RESULT:      -7.5      0.000      0.000
REMARK  Name = 
REMARK  6 active torsions:
REMARK  status: ('A' for Active; 'I' for Inactive)
REMARK    1  A    between atoms: C_1  and  O_2
REMARK    2  A    between atoms: O_2  and  C_3
REMARK    3  A    between atoms: C_6  and  N_7
REMARK    4  A    between atoms: C_22  and  O_23
REMARK    5  A    between atoms: C_22  and  C_24
REMARK    6  A    between atoms: C_24  and  C_25
REMARK                            x       y       z     vdW  Elec       q    Type
REMARK                         _______ _______ _______ _____ _____    ______ ____
ROOT
ATOM      1  C   UNL     1       2.513   3.855  20.274  0.00  0.00    +0.000 A 
ATOM      2  C   UNL     1       3.335   2.824  19.813  0.00  0.00    +0.000 A 
ATOM      3  C   UNL     1       4.295   3.062  18.833  0.00  0.00    +0.000 A 
ATOM      4  C   UNL     1       4.502   4.319  18.232  0.00  0.00    +0.000 A 
ATOM      5  C   UNL     1       3.617   5.336  18.688  0.00  0.00    +0.000 A 
ATOM      6  S   UNL     1       3.454   6.962  18.128  0.00  0.00    +0.000 S 
ATOM      7  C   UNL     1       2.233   7.276  19.250  0.00  0.00    +0.000 A 
ATOM      8  N   UNL     1       1.630   8.507  19.361  0.00  0.00    +0.000 N 
ATOM      9  C   UNL     1       1.809   9.576  18.520  0.00  0.00    +0.000 C 
ATOM     10  O   UNL     1       2.533   9.571  17.528  0.00  0.00    +0.000 OA
ATOM     11  N   UNL     1       1.116  10.737  18.860  0.00  0.00    +0.000 N 
ATOM     12  C   UNL     1       0.341  10.997  20.068  0.00  0.00    +0.000 C 
ATOM     13  C   UNL     1       1.099  11.970  20.975  0.00  0.00    +0.000 C 
ATOM     14  C   UNL     1       1.484  13.265  20.231  0.00  0.00    +0.000 C 
ATOM     15  C   UNL     1       2.188  12.933  18.898  0.00  0.00    +0.000 C 
ATOM     16  C   UNL     1       1.372  11.941  18.070  0.00  0.00    +0.000 C 
ATOM     17  N   UNL     1       1.902   6.275  20.026  0.00  0.00    +0.000 NA
ATOM     18  C   UNL     1       2.654   5.140  19.690  0.00  0.00    +0.000 A 
ATOM     19  H   UNL     1       0.907   8.511  20.056  0.00  0.00    +0.000 HD
ENDROOT
BRANCH   4  20
ATOM     20  N   UNL     1       5.513   4.482  17.303  0.00  0.00    +0.000 N 
ATOM     21  C   UNL     1       6.873   4.903  17.673  0.00  0.00    +0.000 C 
ATOM     22  C   UNL     1       7.312   6.033  16.731  0.00  0.00    +0.000 C 
ATOM     23  O   UNL     1       7.253   5.620  15.353  0.00  0.00    +0.000 OA
ATOM     24  C   UNL     1       5.915   5.231  15.005  0.00  0.00    +0.000 C 
ATOM     25  C   UNL     1       5.392   4.084  15.891  0.00  0.00    +0.000 C 
ENDBRANCH   4  20
BRANCH   1  27
ATOM     26  C   UNL     1       1.536   2.432  21.913  0.00  0.00    +0.000 C 
ATOM     27  O   UNL     1       1.538   3.680  21.228  0.00  0.00    +0.000 OA
ENDBRANCH   1  27
BRANCH  14  28
ATOM     28  O   UNL     1       0.283  13.974  19.904  0.00  0.00    +0.000 OA
ATOM     29  H   UNL     1      -0.457  13.335  19.874  0.00  0.00    +0.000 HD
ENDBRANCH  14  28
BRANCH  14  30
ATOM     30  C   UNL     1       2.403  14.176  21.075  0.00  0.00    +0.000 C 
BRANCH  30  31
ATOM     31  C   UNL     1       3.433  14.947  20.263  0.00  0.00    +0.000 C 
ATOM     32  F   UNL     1       4.676  14.495  20.583  0.00  0.00    +0.000 F 
ENDBRANCH  30  31
ENDBRANCH  14  30
TORSDOF 5
ENDMDL
MODEL 2
REMARK VINA RESULT:      -7.4      0.965      1.292
REMARK  Name = 
REMARK  6 active torsions:
REMARK  status: ('A' for Active; 'I' for Inactive)
REMARK    1  A    between atoms: C_1  and  O_2
REMARK    2  A    between atoms: O_2  and  C_3
REMARK    3  A    between atoms: C_6  and  N_7
REMARK    4  A    between atoms: C_22  and  O_23
REMARK    5  A    between atoms: C_22  and  C_24
REMARK    6  A    between atoms: C_24  and  C_25
REMARK                            x       y       z     vdW  Elec       q    Type
REMARK                         _______ _______ _______ _____ _____    ______ ____
ROOT
ATOM      1  C   UNL     1       2.757   4.290  20.461  0.00  0.00    +0.000 A 
ATOM      2  C   UNL     1       3.651   3.398  19.864  0.00  0.00    +0.000 A 
ATOM      3  C   UNL     1       4.421   3.785  18.771  0.00  0.00    +0.000 A 
ATOM      4  C   UNL     1       4.357   5.063  18.183  0.00  0.00    +0.000 A 
ATOM      5  C   UNL     1       3.403   5.932  18.783  0.00  0.00    +0.000 A 
ATOM      6  S   UNL     1       2.927   7.520  18.296  0.00  0.00    +0.000 S 
ATOM      7  C   UNL     1       1.839   7.639  19.581  0.00  0.00    +0.000 A 
ATOM      8  N   UNL     1       1.082   8.765  19.807  0.00  0.00    +0.000 N 
ATOM      9  C   UNL     1       0.984   9.855  18.980  0.00  0.00    +0.000 C 
ATOM     10  O   UNL     1       1.558   9.967  17.900  0.00  0.00    +0.000 OA
ATOM     11  N   UNL     1       0.181  10.896  19.442  0.00  0.00    +0.000 N 
ATOM     12  C   UNL     1      -0.450  11.028  20.751  0.00  0.00    +0.000 C 
ATOM     13  C   UNL     1       0.274  12.097  21.575  0.00  0.00    +0.000 C 
ATOM     14  C   UNL     1       0.358  13.441  20.822  0.00  0.00    +0.000 C 
ATOM     15  C   UNL     1       0.914  13.228  19.397  0.00  0.00    +0.000 C 
ATOM     16  C   UNL     1       0.146  12.132  18.659  0.00  0.00    +0.000 C 
ATOM     17  N   UNL     1       1.769   6.594  20.365  0.00  0.00    +0.000 NA
ATOM     18  C   UNL     1       2.626   5.587  19.900  0.00  0.00    +0.000 A 
ATOM     19  H   UNL     1       0.469   8.656  20.593  0.00  0.00    +0.000 HD
ENDROOT
BRANCH   4  20
ATOM     20  N   UNL     1       5.195   5.382  17.132  0.00  0.00    +0.000 N 
ATOM     21  C   UNL     1       5.208   4.630  15.868  0.00  0.00    +0.000 C 
ATOM     22  C   UNL     1       6.665   4.307  15.502  0.00  0.00    +0.000 C 
ATOM     23  O   UNL     1       7.458   5.503  15.403  0.00  0.00    +0.000 OA
ATOM     24  C   UNL     1       7.449   6.215  16.651  0.00  0.00    +0.000 C 
ATOM     25  C   UNL     1       6.025   6.598  17.093  0.00  0.00    +0.000 C 
ENDBRANCH   4  20
BRANCH   1  27
ATOM     26  C   UNL     1       1.460   2.632  21.570  0.00  0.00    +0.000 C 
ATOM     27  O   UNL     1       1.959   3.965  21.532  0.00  0.00    +0.000 OA
ENDBRANCH   1  27
BRANCH  14  28
ATOM     28  O   UNL     1      -0.967  13.964  20.680  0.00  0.00    +0.000 OA
ATOM     29  H   UNL     1      -1.093  14.675  21.340  0.00  0.00    +0.000 HD
ENDBRANCH  14  28
BRANCH  14  30
ATOM     30  C   UNL     1       1.240  14.472  21.560  0.00  0.00    +0.000 C 
BRANCH  30  31
ATOM     31  C   UNL     1       2.624  14.656  20.955  0.00  0.00    +0.000 C 
ATOM     32  F   UNL     1       3.478  13.762  21.524  0.00  0.00    +0.000 F 
ENDBRANCH  30  31
ENDBRANCH  14  30
TORSDOF 5
ENDMDL
MODEL 3
REMARK VINA RESULT:      -7.3      1.026      1.100
REMARK  Name = 
REMARK  6 active torsions:
REMARK  status: ('A' for Active; 'I' for Inactive)
REMARK    1  A    between atoms: C_1  and  O_2
REMARK    2  A    between atoms: O_2  and  C_3
REMARK    3  A    between atoms: C_6  and  N_7
REMARK    4  A    between atoms: C_22  and  O_23
REMARK    5  A    between atoms: C_22  and  C_24
REMARK    6  A    between atoms: C_24  and  C_25
REMARK                            x       y       z     vdW  Elec       q    Type
REMARK                         _______ _______ _______ _____ _____    ______ ____
ROOT
ATOM      1  C   UNL     1       2.615   3.922  20.439  0.00  0.00    +0.000 A 
ATOM      2  C   UNL     1       3.509   2.938  20.010  0.00  0.00    +0.000 A 
ATOM      3  C   UNL     1       4.490   3.228  19.067  0.00  0.00    +0.000 A 
ATOM      4  C   UNL     1       4.652   4.495  18.472  0.00  0.00    +0.000 A 
ATOM      5  C   UNL     1       3.696   5.462  18.894  0.00  0.00    +0.000 A 
ATOM      6  S   UNL     1       3.467   7.078  18.327  0.00  0.00    +0.000 S 
ATOM      7  C   UNL     1       2.190   7.324  19.402  0.00  0.00    +0.000 A 
ATOM      8  N   UNL     1       1.517   8.521  19.489  0.00  0.00    +0.000 N 
ATOM      9  C   UNL     1       1.669   9.598  18.654  0.00  0.00    +0.000 C 
ATOM     10  O   UNL     1       2.429   9.634  17.690  0.00  0.00    +0.000 OA
ATOM     11  N   UNL     1       0.902  10.719  18.966  0.00  0.00    +0.000 N 
ATOM     12  C   UNL     1       0.070  10.936  20.145  0.00  0.00    +0.000 C 
ATOM     13  C   UNL     1       0.739  11.948  21.079  0.00  0.00    +0.000 C 
ATOM     14  C   UNL     1       1.082  13.263  20.347  0.00  0.00    +0.000 C 
ATOM     15  C   UNL     1       1.852  12.970  19.042  0.00  0.00    +0.000 C 
ATOM     16  C   UNL     1       1.122  11.937  18.185  0.00  0.00    +0.000 C 
ATOM     17  N   UNL     1       1.884   6.306  20.165  0.00  0.00    +0.000 NA
ATOM     18  C   UNL     1       2.708   5.213  19.860  0.00  0.00    +0.000 A 
ATOM     19  H   UNL     1       0.769   8.485  20.156  0.00  0.00    +0.000 HD
ENDROOT
BRANCH   4  20
ATOM     20  N   UNL     1       5.686   4.713  17.582  0.00  0.00    +0.000 N 
ATOM     21  C   UNL     1       6.930   5.401  17.961  0.00  0.00    +0.000 C 
ATOM     22  C   UNL     1       7.247   6.467  16.901  0.00  0.00    +0.000 C 
ATOM     23  O   UNL     1       7.353   5.885  15.589  0.00  0.00    +0.000 OA
ATOM     24  C   UNL     1       6.124   5.235  15.228  0.00  0.00    +0.000 C 
ATOM     25  C   UNL     1       5.732   4.133  16.230  0.00  0.00    +0.000 C 
ENDBRANCH   4  20
BRANCH   1  27
ATOM     26  C   UNL     1       1.584   2.402  21.952  0.00  0.00    +0.000 C 
ATOM     27  O   UNL     1       1.617   3.694  21.356  0.00  0.00    +0.000 OA
ENDBRANCH   1  27
BRANCH  14  28
ATOM     28  O   UNL     1      -0.143  13.906  19.975  0.00  0.00    +0.000 OA
ATOM     29  H   UNL     1       0.070  14.685  19.423  0.00  0.00    +0.000 HD
ENDBRANCH  14  28
BRANCH  14  30
ATOM     30  C   UNL     1       1.918  14.221  21.225  0.00  0.00    +0.000 C 
BRANCH  30  31
ATOM     31  C   UNL     1       1.095  15.260  21.971  0.00  0.00    +0.000 C 
ATOM     32  F   UNL     1       0.208  14.622  22.783  0.00  0.00    +0.000 F 
ENDBRANCH  30  31
ENDBRANCH  14  30
TORSDOF 5
ENDMDL
MODEL 4
REMARK VINA RESULT:      -6.7      3.121      8.994
REMARK  Name = 
REMARK  6 active torsions:
REMARK  status: ('A' for Active; 'I' for Inactive)
REMARK    1  A    between atoms: C_1  and  O_2
REMARK    2  A    between atoms: O_2  and  C_3
REMARK    3  A    between atoms: C_6  and  N_7
REMARK    4  A    between atoms: C_22  and  O_23
REMARK    5  A    between atoms: C_22  and  C_24
REMARK    6  A    between atoms: C_24  and  C_25
REMARK                            x       y       z     vdW  Elec       q    Type
REMARK                         _______ _______ _______ _____ _____    ______ ____
ROOT
ATOM      1  C   UNL     1      -1.794  10.810  17.297  0.00  0.00    +0.000 A 
ATOM      2  C   UNL     1      -2.468  11.841  17.954  0.00  0.00    +0.000 A 
ATOM      3  C   UNL     1      -2.094  12.235  19.235  0.00  0.00    +0.000 A 
ATOM      4  C   UNL     1      -1.047  11.635  19.962  0.00  0.00    +0.000 A 
ATOM      5  C   UNL     1      -0.411  10.557  19.285  0.00  0.00    +0.000 A 
ATOM      6  S   UNL     1       0.817   9.488  19.862  0.00  0.00    +0.000 S 
ATOM      7  C   UNL     1       0.854   8.660  18.392  0.00  0.00    +0.000 A 
ATOM      8  N   UNL     1       1.712   7.612  18.155  0.00  0.00    +0.000 N 
ATOM      9  C   UNL     1       2.526   7.006  19.079  0.00  0.00    +0.000 C 
ATOM     10  O   UNL     1       2.586   7.315  20.266  0.00  0.00    +0.000 OA
ATOM     11  N   UNL     1       3.339   5.984  18.592  0.00  0.00    +0.000 N 
ATOM     12  C   UNL     1       3.534   5.578  17.205  0.00  0.00    +0.000 C 
ATOM     13  C   UNL     1       4.918   6.018  16.720  0.00  0.00    +0.000 C 
ATOM     14  C   UNL     1       6.039   5.505  17.649  0.00  0.00    +0.000 C 
ATOM     15  C   UNL     1       5.722   5.850  19.120  0.00  0.00    +0.000 C 
ATOM     16  C   UNL     1       4.316   5.394  19.507  0.00  0.00    +0.000 C 
ATOM     17  N   UNL     1       0.021   9.088  17.477  0.00  0.00    +0.000 NA
ATOM     18  C   UNL     1      -0.744  10.148  17.984  0.00  0.00    +0.000 A 
ATOM     19  H   UNL     1       1.581   7.216  17.243  0.00  0.00    +0.000 HD
ENDROOT
BRANCH   4  20
ATOM     20  N   UNL     1      -0.706  12.122  21.210  0.00  0.00    +0.000 N 
ATOM     21  C   UNL     1      -1.226  11.544  22.459  0.00  0.00    +0.000 C 
ATOM     22  C   UNL     1      -1.730  12.684  23.356  0.00  0.00    +0.000 C 
ATOM     23  O   UNL     1      -0.689  13.642  23.621  0.00  0.00    +0.000 OA
ATOM     24  C   UNL     1      -0.206  14.209  22.393  0.00  0.00    +0.000 C 
ATOM     25  C   UNL     1       0.338  13.137  21.430  0.00  0.00    +0.000 C 
ENDBRANCH   4  20
BRANCH   1  27
ATOM     26  C   UNL     1      -3.420  10.714  15.562  0.00  0.00    +0.000 C 
ATOM     27  O   UNL     1      -2.124  10.367  16.038  0.00  0.00    +0.000 OA
ENDBRANCH   1  27
BRANCH  14  28
ATOM     28  O   UNL     1       6.087   4.077  17.555  0.00  0.00    +0.000 OA
ATOM     29  H   UNL     1       5.353   3.778  16.981  0.00  0.00    +0.000 HD
ENDBRANCH  14  28
BRANCH  14  30
ATOM     30  C   UNL     1       7.420   6.089  17.278  0.00  0.00    +0.000 C 
BRANCH  30  31
ATOM     31  C   UNL     1       7.629   7.528  17.727  0.00  0.00    +0.000 C 
ATOM     32  F   UNL     1       8.570   7.552  18.710  0.00  0.00    +0.000 F 
ENDBRANCH  30  31
ENDBRANCH  14  30
TORSDOF 5
ENDMDL
MODEL 5
REMARK VINA RESULT:      -6.7      2.648      5.039
REMARK  Name = 
REMARK  6 active torsions:
REMARK  status: ('A' for Active; 'I' for Inactive)
REMARK    1  A    between atoms: C_1  and  O_2
REMARK    2  A    between atoms: O_2  and  C_3
REMARK    3  A    between atoms: C_6  and  N_7
REMARK    4  A    between atoms: C_22  and  O_23
REMARK    5  A    between atoms: C_22  and  C_24
REMARK    6  A    between atoms: C_24  and  C_25
REMARK                            x       y       z     vdW  Elec       q    Type
REMARK                         _______ _______ _______ _____ _____    ______ ____
ROOT
ATOM      1  C   UNL     1       4.787   5.627  16.502  0.00  0.00    +0.000 A 
ATOM      2  C   UNL     1       5.098   4.270  16.609  0.00  0.00    +0.000 A 
ATOM      3  C   UNL     1       4.487   3.473  17.572  0.00  0.00    +0.000 A 
ATOM      4  C   UNL     1       3.545   3.954  18.503  0.00  0.00    +0.000 A 
ATOM      5  C   UNL     1       3.286   5.350  18.399  0.00  0.00    +0.000 A 
ATOM      6  S   UNL     1       2.306   6.348  19.413  0.00  0.00    +0.000 S 
ATOM      7  C   UNL     1       2.654   7.714  18.484  0.00  0.00    +0.000 A 
ATOM      8  N   UNL     1       2.121   8.951  18.760  0.00  0.00    +0.000 N 
ATOM      9  C   UNL     1       1.382   9.286  19.866  0.00  0.00    +0.000 C 
ATOM     10  O   UNL     1       1.105   8.516  20.782  0.00  0.00    +0.000 OA
ATOM     11  N   UNL     1       0.915  10.599  19.908  0.00  0.00    +0.000 N 
ATOM     12  C   UNL     1       0.995  11.612  18.861  0.00  0.00    +0.000 C 
ATOM     13  C   UNL     1      -0.388  11.835  18.243  0.00  0.00    +0.000 C 
ATOM     14  C   UNL     1      -1.446  12.174  19.314  0.00  0.00    +0.000 C 
ATOM     15  C   UNL     1      -1.403  11.143  20.461  0.00  0.00    +0.000 C 
ATOM     16  C   UNL     1       0.016  10.971  21.001  0.00  0.00    +0.000 C 
ATOM     17  N   UNL     1       3.455   7.521  17.467  0.00  0.00    +0.000 NA
ATOM     18  C   UNL     1       3.864   6.181  17.426  0.00  0.00    +0.000 A 
ATOM     19  H   UNL     1       2.454   9.655  18.128  0.00  0.00    +0.000 HD
ENDROOT
BRANCH   4  20
ATOM     20  N   UNL     1       2.947   3.083  19.394  0.00  0.00    +0.000 N 
ATOM     21  C   UNL     1       1.650   2.442  19.130  0.00  0.00    +0.000 C 
ATOM     22  C   UNL     1       0.761   2.598  20.373  0.00  0.00    +0.000 C 
ATOM     23  O   UNL     1       1.390   2.038  21.541  0.00  0.00    +0.000 OA
ATOM     24  C   UNL     1       2.646   2.688  21.793  0.00  0.00    +0.000 C 
ATOM     25  C   UNL     1       3.614   2.570  20.601  0.00  0.00    +0.000 C 
ENDBRANCH   4  20
BRANCH   1  27
ATOM     26  C   UNL     1       6.279   5.877  14.664  0.00  0.00    +0.000 C 
ATOM     27  O   UNL     1       5.365   6.469  15.581  0.00  0.00    +0.000 OA
ENDBRANCH   1  27
BRANCH  14  28
ATOM     28  O   UNL     1      -1.122  13.447  19.883  0.00  0.00    +0.000 OA
ATOM     29  H   UNL     1      -1.571  14.144  19.364  0.00  0.00    +0.000 HD
ENDBRANCH  14  28
BRANCH  14  30
ATOM     30  C   UNL     1      -2.876  12.223  18.730  0.00  0.00    +0.000 C 
BRANCH  30  31
ATOM     31  C   UNL     1      -3.086  11.325  17.520  0.00  0.00    +0.000 C 
ATOM     32  F   UNL     1      -3.366  10.064  17.949  0.00  0.00    +0.000 F 
ENDBRANCH  30  31
ENDBRANCH  14  30
TORSDOF 5
ENDMDL
MODEL 6
REMARK VINA RESULT:      -6.7      3.839      8.993
REMARK  Name = 
REMARK  6 active torsions:
REMARK  status: ('A' for Active; 'I' for Inactive)
REMARK    1  A    between atoms: C_1  and  O_2
REMARK    2  A    between atoms: O_2  and  C_3
REMARK    3  A    between atoms: C_6  and  N_7
REMARK    4  A    between atoms: C_22  and  O_23
REMARK    5  A    between atoms: C_22  and  C_24
REMARK    6  A    between atoms: C_24  and  C_25
REMARK                            x       y       z     vdW  Elec       q    Type
REMARK                         _______ _______ _______ _____ _____    ______ ____
ROOT
ATOM      1  C   UNL     1      -0.672  11.062  22.057  0.00  0.00    +0.000 A 
ATOM      2  C   UNL     1      -1.678  11.996  21.803  0.00  0.00    +0.000 A 
ATOM      3  C   UNL     1      -2.221  12.129  20.528  0.00  0.00    +0.000 A 
ATOM      4  C   UNL     1      -1.804  11.369  19.418  0.00  0.00    +0.000 A 
ATOM      5  C   UNL     1      -0.745  10.461  19.699  0.00  0.00    +0.000 A 
ATOM      6  S   UNL     1       0.130   9.446  18.609  0.00  0.00    +0.000 S 
ATOM      7  C   UNL     1       1.076   8.833  19.864  0.00  0.00    +0.000 A 
ATOM      8  N   UNL     1       2.042   7.875  19.662  0.00  0.00    +0.000 N 
ATOM      9  C   UNL     1       2.473   7.403  18.449  0.00  0.00    +0.000 C 
ATOM     10  O   UNL     1       2.056   7.789  17.360  0.00  0.00    +0.000 OA
ATOM     11  N   UNL     1       3.441   6.400  18.498  0.00  0.00    +0.000 N 
ATOM     12  C   UNL     1       3.945   5.698  19.673  0.00  0.00    +0.000 C 
ATOM     13  C   UNL     1       3.403   4.266  19.699  0.00  0.00    +0.000 C 
ATOM     14  C   UNL     1       3.708   3.515  18.386  0.00  0.00    +0.000 C 
ATOM     15  C   UNL     1       3.270   4.356  17.168  0.00  0.00    +0.000 C 
ATOM     16  C   UNL     1       3.840   5.773  17.238  0.00  0.00    +0.000 C 
ATOM     17  N   UNL     1       0.823   9.314  21.055  0.00  0.00    +0.000 NA
ATOM     18  C   UNL     1      -0.189  10.282  20.975  0.00  0.00    +0.000 A 
ATOM     19  H   UNL     1       2.529   7.646  20.509  0.00  0.00    +0.000 HD
ENDROOT
BRANCH   4  20
ATOM     20  N   UNL     1      -2.433  11.528  18.197  0.00  0.00    +0.000 N 
ATOM     21  C   UNL     1      -3.850  11.903  18.075  0.00  0.00    +0.000 C 
ATOM     22  C   UNL     1      -4.525  10.959  17.068  0.00  0.00    +0.000 C 
ATOM     23  O   UNL     1      -3.864  10.998  15.790  0.00  0.00    +0.000 OA
ATOM     24  C   UNL     1      -2.488  10.611  15.925  0.00  0.00    +0.000 C 
ATOM     25  C   UNL     1      -1.722  11.516  16.908  0.00  0.00    +0.000 C 
ENDBRANCH   4  20
BRANCH   1  27
ATOM     26  C   UNL     1      -0.060   9.564  23.802  0.00  0.00    +0.000 C 
ATOM     27  O   UNL     1      -0.086  10.892  23.290  0.00  0.00    +0.000 OA
ENDBRANCH   1  27
BRANCH  14  28
ATOM     28  O   UNL     1       5.125   3.338  18.284  0.00  0.00    +0.000 OA
ATOM     29  H   UNL     1       5.336   2.401  18.474  0.00  0.00    +0.000 HD
ENDBRANCH  14  28
BRANCH  14  30
ATOM     30  C   UNL     1       3.013   2.136  18.324  0.00  0.00    +0.000 C 
BRANCH  30  31
ATOM     31  C   UNL     1       1.770   2.025  19.194  0.00  0.00    +0.000 C 
ATOM     32  F   UNL     1       0.691   2.443  18.479  0.00  0.00    +0.000 F 
ENDBRANCH  30  31
ENDBRANCH  14  30
TORSDOF 5
ENDMDL
MODEL 7
REMARK VINA RESULT:      -6.2      2.445      2.890
REMARK  Name = 
REMARK  6 active torsions:
REMARK  status: ('A' for Active; 'I' for Inactive)
REMARK    1  A    between atoms: C_1  and  O_2
REMARK    2  A    between atoms: O_2  and  C_3
REMARK    3  A    between atoms: C_6  and  N_7
REMARK    4  A    between atoms: C_22  and  O_23
REMARK    5  A    between atoms: C_22  and  C_24
REMARK    6  A    between atoms: C_24  and  C_25
REMARK                            x       y       z     vdW  Elec       q    Type
REMARK                         _______ _______ _______ _____ _____    ______ ____
ROOT
ATOM      1  C   UNL     1       2.400   3.894  17.640  0.00  0.00    +0.000 A 
ATOM      2  C   UNL     1       3.560   3.152  17.412  0.00  0.00    +0.000 A 
ATOM      3  C   UNL     1       4.810   3.763  17.416  0.00  0.00    +0.000 A 
ATOM      4  C   UNL     1       5.005   5.143  17.627  0.00  0.00    +0.000 A 
ATOM      5  C   UNL     1       3.800   5.879  17.808  0.00  0.00    +0.000 A 
ATOM      6  S   UNL     1       3.587   7.586  17.970  0.00  0.00    +0.000 S 
ATOM      7  C   UNL     1       1.916   7.410  18.125  0.00  0.00    +0.000 A 
ATOM      8  N   UNL     1       1.076   8.481  18.324  0.00  0.00    +0.000 N 
ATOM      9  C   UNL     1       1.427   9.806  18.279  0.00  0.00    +0.000 C 
ATOM     10  O   UNL     1       2.556  10.222  18.034  0.00  0.00    +0.000 OA
ATOM     11  N   UNL     1       0.404  10.713  18.552  0.00  0.00    +0.000 N 
ATOM     12  C   UNL     1      -0.948  10.426  19.017  0.00  0.00    +0.000 C 
ATOM     13  C   UNL     1      -1.092  10.826  20.488  0.00  0.00    +0.000 C 
ATOM     14  C   UNL     1      -0.686  12.296  20.724  0.00  0.00    +0.000 C 
ATOM     15  C   UNL     1       0.698  12.581  20.102  0.00  0.00    +0.000 C 
ATOM     16  C   UNL     1       0.755  12.131  18.643  0.00  0.00    +0.000 C 
ATOM     17  N   UNL     1       1.464   6.184  18.060  0.00  0.00    +0.000 NA
ATOM     18  C   UNL     1       2.524   5.294  17.834  0.00  0.00    +0.000 A 
ATOM     19  H   UNL     1       0.113   8.202  18.365  0.00  0.00    +0.000 HD
ENDROOT
BRANCH   4  20
ATOM     20  N   UNL     1       6.285   5.662  17.667  0.00  0.00    +0.000 N 
ATOM     21  C   UNL     1       7.358   5.071  18.482  0.00  0.00    +0.000 C 
ATOM     22  C   UNL     1       8.053   6.192  19.269  0.00  0.00    +0.000 C 
ATOM     23  O   UNL     1       8.568   7.208  18.389  0.00  0.00    +0.000 OA
ATOM     24  C   UNL     1       7.504   7.787  17.615  0.00  0.00    +0.000 C 
ATOM     25  C   UNL     1       6.756   6.735  16.776  0.00  0.00    +0.000 C 
ENDBRANCH   4  20
BRANCH   1  27
ATOM     26  C   UNL     1       0.798   2.520  18.741  0.00  0.00    +0.000 C 
ATOM     27  O   UNL     1       1.137   3.351  17.635  0.00  0.00    +0.000 OA
ENDBRANCH   1  27
BRANCH  14  28
ATOM     28  O   UNL     1      -1.628  13.139  20.051  0.00  0.00    +0.000 OA
ATOM     29  H   UNL     1      -1.273  13.358  19.166  0.00  0.00    +0.000 HD
ENDBRANCH  14  28
BRANCH  14  30
ATOM     30  C   UNL     1      -0.652  12.661  22.225  0.00  0.00    +0.000 C 
BRANCH  30  31
ATOM     31  C   UNL     1      -1.555  11.801  23.096  0.00  0.00    +0.000 C 
ATOM     32  F   UNL     1      -2.851  12.151  22.870  0.00  0.00    +0.000 F 
ENDBRANCH  30  31
ENDBRANCH  14  30
TORSDOF 5
ENDMDL
MODEL 8
REMARK VINA RESULT:      -5.8      6.317      8.819
REMARK  Name = 
REMARK  6 active torsions:
REMARK  status: ('A' for Active; 'I' for Inactive)
REMARK    1  A    between atoms: C_1  and  O_2
REMARK    2  A    between atoms: O_2  and  C_3
REMARK    3  A    between atoms: C_6  and  N_7
REMARK    4  A    between atoms: C_22  and  O_23
REMARK    5  A    between atoms: C_22  and  C_24
REMARK    6  A    between atoms: C_24  and  C_25
REMARK                            x       y       z     vdW  Elec       q    Type
REMARK                         _______ _______ _______ _____ _____    ______ ____
ROOT
ATOM      1  C   UNL     1      -0.727  13.935  22.943  0.00  0.00    +0.000 A 
ATOM      2  C   UNL     1      -1.936  13.245  22.829  0.00  0.00    +0.000 A 
ATOM      3  C   UNL     1      -2.199  12.447  21.720  0.00  0.00    +0.000 A 
ATOM      4  C   UNL     1      -1.304  12.282  20.645  0.00  0.00    +0.000 A 
ATOM      5  C   UNL     1      -0.103  13.036  20.768  0.00  0.00    +0.000 A 
ATOM      6  S   UNL     1       1.186  13.213  19.630  0.00  0.00    +0.000 S 
ATOM      7  C   UNL     1       2.037  14.222  20.682  0.00  0.00    +0.000 A 
ATOM      8  N   UNL     1       3.271  14.743  20.369  0.00  0.00    +0.000 N 
ATOM      9  C   UNL     1       3.904  14.655  19.155  0.00  0.00    +0.000 C 
ATOM     10  O   UNL     1       3.438  14.101  18.163  0.00  0.00    +0.000 OA
ATOM     11  N   UNL     1       5.171  15.231  19.089  0.00  0.00    +0.000 N 
ATOM     12  C   UNL     1       5.961  15.788  20.182  0.00  0.00    +0.000 C 
ATOM     13  C   UNL     1       7.124  14.851  20.517  0.00  0.00    +0.000 C 
ATOM     14  C   UNL     1       7.980  14.533  19.273  0.00  0.00    +0.000 C 
ATOM     15  C   UNL     1       7.084  14.069  18.105  0.00  0.00    +0.000 C 
ATOM     16  C   UNL     1       5.941  15.052  17.857  0.00  0.00    +0.000 C 
ATOM     17  N   UNL     1       1.457  14.468  21.829  0.00  0.00    +0.000 NA
ATOM     18  C   UNL     1       0.209  13.832  21.880  0.00  0.00    +0.000 A 
ATOM     19  H   UNL     1       3.621  15.344  21.092  0.00  0.00    +0.000 HD
ENDROOT
BRANCH   4  20
ATOM     20  N   UNL     1      -1.623  11.428  19.606  0.00  0.00    +0.000 N 
ATOM     21  C   UNL     1      -0.937  10.144  19.393  0.00  0.00    +0.000 C 
ATOM     22  C   UNL     1      -0.540  10.037  17.913  0.00  0.00    +0.000 C 
ATOM     23  O   UNL     1      -1.687  10.163  17.052  0.00  0.00    +0.000 OA
ATOM     24  C   UNL     1      -2.332  11.430  17.260  0.00  0.00    +0.000 C 
ATOM     25  C   UNL     1      -2.783  11.622  18.720  0.00  0.00    +0.000 C 
ENDBRANCH   4  20
BRANCH   1  27
ATOM     26  C   UNL     1      -1.187  15.936  24.145  0.00  0.00    +0.000 C 
ATOM     27  O   UNL     1      -0.413  14.750  24.005  0.00  0.00    +0.000 OA
ENDBRANCH   1  27
BRANCH  14  28
ATOM     28  O   UNL     1       8.628  15.737  18.850  0.00  0.00    +0.000 OA
ATOM     29  H   UNL     1       7.942  16.383  18.586  0.00  0.00    +0.000 HD
ENDBRANCH  14  28
BRANCH  14  30
ATOM     30  C   UNL     1       9.045  13.450  19.555  0.00  0.00    +0.000 C 
BRANCH  30  31
ATOM     31  C   UNL     1      10.269  13.531  18.656  0.00  0.00    +0.000 C 
ATOM     32  F   UNL     1      10.065  12.751  17.560  0.00  0.00    +0.000 F 
ENDBRANCH  30  31
ENDBRANCH  14  30
TORSDOF 5
ENDMDL
MODEL 9
REMARK VINA RESULT:      -5.8      3.382      9.190
REMARK  Name = 
REMARK  6 active torsions:
REMARK  status: ('A' for Active; 'I' for Inactive)
REMARK    1  A    between atoms: C_1  and  O_2
REMARK    2  A    between atoms: O_2  and  C_3
REMARK    3  A    between atoms: C_6  and  N_7
REMARK    4  A    between atoms: C_22  and  O_23
REMARK    5  A    between atoms: C_22  and  C_24
REMARK    6  A    between atoms: C_24  and  C_25
REMARK                            x       y       z     vdW  Elec       q    Type
REMARK                         _______ _______ _______ _____ _____    ______ ____
ROOT
ATOM      1  C   UNL     1      -1.709  10.761  17.290  0.00  0.00    +0.000 A 
ATOM      2  C   UNL     1      -2.229  11.928  17.854  0.00  0.00    +0.000 A 
ATOM      3  C   UNL     1      -1.690  12.455  19.024  0.00  0.00    +0.000 A 
ATOM      4  C   UNL     1      -0.619  11.867  19.726  0.00  0.00    +0.000 A 
ATOM      5  C   UNL     1      -0.144  10.655  19.152  0.00  0.00    +0.000 A 
ATOM      6  S   UNL     1       1.056   9.567  19.755  0.00  0.00    +0.000 S 
ATOM      7  C   UNL     1       0.871   8.549  18.422  0.00  0.00    +0.000 A 
ATOM      8  N   UNL     1       1.617   7.405  18.257  0.00  0.00    +0.000 N 
ATOM      9  C   UNL     1       2.476   6.858  19.175  0.00  0.00    +0.000 C 
ATOM     10  O   UNL     1       2.687   7.318  20.295  0.00  0.00    +0.000 OA
ATOM     11  N   UNL     1       3.153   5.711  18.764  0.00  0.00    +0.000 N 
ATOM     12  C   UNL     1       3.166   5.106  17.436  0.00  0.00    +0.000 C 
ATOM     13  C   UNL     1       4.519   5.350  16.763  0.00  0.00    +0.000 C 
ATOM     14  C   UNL     1       5.692   4.869  17.644  0.00  0.00    +0.000 C 
ATOM     15  C   UNL     1       5.562   5.435  19.074  0.00  0.00    +0.000 C 
ATOM     16  C   UNL     1       4.175   5.164  19.656  0.00  0.00    +0.000 C 
ATOM     17  N   UNL     1      -0.021   8.923  17.540  0.00  0.00    +0.000 NA
ATOM     18  C   UNL     1      -0.645  10.106  17.961  0.00  0.00    +0.000 A 
ATOM     19  H   UNL     1       1.359   6.904  17.427  0.00  0.00    +0.000 HD
ENDROOT
BRANCH   4  20
ATOM     20  N   UNL     1      -0.110  12.485  20.853  0.00  0.00    +0.000 N 
ATOM     21  C   UNL     1      -0.705  12.320  22.188  0.00  0.00    +0.000 C 
ATOM     22  C   UNL     1      -0.860  13.705  22.832  0.00  0.00    +0.000 C 
ATOM     23  O   UNL     1       0.403  14.393  22.907  0.00  0.00    +0.000 OA
ATOM     24  C   UNL     1       0.960  14.561  21.594  0.00  0.00    +0.000 C 
ATOM     25  C   UNL     1       1.167  13.217  20.872  0.00  0.00    +0.000 C 
ENDBRANCH   4  20
BRANCH   1  27
ATOM     26  C   UNL     1      -3.146  10.953  15.403  0.00  0.00    +0.000 C 
ATOM     27  O   UNL     1      -2.205  10.184  16.145  0.00  0.00    +0.000 OA
ENDBRANCH   1  27
BRANCH  14  28
ATOM     28  O   UNL     1       5.621   3.442  17.751  0.00  0.00    +0.000 OA
ATOM     29  H   UNL     1       5.121   3.097  16.984  0.00  0.00    +0.000 HD
ENDBRANCH  14  28
BRANCH  14  30
ATOM     30  C   UNL     1       7.065   5.271  17.062  0.00  0.00    +0.000 C 
BRANCH  30  31
ATOM     31  C   UNL     1       7.108   5.320  15.543  0.00  0.00    +0.000 C 
ATOM     32  F   UNL     1       7.053   4.051  15.057  0.00  0.00    +0.000 F 
ENDBRANCH  30  31
ENDBRANCH  14  30
TORSDOF 5
ENDMDL
