MODEL 1
REMARK VINA RESULT:      -6.6      0.000      0.000
REMARK  Name = 
REMARK  9 active torsions:
REMARK  status: ('A' for Active; 'I' for Inactive)
REMARK    1  A    between atoms: C_1  and  C_2
REMARK    2  A    between atoms: C_6  and  C_7
REMARK    3  A    between atoms: C_7  and  N_8
REMARK    4  A    between atoms: N_8  and  C_9
REMARK    5  A    between atoms: N_8  and  C_10
REMARK    6  A    between atoms: N_8  and  C_13
REMARK    7  A    between atoms: C_10  and  C_11
REMARK    8  A    between atoms: C_13  and  C_14
REMARK    9  A    between atoms: C_16  and  N_17
REMARK                            x       y       z     vdW  Elec       q    Type
REMARK                         _______ _______ _______ _____ _____    ______ ____
ROOT
ATOM      1  C   UNL     1       1.616   2.813  21.092  0.00  0.00    +0.000 C 
ATOM      2  C   UNL     1       2.170   4.029  20.403  0.00  0.00    +0.000 A 
ATOM      3  C   UNL     1       1.654   5.280  20.749  0.00  0.00    +0.000 A 
ATOM      4  C   UNL     1       2.163   6.430  20.161  0.00  0.00    +0.000 A 
ATOM      5  C   UNL     1       3.149   6.339  19.181  0.00  0.00    +0.000 A 
ATOM      6  C   UNL     1       3.606   5.105  18.680  0.00  0.00    +0.000 A 
ATOM      7  C   UNL     1       3.180   3.975  19.403  0.00  0.00    +0.000 A 
ENDROOT
BRANCH   7   8
ATOM      8  N   UNL     1       3.834   2.698  19.169  0.00  0.00    +0.000 N 
ATOM      9  O   UNL     1       3.351   1.947  18.309  0.00  0.00    +0.000 OA
ATOM     10  O   UNL     1       4.791   2.430  19.911  0.00  0.00    +0.000 OA
ENDBRANCH   7   8
BRANCH   6  11
ATOM     11  C   UNL     1       4.468   5.095  17.431  0.00  0.00    +0.000 C 
BRANCH  11  12
ATOM     12  N   UNL     1       6.033   5.420  17.650  0.00  0.00    +0.000 N 
ATOM     13  C   UNL     1       6.320   5.303  19.156  0.00  0.00    +0.000 C 
BRANCH  12  14
ATOM     14  C   UNL     1       6.889   4.402  16.825  0.00  0.00    +0.000 C 
BRANCH  14  15
ATOM     15  C   UNL     1       7.008   4.587  15.304  0.00  0.00    +0.000 C 
ATOM     16 CL   UNL     1       5.499   4.221  14.440  0.00  0.00    +0.000 Cl
ENDBRANCH  14  15
ENDBRANCH  12  14
BRANCH  12  17
ATOM     17  C   UNL     1       6.338   6.889  17.257  0.00  0.00    +0.000 C 
BRANCH  17  18
ATOM     18  C   UNL     1       7.770   7.360  17.520  0.00  0.00    +0.000 C 
ATOM     19 CL   UNL     1       7.763   9.113  17.840  0.00  0.00    +0.000 Cl
ENDBRANCH  17  18
ENDBRANCH  12  17
ENDBRANCH  11  12
ENDBRANCH   6  11
TORSDOF 7
ENDMDL
MODEL 2
REMARK VINA RESULT:      -6.5      1.435      3.021
REMARK  Name = 
REMARK  9 active torsions:
REMARK  status: ('A' for Active; 'I' for Inactive)
REMARK    1  A    between atoms: C_1  and  C_2
REMARK    2  A    between atoms: C_6  and  C_7
REMARK    3  A    between atoms: C_7  and  N_8
REMARK    4  A    between atoms: N_8  and  C_9
REMARK    5  A    between atoms: N_8  and  C_10
REMARK    6  A    between atoms: N_8  and  C_13
REMARK    7  A    between atoms: C_10  and  C_11
REMARK    8  A    between atoms: C_13  and  C_14
REMARK    9  A    between atoms: C_16  and  N_17
REMARK                            x       y       z     vdW  Elec       q    Type
REMARK                         _______ _______ _______ _____ _____    ______ ____
ROOT
ATOM      1  C   UNL     1       1.990   3.179  21.458  0.00  0.00    +0.000 C 
ATOM      2  C   UNL     1       2.406   4.090  20.336  0.00  0.00    +0.000 A 
ATOM      3  C   UNL     1       1.974   5.417  20.366  0.00  0.00    +0.000 A 
ATOM      4  C   UNL     1       2.366   6.299  19.366  0.00  0.00    +0.000 A 
ATOM      5  C   UNL     1       3.140   5.850  18.300  0.00  0.00    +0.000 A 
ATOM      6  C   UNL     1       3.484   4.495  18.132  0.00  0.00    +0.000 A 
ATOM      7  C   UNL     1       3.200   3.668  19.235  0.00  0.00    +0.000 A 
ENDROOT
BRANCH   7   8
ATOM      8  N   UNL     1       3.789   2.340  19.293  0.00  0.00    +0.000 N 
ATOM      9  O   UNL     1       4.855   2.204  19.910  0.00  0.00    +0.000 OA
ATOM     10  O   UNL     1       3.206   1.455  18.649  0.00  0.00    +0.000 OA
ENDBRANCH   7   8
BRANCH   6  11
ATOM     11  C   UNL     1       4.086   4.050  16.811  0.00  0.00    +0.000 C 
BRANCH  11  12
ATOM     12  N   UNL     1       5.538   4.656  16.457  0.00  0.00    +0.000 N 
ATOM     13  C   UNL     1       5.323   6.077  15.910  0.00  0.00    +0.000 C 
BRANCH  12  14
ATOM     14  C   UNL     1       6.417   4.670  17.752  0.00  0.00    +0.000 C 
BRANCH  14  15
ATOM     15  C   UNL     1       7.135   5.969  18.153  0.00  0.00    +0.000 C 
ATOM     16 CL   UNL     1       8.138   5.787  19.608  0.00  0.00    +0.000 Cl
ENDBRANCH  14  15
ENDBRANCH  12  14
BRANCH  12  17
ATOM     17  C   UNL     1       6.198   3.840  15.314  0.00  0.00    +0.000 C 
BRANCH  17  18
ATOM     18  C   UNL     1       5.541   3.980  13.939  0.00  0.00    +0.000 C 
ATOM     19 CL   UNL     1       6.801   3.935  12.679  0.00  0.00    +0.000 Cl
ENDBRANCH  17  18
ENDBRANCH  12  17
ENDBRANCH  11  12
ENDBRANCH   6  11
TORSDOF 7
ENDMDL
MODEL 3
REMARK VINA RESULT:      -6.4      1.449      2.841
REMARK  Name = 
REMARK  9 active torsions:
REMARK  status: ('A' for Active; 'I' for Inactive)
REMARK    1  A    between atoms: C_1  and  C_2
REMARK    2  A    between atoms: C_6  and  C_7
REMARK    3  A    between atoms: C_7  and  N_8
REMARK    4  A    between atoms: N_8  and  C_9
REMARK    5  A    between atoms: N_8  and  C_10
REMARK    6  A    between atoms: N_8  and  C_13
REMARK    7  A    between atoms: C_10  and  C_11
REMARK    8  A    between atoms: C_13  and  C_14
REMARK    9  A    between atoms: C_16  and  N_17
REMARK                            x       y       z     vdW  Elec       q    Type
REMARK                         _______ _______ _______ _____ _____    ______ ____
ROOT
ATOM      1  C   UNL     1       1.149   2.936  20.945  0.00  0.00    +0.000 C 
ATOM      2  C   UNL     1       1.842   4.000  20.141  0.00  0.00    +0.000 A 
ATOM      3  C   UNL     1       1.720   5.328  20.556  0.00  0.00    +0.000 A 
ATOM      4  C   UNL     1       2.374   6.337  19.861  0.00  0.00    +0.000 A 
ATOM      5  C   UNL     1       3.105   6.038  18.714  0.00  0.00    +0.000 A 
ATOM      6  C   UNL     1       3.145   4.745  18.158  0.00  0.00    +0.000 A 
ATOM      7  C   UNL     1       2.601   3.732  18.969  0.00  0.00    +0.000 A 
ENDROOT
BRANCH   7   8
ATOM      8  N   UNL     1       2.869   2.341  18.639  0.00  0.00    +0.000 N 
ATOM      9  O   UNL     1       2.079   1.763  17.878  0.00  0.00    +0.000 OA
ATOM     10  O   UNL     1       3.838   1.820  19.211  0.00  0.00    +0.000 OA
ENDBRANCH   7   8
BRANCH   6  11
ATOM     11  C   UNL     1       3.728   4.562  16.768  0.00  0.00    +0.000 C 
BRANCH  11  12
ATOM     12  N   UNL     1       5.323   4.768  16.638  0.00  0.00    +0.000 N 
ATOM     13  C   UNL     1       5.564   6.216  16.181  0.00  0.00    +0.000 C 
BRANCH  12  14
ATOM     14  C   UNL     1       5.990   4.490  18.027  0.00  0.00    +0.000 C 
BRANCH  14  15
ATOM     15  C   UNL     1       7.504   4.707  18.185  0.00  0.00    +0.000 C 
ATOM     16 CL   UNL     1       7.903   6.045  19.285  0.00  0.00    +0.000 Cl
ENDBRANCH  14  15
ENDBRANCH  12  14
BRANCH  12  17
ATOM     17  C   UNL     1       5.895   3.853  15.524  0.00  0.00    +0.000 C 
BRANCH  17  18
ATOM     18  C   UNL     1       6.513   4.578  14.327  0.00  0.00    +0.000 C 
ATOM     19 CL   UNL     1       6.343   3.563  12.873  0.00  0.00    +0.000 Cl
ENDBRANCH  17  18
ENDBRANCH  12  17
ENDBRANCH  11  12
ENDBRANCH   6  11
TORSDOF 7
ENDMDL
MODEL 4
REMARK VINA RESULT:      -6.3      0.991      1.399
REMARK  Name = 
REMARK  9 active torsions:
REMARK  status: ('A' for Active; 'I' for Inactive)
REMARK    1  A    between atoms: C_1  and  C_2
REMARK    2  A    between atoms: C_6  and  C_7
REMARK    3  A    between atoms: C_7  and  N_8
REMARK    4  A    between atoms: N_8  and  C_9
REMARK    5  A    between atoms: N_8  and  C_10
REMARK    6  A    between atoms: N_8  and  C_13
REMARK    7  A    between atoms: C_10  and  C_11
REMARK    8  A    between atoms: C_13  and  C_14
REMARK    9  A    between atoms: C_16  and  N_17
REMARK                            x       y       z     vdW  Elec       q    Type
REMARK                         _______ _______ _______ _____ _____    ______ ____
ROOT
ATOM      1  C   UNL     1       2.148   3.800  21.213  0.00  0.00    +0.000 C 
ATOM      2  C   UNL     1       2.644   4.679  20.099  0.00  0.00    +0.000 A 
ATOM      3  C   UNL     1       2.187   5.997  20.042  0.00  0.00    +0.000 A 
ATOM      4  C   UNL     1       2.650   6.851  19.049  0.00  0.00    +0.000 A 
ATOM      5  C   UNL     1       3.524   6.382  18.072  0.00  0.00    +0.000 A 
ATOM      6  C   UNL     1       3.906   5.030  17.985  0.00  0.00    +0.000 A 
ATOM      7  C   UNL     1       3.541   4.236  19.089  0.00  0.00    +0.000 A 
ENDROOT
BRANCH   7   8
ATOM      8  N   UNL     1       4.147   2.924  19.247  0.00  0.00    +0.000 N 
ATOM      9  O   UNL     1       5.211   2.848  19.877  0.00  0.00    +0.000 OA
ATOM     10  O   UNL     1       3.578   1.985  18.668  0.00  0.00    +0.000 OA
ENDBRANCH   7   8
BRANCH   6  11
ATOM     11  C   UNL     1       4.630   4.551  16.739  0.00  0.00    +0.000 C 
BRANCH  11  12
ATOM     12  N   UNL     1       6.115   5.142  16.515  0.00  0.00    +0.000 N 
ATOM     13  C   UNL     1       7.073   4.326  17.399  0.00  0.00    +0.000 C 
BRANCH  12  14
ATOM     14  C   UNL     1       6.491   5.020  15.001  0.00  0.00    +0.000 C 
BRANCH  14  15
ATOM     15  C   UNL     1       5.590   4.191  14.072  0.00  0.00    +0.000 C 
ATOM     16 CL   UNL     1       6.442   3.589  12.633  0.00  0.00    +0.000 Cl
ENDBRANCH  14  15
ENDBRANCH  12  14
BRANCH  12  17
ATOM     17  C   UNL     1       6.192   6.607  17.018  0.00  0.00    +0.000 C 
BRANCH  17  18
ATOM     18  C   UNL     1       7.359   6.922  17.956  0.00  0.00    +0.000 C 
ATOM     19 CL   UNL     1       7.878   8.608  17.702  0.00  0.00    +0.000 Cl
ENDBRANCH  17  18
ENDBRANCH  12  17
ENDBRANCH  11  12
ENDBRANCH   6  11
TORSDOF 7
ENDMDL
MODEL 5
REMARK VINA RESULT:      -6.2      2.119      3.487
REMARK  Name = 
REMARK  9 active torsions:
REMARK  status: ('A' for Active; 'I' for Inactive)
REMARK    1  A    between atoms: C_1  and  C_2
REMARK    2  A    between atoms: C_6  and  C_7
REMARK    3  A    between atoms: C_7  and  N_8
REMARK    4  A    between atoms: N_8  and  C_9
REMARK    5  A    between atoms: N_8  and  C_10
REMARK    6  A    between atoms: N_8  and  C_13
REMARK    7  A    between atoms: C_10  and  C_11
REMARK    8  A    between atoms: C_13  and  C_14
REMARK    9  A    between atoms: C_16  and  N_17
REMARK                            x       y       z     vdW  Elec       q    Type
REMARK                         _______ _______ _______ _____ _____    ______ ____
ROOT
ATOM      1  C   UNL     1       1.169   4.478  20.675  0.00  0.00    +0.000 C 
ATOM      2  C   UNL     1       2.333   3.776  20.033  0.00  0.00    +0.000 A 
ATOM      3  C   UNL     1       3.055   2.857  20.797  0.00  0.00    +0.000 A 
ATOM      4  C   UNL     1       4.116   2.161  20.230  0.00  0.00    +0.000 A 
ATOM      5  C   UNL     1       4.500   2.419  18.917  0.00  0.00    +0.000 A 
ATOM      6  C   UNL     1       3.911   3.436  18.141  0.00  0.00    +0.000 A 
ATOM      7  C   UNL     1       2.751   4.009  18.694  0.00  0.00    +0.000 A 
ENDROOT
BRANCH   7   8
ATOM      8  N   UNL     1       1.898   4.831  17.851  0.00  0.00    +0.000 N 
ATOM      9  O   UNL     1       2.051   6.061  17.895  0.00  0.00    +0.000 OA
ATOM     10  O   UNL     1       1.025   4.232  17.205  0.00  0.00    +0.000 OA
ENDBRANCH   7   8
BRANCH   6  11
ATOM     11  C   UNL     1       4.570   3.835  16.832  0.00  0.00    +0.000 C 
BRANCH  11  12
ATOM     12  N   UNL     1       5.669   5.011  16.925  0.00  0.00    +0.000 N 
ATOM     13  C   UNL     1       5.047   6.272  16.302  0.00  0.00    +0.000 C 
BRANCH  12  14
ATOM     14  C   UNL     1       6.047   5.243  18.426  0.00  0.00    +0.000 C 
BRANCH  14  15
ATOM     15  C   UNL     1       7.504   5.576  18.786  0.00  0.00    +0.000 C 
ATOM     16 CL   UNL     1       7.980   7.219  18.303  0.00  0.00    +0.000 Cl
ENDBRANCH  14  15
ENDBRANCH  12  14
BRANCH  12  17
ATOM     17  C   UNL     1       6.908   4.658  16.060  0.00  0.00    +0.000 C 
BRANCH  17  18
ATOM     18  C   UNL     1       6.604   4.119  14.661  0.00  0.00    +0.000 C 
ATOM     19 CL   UNL     1       7.459   5.108  13.451  0.00  0.00    +0.000 Cl
ENDBRANCH  17  18
ENDBRANCH  12  17
ENDBRANCH  11  12
ENDBRANCH   6  11
TORSDOF 7
ENDMDL
MODEL 6
REMARK VINA RESULT:      -6.2      1.501      2.222
REMARK  Name = 
REMARK  9 active torsions:
REMARK  status: ('A' for Active; 'I' for Inactive)
REMARK    1  A    between atoms: C_1  and  C_2
REMARK    2  A    between atoms: C_6  and  C_7
REMARK    3  A    between atoms: C_7  and  N_8
REMARK    4  A    between atoms: N_8  and  C_9
REMARK    5  A    between atoms: N_8  and  C_10
REMARK    6  A    between atoms: N_8  and  C_13
REMARK    7  A    between atoms: C_10  and  C_11
REMARK    8  A    between atoms: C_13  and  C_14
REMARK    9  A    between atoms: C_16  and  N_17
REMARK                            x       y       z     vdW  Elec       q    Type
REMARK                         _______ _______ _______ _____ _____    ______ ____
ROOT
ATOM      1  C   UNL     1       1.603   2.828  21.339  0.00  0.00    +0.000 C 
ATOM      2  C   UNL     1       2.067   3.909  20.403  0.00  0.00    +0.000 A 
ATOM      3  C   UNL     1       1.665   5.222  20.655  0.00  0.00    +0.000 A 
ATOM      4  C   UNL     1       2.101   6.254  19.834  0.00  0.00    +0.000 A 
ATOM      5  C   UNL     1       2.892   5.977  18.722  0.00  0.00    +0.000 A 
ATOM      6  C   UNL     1       3.209   4.664  18.326  0.00  0.00    +0.000 A 
ATOM      7  C   UNL     1       2.880   3.665  19.262  0.00  0.00    +0.000 A 
ENDROOT
BRANCH   7   8
ATOM      8  N   UNL     1       3.437   2.332  19.098  0.00  0.00    +0.000 N 
ATOM      9  O   UNL     1       2.826   1.532  18.376  0.00  0.00    +0.000 OA
ATOM     10  O   UNL     1       4.453   2.079  19.763  0.00  0.00    +0.000 OA
ENDBRANCH   7   8
BRANCH   6  11
ATOM     11  C   UNL     1       3.834   4.440  16.960  0.00  0.00    +0.000 C 
BRANCH  11  12
ATOM     12  N   UNL     1       5.393   4.835  16.824  0.00  0.00    +0.000 N 
ATOM     13  C   UNL     1       6.036   3.836  15.847  0.00  0.00    +0.000 C 
BRANCH  12  14
ATOM     14  C   UNL     1       5.505   6.303  16.295  0.00  0.00    +0.000 C 
BRANCH  14  15
ATOM     15  C   UNL     1       5.748   7.442  17.299  0.00  0.00    +0.000 C 
ATOM     16 CL   UNL     1       7.434   8.004  17.316  0.00  0.00    +0.000 Cl
ENDBRANCH  14  15
ENDBRANCH  12  14
BRANCH  12  17
ATOM     17  C   UNL     1       6.116   4.648  18.183  0.00  0.00    +0.000 C 
BRANCH  17  18
ATOM     18  C   UNL     1       7.642   4.577  18.115  0.00  0.00    +0.000 C 
ATOM     19 CL   UNL     1       8.336   5.514  19.463  0.00  0.00    +0.000 Cl
ENDBRANCH  17  18
ENDBRANCH  12  17
ENDBRANCH  11  12
ENDBRANCH   6  11
TORSDOF 7
ENDMDL
MODEL 7
REMARK VINA RESULT:      -6.1      1.076      2.804
REMARK  Name = 
REMARK  9 active torsions:
REMARK  status: ('A' for Active; 'I' for Inactive)
REMARK    1  A    between atoms: C_1  and  C_2
REMARK    2  A    between atoms: C_6  and  C_7
REMARK    3  A    between atoms: C_7  and  N_8
REMARK    4  A    between atoms: N_8  and  C_9
REMARK    5  A    between atoms: N_8  and  C_10
REMARK    6  A    between atoms: N_8  and  C_13
REMARK    7  A    between atoms: C_10  and  C_11
REMARK    8  A    between atoms: C_13  and  C_14
REMARK    9  A    between atoms: C_16  and  N_17
REMARK                            x       y       z     vdW  Elec       q    Type
REMARK                         _______ _______ _______ _____ _____    ______ ____
ROOT
ATOM      1  C   UNL     1       1.099   2.531  20.524  0.00  0.00    +0.000 C 
ATOM      2  C   UNL     1       1.695   3.842  20.094  0.00  0.00    +0.000 A 
ATOM      3  C   UNL     1       1.356   4.991  20.810  0.00  0.00    +0.000 A 
ATOM      4  C   UNL     1       1.913   6.216  20.465  0.00  0.00    +0.000 A 
ATOM      5  C   UNL     1       2.765   6.314  19.369  0.00  0.00    +0.000 A 
ATOM      6  C   UNL     1       3.031   5.226  18.517  0.00  0.00    +0.000 A 
ATOM      7  C   UNL     1       2.573   3.980  18.984  0.00  0.00    +0.000 A 
ENDROOT
BRANCH   7   8
ATOM      8  N   UNL     1       3.060   2.765  18.350  0.00  0.00    +0.000 N 
ATOM      9  O   UNL     1       4.129   2.286  18.754  0.00  0.00    +0.000 OA
ATOM     10  O   UNL     1       2.392   2.342  17.393  0.00  0.00    +0.000 OA
ENDBRANCH   7   8
BRANCH   6  11
ATOM     11  C   UNL     1       3.740   5.482  17.199  0.00  0.00    +0.000 C 
BRANCH  11  12
ATOM     12  N   UNL     1       5.352   5.492  17.255  0.00  0.00    +0.000 N 
ATOM     13  C   UNL     1       5.833   6.720  16.463  0.00  0.00    +0.000 C 
BRANCH  12  14
ATOM     14  C   UNL     1       5.813   5.560  18.749  0.00  0.00    +0.000 C 
BRANCH  14  15
ATOM     15  C   UNL     1       7.313   5.478  19.073  0.00  0.00    +0.000 C 
ATOM     16 CL   UNL     1       8.190   6.975  18.688  0.00  0.00    +0.000 Cl
ENDBRANCH  14  15
ENDBRANCH  12  14
BRANCH  12  17
ATOM     17  C   UNL     1       5.923   4.247  16.526  0.00  0.00    +0.000 C 
BRANCH  17  18
ATOM     18  C   UNL     1       6.845   4.541  15.341  0.00  0.00    +0.000 C 
ATOM     19 CL   UNL     1       6.148   3.830  13.863  0.00  0.00    +0.000 Cl
ENDBRANCH  17  18
ENDBRANCH  12  17
ENDBRANCH  11  12
ENDBRANCH   6  11
TORSDOF 7
ENDMDL
MODEL 8
REMARK VINA RESULT:      -6.1      1.307      2.645
REMARK  Name = 
REMARK  9 active torsions:
REMARK  status: ('A' for Active; 'I' for Inactive)
REMARK    1  A    between atoms: C_1  and  C_2
REMARK    2  A    between atoms: C_6  and  C_7
REMARK    3  A    between atoms: C_7  and  N_8
REMARK    4  A    between atoms: N_8  and  C_9
REMARK    5  A    between atoms: N_8  and  C_10
REMARK    6  A    between atoms: N_8  and  C_13
REMARK    7  A    between atoms: C_10  and  C_11
REMARK    8  A    between atoms: C_13  and  C_14
REMARK    9  A    between atoms: C_16  and  N_17
REMARK                            x       y       z     vdW  Elec       q    Type
REMARK                         _______ _______ _______ _____ _____    ______ ____
ROOT
ATOM      1  C   UNL     1       1.609   2.309  21.226  0.00  0.00    +0.000 C 
ATOM      2  C   UNL     1       2.285   3.517  20.638  0.00  0.00    +0.000 A 
ATOM      3  C   UNL     1       1.629   4.747  20.719  0.00  0.00    +0.000 A 
ATOM      4  C   UNL     1       2.236   5.893  20.219  0.00  0.00    +0.000 A 
ATOM      5  C   UNL     1       3.472   5.811  19.584  0.00  0.00    +0.000 A 
ATOM      6  C   UNL     1       4.116   4.584  19.337  0.00  0.00    +0.000 A 
ATOM      7  C   UNL     1       3.548   3.472  19.988  0.00  0.00    +0.000 A 
ENDROOT
BRANCH   7   8
ATOM      8  N   UNL     1       4.303   2.232  20.057  0.00  0.00    +0.000 N 
ATOM      9  O   UNL     1       4.138   1.400  19.152  0.00  0.00    +0.000 OA
ATOM     10  O   UNL     1       5.005   2.074  21.068  0.00  0.00    +0.000 OA
ENDBRANCH   7   8
BRANCH   6  11
ATOM     11  C   UNL     1       5.312   4.558  18.401  0.00  0.00    +0.000 C 
BRANCH  11  12
ATOM     12  N   UNL     1       4.979   4.670  16.827  0.00  0.00    +0.000 N 
ATOM     13  C   UNL     1       3.648   3.938  16.585  0.00  0.00    +0.000 C 
BRANCH  12  14
ATOM     14  C   UNL     1       4.879   6.181  16.431  0.00  0.00    +0.000 C 
BRANCH  14  15
ATOM     15  C   UNL     1       5.756   7.206  17.168  0.00  0.00    +0.000 C 
ATOM     16 CL   UNL     1       7.476   6.760  17.190  0.00  0.00    +0.000 Cl
ENDBRANCH  14  15
ENDBRANCH  12  14
BRANCH  12  17
ATOM     17  C   UNL     1       6.052   3.920  15.995  0.00  0.00    +0.000 C 
BRANCH  17  18
ATOM     18  C   UNL     1       5.904   4.027  14.477  0.00  0.00    +0.000 C 
ATOM     19 CL   UNL     1       7.276   4.952  13.816  0.00  0.00    +0.000 Cl
ENDBRANCH  17  18
ENDBRANCH  12  17
ENDBRANCH  11  12
ENDBRANCH   6  11
TORSDOF 7
ENDMDL
MODEL 9
REMARK VINA RESULT:      -6.1      2.814      5.449
REMARK  Name = 
REMARK  9 active torsions:
REMARK  status: ('A' for Active; 'I' for Inactive)
REMARK    1  A    between atoms: C_1  and  C_2
REMARK    2  A    between atoms: C_6  and  C_7
REMARK    3  A    between atoms: C_7  and  N_8
REMARK    4  A    between atoms: N_8  and  C_9
REMARK    5  A    between atoms: N_8  and  C_10
REMARK    6  A    between atoms: N_8  and  C_13
REMARK    7  A    between atoms: C_10  and  C_11
REMARK    8  A    between atoms: C_13  and  C_14
REMARK    9  A    between atoms: C_16  and  N_17
REMARK                            x       y       z     vdW  Elec       q    Type
REMARK                         _______ _______ _______ _____ _____    ______ ____
ROOT
ATOM      1  C   UNL     1       7.500   7.294  17.131  0.00  0.00    +0.000 C 
ATOM      2  C   UNL     1       6.667   6.110  16.726  0.00  0.00    +0.000 A 
ATOM      3  C   UNL     1       6.378   5.936  15.372  0.00  0.00    +0.000 A 
ATOM      4  C   UNL     1       5.641   4.835  14.953  0.00  0.00    +0.000 A 
ATOM      5  C   UNL     1       5.139   3.932  15.887  0.00  0.00    +0.000 A 
ATOM      6  C   UNL     1       5.267   4.129  17.275  0.00  0.00    +0.000 A 
ATOM      7  C   UNL     1       6.143   5.165  17.650  0.00  0.00    +0.000 A 
ENDROOT
BRANCH   7   8
ATOM      8  N   UNL     1       6.587   5.249  19.032  0.00  0.00    +0.000 N 
ATOM      9  O   UNL     1       5.803   5.727  19.865  0.00  0.00    +0.000 OA
ATOM     10  O   UNL     1       7.756   4.899  19.254  0.00  0.00    +0.000 OA
ENDBRANCH   7   8
BRANCH   6  11
ATOM     11  C   UNL     1       4.458   3.255  18.217  0.00  0.00    +0.000 C 
BRANCH  11  12
ATOM     12  N   UNL     1       2.986   3.796  18.592  0.00  0.00    +0.000 N 
ATOM     13  C   UNL     1       1.982   2.691  18.224  0.00  0.00    +0.000 C 
BRANCH  12  14
ATOM     14  C   UNL     1       2.935   4.126  20.122  0.00  0.00    +0.000 C 
BRANCH  14  15
ATOM     15  C   UNL     1       1.596   4.009  20.867  0.00  0.00    +0.000 C 
ATOM     16 CL   UNL     1       1.454   2.508  21.808  0.00  0.00    +0.000 Cl
ENDBRANCH  14  15
ENDBRANCH  12  14
BRANCH  12  17
ATOM     17  C   UNL     1       2.626   5.026  17.719  0.00  0.00    +0.000 C 
BRANCH  17  18
ATOM     18  C   UNL     1       2.574   6.366  18.455  0.00  0.00    +0.000 C 
ATOM     19 CL   UNL     1       3.566   7.558  17.576  0.00  0.00    +0.000 Cl
ENDBRANCH  17  18
ENDBRANCH  12  17
ENDBRANCH  11  12
ENDBRANCH   6  11
TORSDOF 7
ENDMDL
