MODEL 1
REMARK VINA RESULT:      -7.3      0.000      0.000
REMARK  Name = 
REMARK  3 active torsions:
REMARK  status: ('A' for Active; 'I' for Inactive)
REMARK    1  A    between atoms: N_3  and  C_4
REMARK    2  A    between atoms: C_4  and  C_5
REMARK    3  A    between atoms: N_13  and  C_14
REMARK                            x       y       z     vdW  Elec       q    Type
REMARK                         _______ _______ _______ _____ _____    ______ ____
ROOT
ATOM      1  O   UNL     1       8.363   7.139  18.810  0.00  0.00    +0.000 OA
ATOM      2  C   UNL     1       7.935   7.979  18.029  0.00  0.00    +0.000 C 
ATOM      3  N   UNL     1       8.329   9.297  18.089  0.00  0.00    +0.000 N 
ATOM      4  N   UNL     1       7.054   7.747  17.001  0.00  0.00    +0.000 N 
ATOM      5  H   UNL     1       7.621   9.966  17.828  0.00  0.00    +0.000 HD
ATOM      6  H   UNL     1       7.017   8.451  16.276  0.00  0.00    +0.000 HD
ENDROOT
BRANCH   4   7
ATOM      7  C   UNL     1       6.383   6.522  16.771  0.00  0.00    +0.000 A 
ATOM      8  C   UNL     1       6.986   5.406  16.185  0.00  0.00    +0.000 A 
ATOM      9  N   UNL     1       6.378   4.203  16.013  0.00  0.00    +0.000 NA
ATOM     10  C   UNL     1       5.098   4.110  16.434  0.00  0.00    +0.000 A 
ATOM     11  C   UNL     1       4.411   5.166  17.006  0.00  0.00    +0.000 A 
ATOM     12  F   UNL     1       3.138   5.014  17.390  0.00  0.00    +0.000 F 
ATOM     13  C   UNL     1       5.056   6.387  17.183  0.00  0.00    +0.000 A 
ENDBRANCH   4   7
BRANCH   3  14
ATOM     14  C   UNL     1       9.211   9.727  19.157  0.00  0.00    +0.000 C 
BRANCH  14  15
ATOM     15  C   UNL     1       9.759  11.112  18.924  0.00  0.00    +0.000 A 
ATOM     16  C   UNL     1      10.303  11.422  17.663  0.00  0.00    +0.000 A 
ATOM     17  C   UNL     1      10.833  12.686  17.400  0.00  0.00    +0.000 A 
ATOM     18  C   UNL     1      10.821  13.659  18.395  0.00  0.00    +0.000 A 
ATOM     19 CL   UNL     1      11.468  15.220  18.072  0.00  0.00    +0.000 Cl
ATOM     20  C   UNL     1      10.291  13.375  19.651  0.00  0.00    +0.000 A 
ATOM     21  C   UNL     1       9.769  12.107  19.916  0.00  0.00    +0.000 A 
ATOM     22 CL   UNL     1       9.143  11.817  21.502  0.00  0.00    +0.000 Cl
ENDBRANCH  14  15
ENDBRANCH   3  14
TORSDOF 3
ENDMDL
MODEL 2
REMARK VINA RESULT:      -7.2      1.214      1.479
REMARK  Name = 
REMARK  3 active torsions:
REMARK  status: ('A' for Active; 'I' for Inactive)
REMARK    1  A    between atoms: N_3  and  C_4
REMARK    2  A    between atoms: C_4  and  C_5
REMARK    3  A    between atoms: N_13  and  C_14
REMARK                            x       y       z     vdW  Elec       q    Type
REMARK                         _______ _______ _______ _____ _____    ______ ____
ROOT
ATOM      1  O   UNL     1       8.289   7.035  18.760  0.00  0.00    +0.000 OA
ATOM      2  C   UNL     1       7.844   7.891  18.006  0.00  0.00    +0.000 C 
ATOM      3  N   UNL     1       8.268   9.200  18.058  0.00  0.00    +0.000 N 
ATOM      4  N   UNL     1       6.910   7.686  17.020  0.00  0.00    +0.000 N 
ATOM      5  H   UNL     1       7.563   9.885  17.835  0.00  0.00    +0.000 HD
ATOM      6  H   UNL     1       6.855   8.397  16.302  0.00  0.00    +0.000 HD
ENDROOT
BRANCH   4   7
ATOM      7  C   UNL     1       6.204   6.477  16.812  0.00  0.00    +0.000 A 
ATOM      8  C   UNL     1       4.993   6.168  17.438  0.00  0.00    +0.000 A 
ATOM      9  N   UNL     1       4.270   5.042  17.203  0.00  0.00    +0.000 NA
ATOM     10  C   UNL     1       4.787   4.171  16.309  0.00  0.00    +0.000 A 
ATOM     11  C   UNL     1       5.987   4.379  15.657  0.00  0.00    +0.000 A 
ATOM     12  F   UNL     1       6.452   3.470  14.791  0.00  0.00    +0.000 F 
ATOM     13  C   UNL     1       6.708   5.545  15.902  0.00  0.00    +0.000 A 
ENDBRANCH   4   7
BRANCH   3  14
ATOM     14  C   UNL     1       9.208   9.602  19.086  0.00  0.00    +0.000 C 
BRANCH  14  15
ATOM     15  C   UNL     1       9.652  11.034  18.927  0.00  0.00    +0.000 A 
ATOM     16  C   UNL     1      10.229  11.432  17.706  0.00  0.00    +0.000 A 
ATOM     17  C   UNL     1      10.666  12.744  17.513  0.00  0.00    +0.000 A 
ATOM     18  C   UNL     1      10.528  13.675  18.537  0.00  0.00    +0.000 A 
ATOM     19 CL   UNL     1      11.061  15.293  18.299  0.00  0.00    +0.000 Cl
ATOM     20  C   UNL     1       9.964  13.304  19.755  0.00  0.00    +0.000 A 
ATOM     21  C   UNL     1       9.534  11.989  19.951  0.00  0.00    +0.000 A 
ATOM     22 CL   UNL     1       8.860  11.591  21.493  0.00  0.00    +0.000 Cl
ENDBRANCH  14  15
ENDBRANCH   3  14
TORSDOF 3
ENDMDL
MODEL 3
REMARK VINA RESULT:      -6.9      1.759      2.018
REMARK  Name = 
REMARK  3 active torsions:
REMARK  status: ('A' for Active; 'I' for Inactive)
REMARK    1  A    between atoms: N_3  and  C_4
REMARK    2  A    between atoms: C_4  and  C_5
REMARK    3  A    between atoms: N_13  and  C_14
REMARK                            x       y       z     vdW  Elec       q    Type
REMARK                         _______ _______ _______ _____ _____    ______ ____
ROOT
ATOM      1  O   UNL     1       8.202   7.220  18.794  0.00  0.00    +0.000 OA
ATOM      2  C   UNL     1       7.831   7.972  17.903  0.00  0.00    +0.000 C 
ATOM      3  N   UNL     1       8.219   9.292  17.854  0.00  0.00    +0.000 N 
ATOM      4  N   UNL     1       7.024   7.629  16.845  0.00  0.00    +0.000 N 
ATOM      5  H   UNL     1       7.531   9.924  17.476  0.00  0.00    +0.000 HD
ATOM      6  H   UNL     1       7.039   8.254  16.050  0.00  0.00    +0.000 HD
ENDROOT
BRANCH   4   7
ATOM      7  C   UNL     1       6.372   6.381  16.696  0.00  0.00    +0.000 A 
ATOM      8  C   UNL     1       5.282   5.977  17.471  0.00  0.00    +0.000 A 
ATOM      9  N   UNL     1       4.605   4.812  17.300  0.00  0.00    +0.000 NA
ATOM     10  C   UNL     1       5.045   3.999  16.315  0.00  0.00    +0.000 A 
ATOM     11  C   UNL     1       6.128   4.302  15.511  0.00  0.00    +0.000 A 
ATOM     12  F   UNL     1       6.523   3.448  14.560  0.00  0.00    +0.000 F 
ATOM     13  C   UNL     1       6.802   5.507  15.694  0.00  0.00    +0.000 A 
ENDBRANCH   4   7
BRANCH   3  14
ATOM     14  C   UNL     1       9.023   9.836  18.932  0.00  0.00    +0.000 C 
BRANCH  14  15
ATOM     15  C   UNL     1       9.817  11.043  18.500  0.00  0.00    +0.000 A 
ATOM     16  C   UNL     1      11.183  11.110  18.833  0.00  0.00    +0.000 A 
ATOM     17  C   UNL     1      11.959  12.210  18.466  0.00  0.00    +0.000 A 
ATOM     18  C   UNL     1      11.378  13.258  17.758  0.00  0.00    +0.000 A 
ATOM     19 CL   UNL     1      12.333  14.613  17.300  0.00  0.00    +0.000 Cl
ATOM     20  C   UNL     1      10.028  13.217  17.420  0.00  0.00    +0.000 A 
ATOM     21  C   UNL     1       9.250  12.118  17.795  0.00  0.00    +0.000 A 
ATOM     22 CL   UNL     1       7.577  12.139  17.360  0.00  0.00    +0.000 Cl
ENDBRANCH  14  15
ENDBRANCH   3  14
TORSDOF 3
ENDMDL
MODEL 4
REMARK VINA RESULT:      -6.9      1.180      1.184
REMARK  Name = 
REMARK  3 active torsions:
REMARK  status: ('A' for Active; 'I' for Inactive)
REMARK    1  A    between atoms: N_3  and  C_4
REMARK    2  A    between atoms: C_4  and  C_5
REMARK    3  A    between atoms: N_13  and  C_14
REMARK                            x       y       z     vdW  Elec       q    Type
REMARK                         _______ _______ _______ _____ _____    ______ ____
ROOT
ATOM      1  O   UNL     1       8.359   7.423  18.699  0.00  0.00    +0.000 OA
ATOM      2  C   UNL     1       7.861   8.154  17.853  0.00  0.00    +0.000 C 
ATOM      3  N   UNL     1       8.201   9.485  17.747  0.00  0.00    +0.000 N 
ATOM      4  N   UNL     1       6.943   7.777  16.904  0.00  0.00    +0.000 N 
ATOM      5  H   UNL     1       7.454  10.093  17.451  0.00  0.00    +0.000 HD
ATOM      6  H   UNL     1       6.843   8.394  16.108  0.00  0.00    +0.000 HD
ENDROOT
BRANCH   4   7
ATOM      7  C   UNL     1       6.314   6.510  16.844  0.00  0.00    +0.000 A 
ATOM      8  C   UNL     1       6.963   5.340  16.438  0.00  0.00    +0.000 A 
ATOM      9  N   UNL     1       6.395   4.106  16.435  0.00  0.00    +0.000 NA
ATOM     10  C   UNL     1       5.109   4.034  16.843  0.00  0.00    +0.000 A 
ATOM     11  C   UNL     1       4.379   5.139  17.242  0.00  0.00    +0.000 A 
ATOM     12  F   UNL     1       3.103   5.003  17.623  0.00  0.00    +0.000 F 
ATOM     13  C   UNL     1       4.983   6.393  17.249  0.00  0.00    +0.000 A 
ENDBRANCH   4   7
BRANCH   3  14
ATOM     14  C   UNL     1       9.114  10.063  18.715  0.00  0.00    +0.000 C 
BRANCH  14  15
ATOM     15  C   UNL     1       9.229  11.559  18.570  0.00  0.00    +0.000 A 
ATOM     16  C   UNL     1       8.333  12.227  17.713  0.00  0.00    +0.000 A 
ATOM     17  C   UNL     1       8.404  13.610  17.536  0.00  0.00    +0.000 A 
ATOM     18  C   UNL     1       9.371  14.343  18.216  0.00  0.00    +0.000 A 
ATOM     19 CL   UNL     1       9.458  16.047  18.002  0.00  0.00    +0.000 Cl
ATOM     20  C   UNL     1      10.271  13.705  19.065  0.00  0.00    +0.000 A 
ATOM     21  C   UNL     1      10.204  12.320  19.236  0.00  0.00    +0.000 A 
ATOM     22 CL   UNL     1      11.362  11.589  20.292  0.00  0.00    +0.000 Cl
ENDBRANCH  14  15
ENDBRANCH   3  14
TORSDOF 3
ENDMDL
MODEL 5
REMARK VINA RESULT:      -6.9      4.373      8.324
REMARK  Name = 
REMARK  3 active torsions:
REMARK  status: ('A' for Active; 'I' for Inactive)
REMARK    1  A    between atoms: N_3  and  C_4
REMARK    2  A    between atoms: C_4  and  C_5
REMARK    3  A    between atoms: N_13  and  C_14
REMARK                            x       y       z     vdW  Elec       q    Type
REMARK                         _______ _______ _______ _____ _____    ______ ____
ROOT
ATOM      1  O   UNL     1       8.763   7.772  19.031  0.00  0.00    +0.000 OA
ATOM      2  C   UNL     1       8.277   8.420  18.115  0.00  0.00    +0.000 C 
ATOM      3  N   UNL     1       7.473   7.841  17.158  0.00  0.00    +0.000 N 
ATOM      4  N   UNL     1       8.428   9.771  17.916  0.00  0.00    +0.000 N 
ATOM      5  H   UNL     1       7.550   8.244  16.237  0.00  0.00    +0.000 HD
ATOM      6  H   UNL     1       7.751  10.213  17.308  0.00  0.00    +0.000 HD
ENDROOT
BRANCH   4   7
ATOM      7  C   UNL     1       9.294  10.607  18.662  0.00  0.00    +0.000 A 
ATOM      8  C   UNL     1       9.197  10.789  20.044  0.00  0.00    +0.000 A 
ATOM      9  N   UNL     1      10.058  11.536  20.785  0.00  0.00    +0.000 NA
ATOM     10  C   UNL     1      11.058  12.145  20.112  0.00  0.00    +0.000 A 
ATOM     11  C   UNL     1      11.222  12.042  18.743  0.00  0.00    +0.000 A 
ATOM     12  F   UNL     1      12.227  12.682  18.134  0.00  0.00    +0.000 F 
ATOM     13  C   UNL     1      10.337  11.262  18.004  0.00  0.00    +0.000 A 
ENDBRANCH   4   7
BRANCH   3  14
ATOM     14  C   UNL     1       7.261   6.407  17.183  0.00  0.00    +0.000 C 
BRANCH  14  15
ATOM     15  C   UNL     1       5.902   6.040  17.724  0.00  0.00    +0.000 A 
ATOM     16  C   UNL     1       5.816   5.470  19.008  0.00  0.00    +0.000 A 
ATOM     17  C   UNL     1       4.583   5.102  19.550  0.00  0.00    +0.000 A 
ATOM     18  C   UNL     1       3.419   5.305  18.815  0.00  0.00    +0.000 A 
ATOM     19 CL   UNL     1       1.898   4.858  19.482  0.00  0.00    +0.000 Cl
ATOM     20  C   UNL     1       3.479   5.863  17.541  0.00  0.00    +0.000 A 
ATOM     21  C   UNL     1       4.714   6.223  16.996  0.00  0.00    +0.000 A 
ATOM     22 CL   UNL     1       4.718   6.895  15.403  0.00  0.00    +0.000 Cl
ENDBRANCH  14  15
ENDBRANCH   3  14
TORSDOF 3
ENDMDL
MODEL 6
REMARK VINA RESULT:      -6.8      6.971      9.084
REMARK  Name = 
REMARK  3 active torsions:
REMARK  status: ('A' for Active; 'I' for Inactive)
REMARK    1  A    between atoms: N_3  and  C_4
REMARK    2  A    between atoms: C_4  and  C_5
REMARK    3  A    between atoms: N_13  and  C_14
REMARK                            x       y       z     vdW  Elec       q    Type
REMARK                         _______ _______ _______ _____ _____    ______ ____
ROOT
ATOM      1  O   UNL     1       1.410   6.517  20.920  0.00  0.00    +0.000 OA
ATOM      2  C   UNL     1       1.849   7.332  20.119  0.00  0.00    +0.000 C 
ATOM      3  N   UNL     1       2.730   6.973  19.123  0.00  0.00    +0.000 N 
ATOM      4  N   UNL     1       1.531   8.667  20.073  0.00  0.00    +0.000 N 
ATOM      5  H   UNL     1       3.407   7.678  18.879  0.00  0.00    +0.000 HD
ATOM      6  H   UNL     1       1.732   9.146  19.205  0.00  0.00    +0.000 HD
ENDROOT
BRANCH   4   7
ATOM      7  C   UNL     1       0.752   9.347  21.040  0.00  0.00    +0.000 A 
ATOM      8  C   UNL     1       0.920   9.195  22.419  0.00  0.00    +0.000 A 
ATOM      9  N   UNL     1       0.225   9.886  23.361  0.00  0.00    +0.000 NA
ATOM     10  C   UNL     1      -0.696  10.763  22.906  0.00  0.00    +0.000 A 
ATOM     11  C   UNL     1      -0.948  10.966  21.562  0.00  0.00    +0.000 A 
ATOM     12  F   UNL     1      -1.884  11.841  21.175  0.00  0.00    +0.000 F 
ATOM     13  C   UNL     1      -0.218  10.257  20.612  0.00  0.00    +0.000 A 
ENDBRANCH   4   7
BRANCH   3  14
ATOM     14  C   UNL     1       3.220   5.609  19.067  0.00  0.00    +0.000 C 
BRANCH  14  15
ATOM     15  C   UNL     1       4.065   5.355  17.844  0.00  0.00    +0.000 A 
ATOM     16  C   UNL     1       4.540   6.458  17.109  0.00  0.00    +0.000 A 
ATOM     17  C   UNL     1       5.317   6.276  15.963  0.00  0.00    +0.000 A 
ATOM     18  C   UNL     1       5.633   4.988  15.542  0.00  0.00    +0.000 A 
ATOM     19 CL   UNL     1       6.595   4.763  14.134  0.00  0.00    +0.000 Cl
ATOM     20  C   UNL     1       5.172   3.882  16.250  0.00  0.00    +0.000 A 
ATOM     21  C   UNL     1       4.387   4.065  17.392  0.00  0.00    +0.000 A 
ATOM     22 CL   UNL     1       3.834   2.648  18.214  0.00  0.00    +0.000 Cl
ENDBRANCH  14  15
ENDBRANCH   3  14
TORSDOF 3
ENDMDL
MODEL 7
REMARK VINA RESULT:      -6.8      6.338      8.253
REMARK  Name = 
REMARK  3 active torsions:
REMARK  status: ('A' for Active; 'I' for Inactive)
REMARK    1  A    between atoms: N_3  and  C_4
REMARK    2  A    between atoms: C_4  and  C_5
REMARK    3  A    between atoms: N_13  and  C_14
REMARK                            x       y       z     vdW  Elec       q    Type
REMARK                         _______ _______ _______ _____ _____    ______ ____
ROOT
ATOM      1  O   UNL     1       4.750   5.824  16.005  0.00  0.00    +0.000 OA
ATOM      2  C   UNL     1       5.671   5.201  16.517  0.00  0.00    +0.000 C 
ATOM      3  N   UNL     1       5.856   5.165  17.881  0.00  0.00    +0.000 N 
ATOM      4  N   UNL     1       6.608   4.455  15.846  0.00  0.00    +0.000 N 
ATOM      5  H   UNL     1       6.818   5.117  18.178  0.00  0.00    +0.000 HD
ATOM      6  H   UNL     1       7.117   3.776  16.396  0.00  0.00    +0.000 HD
ENDROOT
BRANCH   4   7
ATOM      7  C   UNL     1       6.746   4.405  14.437  0.00  0.00    +0.000 A 
ATOM      8  C   UNL     1       7.630   5.210  13.715  0.00  0.00    +0.000 A 
ATOM      9  N   UNL     1       7.822   5.132  12.372  0.00  0.00    +0.000 NA
ATOM     10  C   UNL     1       7.083   4.215  11.711  0.00  0.00    +0.000 A 
ATOM     11  C   UNL     1       6.167   3.389  12.336  0.00  0.00    +0.000 A 
ATOM     12  F   UNL     1       5.455   2.509  11.622  0.00  0.00    +0.000 F 
ATOM     13  C   UNL     1       5.994   3.476  13.714  0.00  0.00    +0.000 A 
ENDBRANCH   4   7
BRANCH   3  14
ATOM     14  C   UNL     1       4.990   5.952  18.737  0.00  0.00    +0.000 C 
BRANCH  14  15
ATOM     15  C   UNL     1       4.014   5.097  19.504  0.00  0.00    +0.000 A 
ATOM     16  C   UNL     1       4.314   3.735  19.698  0.00  0.00    +0.000 A 
ATOM     17  C   UNL     1       3.439   2.898  20.392  0.00  0.00    +0.000 A 
ATOM     18  C   UNL     1       2.254   3.414  20.906  0.00  0.00    +0.000 A 
ATOM     19 CL   UNL     1       1.176   2.386  21.766  0.00  0.00    +0.000 Cl
ATOM     20  C   UNL     1       1.933   4.757  20.724  0.00  0.00    +0.000 A 
ATOM     21  C   UNL     1       2.806   5.592  20.022  0.00  0.00    +0.000 A 
ATOM     22 CL   UNL     1       2.338   7.244  19.817  0.00  0.00    +0.000 Cl
ENDBRANCH  14  15
ENDBRANCH   3  14
TORSDOF 3
ENDMDL
MODEL 8
REMARK VINA RESULT:      -6.8      7.016      8.778
REMARK  Name = 
REMARK  3 active torsions:
REMARK  status: ('A' for Active; 'I' for Inactive)
REMARK    1  A    between atoms: N_3  and  C_4
REMARK    2  A    between atoms: C_4  and  C_5
REMARK    3  A    between atoms: N_13  and  C_14
REMARK                            x       y       z     vdW  Elec       q    Type
REMARK                         _______ _______ _______ _____ _____    ______ ____
ROOT
ATOM      1  O   UNL     1       1.959   7.516  20.225  0.00  0.00    +0.000 OA
ATOM      2  C   UNL     1       2.069   7.856  19.055  0.00  0.00    +0.000 C 
ATOM      3  N   UNL     1       1.566   9.051  18.592  0.00  0.00    +0.000 N 
ATOM      4  N   UNL     1       2.704   7.143  18.067  0.00  0.00    +0.000 N 
ATOM      5  H   UNL     1       1.229   9.032  17.642  0.00  0.00    +0.000 HD
ATOM      6  H   UNL     1       2.969   7.662  17.240  0.00  0.00    +0.000 HD
ENDROOT
BRANCH   4   7
ATOM      7  C   UNL     1       3.206   5.827  18.214  0.00  0.00    +0.000 A 
ATOM      8  C   UNL     1       4.453   5.531  18.771  0.00  0.00    +0.000 A 
ATOM      9  N   UNL     1       4.925   4.273  18.977  0.00  0.00    +0.000 NA
ATOM     10  C   UNL     1       4.120   3.258  18.596  0.00  0.00    +0.000 A 
ATOM     11  C   UNL     1       2.880   3.453  18.016  0.00  0.00    +0.000 A 
ATOM     12  F   UNL     1       2.135   2.404  17.647  0.00  0.00    +0.000 F 
ATOM     13  C   UNL     1       2.409   4.749  17.823  0.00  0.00    +0.000 A 
ENDBRANCH   4   7
BRANCH   3  14
ATOM     14  C   UNL     1       0.810   9.900  19.493  0.00  0.00    +0.000 C 
BRANCH  14  15
ATOM     15  C   UNL     1      -0.491  10.361  18.887  0.00  0.00    +0.000 A 
ATOM     16  C   UNL     1      -0.894   9.816  17.653  0.00  0.00    +0.000 A 
ATOM     17  C   UNL     1      -2.084  10.217  17.044  0.00  0.00    +0.000 A 
ATOM     18  C   UNL     1      -2.890  11.166  17.666  0.00  0.00    +0.000 A 
ATOM     19 CL   UNL     1      -4.360  11.659  16.920  0.00  0.00    +0.000 Cl
ATOM     20  C   UNL     1      -2.511  11.722  18.884  0.00  0.00    +0.000 A 
ATOM     21  C   UNL     1      -1.315  11.326  19.489  0.00  0.00    +0.000 A 
ATOM     22 CL   UNL     1      -0.897  12.069  20.993  0.00  0.00    +0.000 Cl
ENDBRANCH  14  15
ENDBRANCH   3  14
TORSDOF 3
ENDMDL
MODEL 9
REMARK VINA RESULT:      -6.8      4.576      8.420
REMARK  Name = 
REMARK  3 active torsions:
REMARK  status: ('A' for Active; 'I' for Inactive)
REMARK    1  A    between atoms: N_3  and  C_4
REMARK    2  A    between atoms: C_4  and  C_5
REMARK    3  A    between atoms: N_13  and  C_14
REMARK                            x       y       z     vdW  Elec       q    Type
REMARK                         _______ _______ _______ _____ _____    ______ ____
ROOT
ATOM      1  O   UNL     1       8.716   7.542  18.798  0.00  0.00    +0.000 OA
ATOM      2  C   UNL     1       8.096   8.191  17.966  0.00  0.00    +0.000 C 
ATOM      3  N   UNL     1       7.237   7.597  17.069  0.00  0.00    +0.000 N 
ATOM      4  N   UNL     1       8.139   9.556  17.816  0.00  0.00    +0.000 N 
ATOM      5  H   UNL     1       7.193   8.040  16.164  0.00  0.00    +0.000 HD
ATOM      6  H   UNL     1       7.376   9.974  17.300  0.00  0.00    +0.000 HD
ENDROOT
BRANCH   4   7
ATOM      7  C   UNL     1       9.022  10.419  18.510  0.00  0.00    +0.000 A 
ATOM      8  C   UNL     1      10.032  11.158  17.888  0.00  0.00    +0.000 A 
ATOM      9  N   UNL     1      10.847  12.038  18.527  0.00  0.00    +0.000 NA
ATOM     10  C   UNL     1      10.657  12.178  19.857  0.00  0.00    +0.000 A 
ATOM     11  C   UNL     1       9.698  11.474  20.562  0.00  0.00    +0.000 A 
ATOM     12  F   UNL     1       9.568  11.649  21.883  0.00  0.00    +0.000 F 
ATOM     13  C   UNL     1       8.865  10.586  19.887  0.00  0.00    +0.000 A 
ENDBRANCH   4   7
BRANCH   3  14
ATOM     14  C   UNL     1       7.121   6.151  17.049  0.00  0.00    +0.000 C 
BRANCH  14  15
ATOM     15  C   UNL     1       5.697   5.690  17.230  0.00  0.00    +0.000 A 
ATOM     16  C   UNL     1       4.859   6.409  18.103  0.00  0.00    +0.000 A 
ATOM     17  C   UNL     1       3.536   6.016  18.314  0.00  0.00    +0.000 A 
ATOM     18  C   UNL     1       3.034   4.901  17.651  0.00  0.00    +0.000 A 
ATOM     19 CL   UNL     1       1.402   4.418  17.906  0.00  0.00    +0.000 Cl
ATOM     20  C   UNL     1       3.845   4.171  16.787  0.00  0.00    +0.000 A 
ATOM     21  C   UNL     1       5.171   4.560  16.582  0.00  0.00    +0.000 A 
ATOM     22 CL   UNL     1       6.128   3.599  15.509  0.00  0.00    +0.000 Cl
ENDBRANCH  14  15
ENDBRANCH   3  14
TORSDOF 3
ENDMDL
