MODEL 1
REMARK VINA RESULT:      -6.9      0.000      0.000
REMARK  Name = 
REMARK  8 active torsions:
REMARK  status: ('A' for Active; 'I' for Inactive)
REMARK    1  A    between atoms: C_1  and  S_2
REMARK    2  A    between atoms: S_2  and  C_3
REMARK    3  A    between atoms: C_6  and  S_7
REMARK    4  A    between atoms: S_7  and  C_8
REMARK    5  A    between atoms: C_8  and  C_9
REMARK    6  A    between atoms: N_11  and  C_12
REMARK    7  A    between atoms: C_15  and  N_16
REMARK    8  A    between atoms: C_17  and  C_18
REMARK                            x       y       z     vdW  Elec       q    Type
REMARK                         _______ _______ _______ _____ _____    ______ ____
ROOT
ATOM      1  C   UNL     1       2.151   4.686  20.424  0.00  0.00    +0.000 C 
ATOM      2  O   UNL     1       0.932   4.529  20.393  0.00  0.00    +0.000 OA
ATOM      3  N   UNL     1       2.826   5.830  20.008  0.00  0.00    +0.000 N 
ATOM      4  H   UNL     1       3.835   5.761  19.942  0.00  0.00    +0.000 HD
ENDROOT
BRANCH   3   5
ATOM      5  C   UNL     1       2.253   7.080  19.699  0.00  0.00    +0.000 A 
ATOM      6  C   UNL     1       1.574   7.850  20.637  0.00  0.00    +0.000 A 
ATOM      7  C   UNL     1       1.047   9.101  20.297  0.00  0.00    +0.000 A 
ATOM      8  C   UNL     1       1.178   9.612  19.010  0.00  0.00    +0.000 A 
ATOM      9  C   UNL     1       1.856   8.839  18.056  0.00  0.00    +0.000 A 
ATOM     10  C   UNL     1       2.404   7.590  18.404  0.00  0.00    +0.000 A 
BRANCH   8  11
ATOM     11  N   UNL     1       0.678  10.878  18.622  0.00  0.00    +0.000 N 
ATOM     12  C   UNL     1      -0.657  11.243  18.541  0.00  0.00    +0.000 C 
ATOM     13  C   UNL     1      -0.865  12.682  18.147  0.00  0.00    +0.000 C 
ATOM     14  O   UNL     1      -1.632  10.525  18.739  0.00  0.00    +0.000 OA
ATOM     15  H   UNL     1       1.366  11.587  18.402  0.00  0.00    +0.000 HD
ENDBRANCH   8  11
ENDBRANCH   3   5
BRANCH   1  16
ATOM     16  C   UNL     1       3.044   3.517  20.832  0.00  0.00    +0.000 C 
BRANCH  16  17
ATOM     17  S   UNL     1       3.548   2.530  19.398  0.00  0.00    +0.000 S 
BRANCH  17  21
ATOM     18  C   UNL     1       6.358   4.964  18.281  0.00  0.00    +0.000 A 
ATOM     19  N   UNL     1       6.038   4.845  16.993  0.00  0.00    +0.000 NA
ATOM     20  S   UNL     1       4.743   3.802  16.922  0.00  0.00    +0.000 S 
ATOM     21  C   UNL     1       4.706   3.573  18.624  0.00  0.00    +0.000 A 
ATOM     22  N   UNL     1       5.638   4.256  19.244  0.00  0.00    +0.000 NA
BRANCH  18  24
ATOM     23  C   UNL     1       7.460   7.373  17.543  0.00  0.00    +0.000 C 
ATOM     24  S   UNL     1       7.696   6.019  18.702  0.00  0.00    +0.000 S 
ENDBRANCH  18  24
ENDBRANCH  17  21
ENDBRANCH  16  17
ENDBRANCH   1  16
TORSDOF 6
ENDMDL
MODEL 2
REMARK VINA RESULT:      -6.8      1.127      1.520
REMARK  Name = 
REMARK  8 active torsions:
REMARK  status: ('A' for Active; 'I' for Inactive)
REMARK    1  A    between atoms: C_1  and  S_2
REMARK    2  A    between atoms: S_2  and  C_3
REMARK    3  A    between atoms: C_6  and  S_7
REMARK    4  A    between atoms: S_7  and  C_8
REMARK    5  A    between atoms: C_8  and  C_9
REMARK    6  A    between atoms: N_11  and  C_12
REMARK    7  A    between atoms: C_15  and  N_16
REMARK    8  A    between atoms: C_17  and  C_18
REMARK                            x       y       z     vdW  Elec       q    Type
REMARK                         _______ _______ _______ _____ _____    ______ ____
ROOT
ATOM      1  C   UNL     1       2.254   4.838  19.731  0.00  0.00    +0.000 C 
ATOM      2  O   UNL     1       1.515   4.616  18.774  0.00  0.00    +0.000 OA
ATOM      3  N   UNL     1       2.676   6.096  20.149  0.00  0.00    +0.000 N 
ATOM      4  H   UNL     1       3.407   6.118  20.851  0.00  0.00    +0.000 HD
ENDROOT
BRANCH   3   5
ATOM      5  C   UNL     1       2.172   7.339  19.717  0.00  0.00    +0.000 A 
ATOM      6  C   UNL     1       2.377   7.831  18.432  0.00  0.00    +0.000 A 
ATOM      7  C   UNL     1       1.832   9.056  18.033  0.00  0.00    +0.000 A 
ATOM      8  C   UNL     1       1.072   9.826  18.909  0.00  0.00    +0.000 A 
ATOM      9  C   UNL     1       0.866   9.340  20.209  0.00  0.00    +0.000 A 
ATOM     10  C   UNL     1       1.397   8.098  20.602  0.00  0.00    +0.000 A 
BRANCH   8  11
ATOM     11  N   UNL     1       0.486  11.062  18.548  0.00  0.00    +0.000 N 
ATOM     12  C   UNL     1       0.947  12.322  18.897  0.00  0.00    +0.000 C 
ATOM     13  C   UNL     1       0.131  13.445  18.313  0.00  0.00    +0.000 C 
ATOM     14  O   UNL     1       1.906  12.585  19.616  0.00  0.00    +0.000 OA
ATOM     15  H   UNL     1      -0.339  11.016  17.964  0.00  0.00    +0.000 HD
ENDBRANCH   8  11
ENDBRANCH   3   5
BRANCH   1  16
ATOM     16  C   UNL     1       2.878   3.662  20.480  0.00  0.00    +0.000 C 
BRANCH  16  17
ATOM     17  S   UNL     1       3.838   2.598  19.369  0.00  0.00    +0.000 S 
BRANCH  17  21
ATOM     18  C   UNL     1       6.485   5.211  18.261  0.00  0.00    +0.000 A 
ATOM     19  N   UNL     1       6.087   5.174  16.991  0.00  0.00    +0.000 NA
ATOM     20  S   UNL     1       4.825   4.090  16.924  0.00  0.00    +0.000 S 
ATOM     21  C   UNL     1       4.907   3.738  18.603  0.00  0.00    +0.000 A 
ATOM     22  N   UNL     1       5.854   4.409  19.213  0.00  0.00    +0.000 NA
BRANCH  18  24
ATOM     23  C   UNL     1       7.538   7.645  17.534  0.00  0.00    +0.000 C 
ATOM     24  S   UNL     1       7.813   6.283  18.675  0.00  0.00    +0.000 S 
ENDBRANCH  18  24
ENDBRANCH  17  21
ENDBRANCH  16  17
ENDBRANCH   1  16
TORSDOF 6
ENDMDL
MODEL 3
REMARK VINA RESULT:      -6.7      1.100      1.100
REMARK  Name = 
REMARK  8 active torsions:
REMARK  status: ('A' for Active; 'I' for Inactive)
REMARK    1  A    between atoms: C_1  and  S_2
REMARK    2  A    between atoms: S_2  and  C_3
REMARK    3  A    between atoms: C_6  and  S_7
REMARK    4  A    between atoms: S_7  and  C_8
REMARK    5  A    between atoms: C_8  and  C_9
REMARK    6  A    between atoms: N_11  and  C_12
REMARK    7  A    between atoms: C_15  and  N_16
REMARK    8  A    between atoms: C_17  and  C_18
REMARK                            x       y       z     vdW  Elec       q    Type
REMARK                         _______ _______ _______ _____ _____    ______ ____
ROOT
ATOM      1  C   UNL     1       1.920   4.816  20.572  0.00  0.00    +0.000 C 
ATOM      2  O   UNL     1       0.771   4.596  20.195  0.00  0.00    +0.000 OA
ATOM      3  N   UNL     1       2.609   6.012  20.403  0.00  0.00    +0.000 N 
ATOM      4  H   UNL     1       3.599   6.000  20.621  0.00  0.00    +0.000 HD
ENDROOT
BRANCH   3   5
ATOM      5  C   UNL     1       2.065   7.245  19.990  0.00  0.00    +0.000 A 
ATOM      6  C   UNL     1       1.295   8.048  20.824  0.00  0.00    +0.000 A 
ATOM      7  C   UNL     1       0.800   9.280  20.385  0.00  0.00    +0.000 A 
ATOM      8  C   UNL     1       1.055   9.740  19.097  0.00  0.00    +0.000 A 
ATOM      9  C   UNL     1       1.825   8.935  18.246  0.00  0.00    +0.000 A 
ATOM     10  C   UNL     1       2.340   7.705  18.696  0.00  0.00    +0.000 A 
BRANCH   8  11
ATOM     11  N   UNL     1       0.592  10.986  18.612  0.00  0.00    +0.000 N 
ATOM     12  C   UNL     1       1.021  12.239  19.024  0.00  0.00    +0.000 C 
ATOM     13  C   UNL     1       0.371  13.375  18.278  0.00  0.00    +0.000 C 
ATOM     14  O   UNL     1       1.832  12.486  19.911  0.00  0.00    +0.000 OA
ATOM     15  H   UNL     1      -0.106  10.954  17.880  0.00  0.00    +0.000 HD
ENDBRANCH   8  11
ENDBRANCH   3   5
BRANCH   1  16
ATOM     16  C   UNL     1       2.738   3.675  21.174  0.00  0.00    +0.000 C 
BRANCH  16  17
ATOM     17  S   UNL     1       3.336   2.536  19.896  0.00  0.00    +0.000 S 
BRANCH  17  21
ATOM     18  C   UNL     1       6.084   4.805  18.357  0.00  0.00    +0.000 A 
ATOM     19  N   UNL     1       5.444   4.902  17.193  0.00  0.00    +0.000 NA
ATOM     20  S   UNL     1       4.044   4.016  17.348  0.00  0.00    +0.000 S 
ATOM     21  C   UNL     1       4.396   3.556  18.966  0.00  0.00    +0.000 A 
ATOM     22  N   UNL     1       5.536   4.046  19.391  0.00  0.00    +0.000 NA
BRANCH  18  24
ATOM     23  C   UNL     1       7.351   7.079  17.469  0.00  0.00    +0.000 C 
ATOM     24  S   UNL     1       7.615   5.649  18.527  0.00  0.00    +0.000 S 
ENDBRANCH  18  24
ENDBRANCH  17  21
ENDBRANCH  16  17
ENDBRANCH   1  16
TORSDOF 6
ENDMDL
MODEL 4
REMARK VINA RESULT:      -6.7      1.964      2.605
REMARK  Name = 
REMARK  8 active torsions:
REMARK  status: ('A' for Active; 'I' for Inactive)
REMARK    1  A    between atoms: C_1  and  S_2
REMARK    2  A    between atoms: S_2  and  C_3
REMARK    3  A    between atoms: C_6  and  S_7
REMARK    4  A    between atoms: S_7  and  C_8
REMARK    5  A    between atoms: C_8  and  C_9
REMARK    6  A    between atoms: N_11  and  C_12
REMARK    7  A    between atoms: C_15  and  N_16
REMARK    8  A    between atoms: C_17  and  C_18
REMARK                            x       y       z     vdW  Elec       q    Type
REMARK                         _______ _______ _______ _____ _____    ______ ____
ROOT
ATOM      1  C   UNL     1       2.626   4.963  18.380  0.00  0.00    +0.000 C 
ATOM      2  O   UNL     1       1.556   4.792  17.800  0.00  0.00    +0.000 OA
ATOM      3  N   UNL     1       3.102   6.182  18.850  0.00  0.00    +0.000 N 
ATOM      4  H   UNL     1       4.065   6.201  19.166  0.00  0.00    +0.000 HD
ENDROOT
BRANCH   3   5
ATOM      5  C   UNL     1       2.374   7.384  18.960  0.00  0.00    +0.000 A 
ATOM      6  C   UNL     1       2.170   8.242  17.886  0.00  0.00    +0.000 A 
ATOM      7  C   UNL     1       1.414   9.411  18.029  0.00  0.00    +0.000 A 
ATOM      8  C   UNL     1       0.848   9.756  19.253  0.00  0.00    +0.000 A 
ATOM      9  C   UNL     1       1.054   8.899  20.343  0.00  0.00    +0.000 A 
ATOM     10  C   UNL     1       1.797   7.714  20.192  0.00  0.00    +0.000 A 
BRANCH   8  11
ATOM     11  N   UNL     1       0.061  10.917  19.444  0.00  0.00    +0.000 N 
ATOM     12  C   UNL     1      -1.256  11.091  19.047  0.00  0.00    +0.000 C 
ATOM     13  C   UNL     1      -1.834  12.424  19.443  0.00  0.00    +0.000 C 
ATOM     14  O   UNL     1      -1.949  10.296  18.418  0.00  0.00    +0.000 OA
ATOM     15  H   UNL     1       0.501  11.684  19.936  0.00  0.00    +0.000 HD
ENDBRANCH   8  11
ENDBRANCH   3   5
BRANCH   1  16
ATOM     16  C   UNL     1       3.597   3.791  18.513  0.00  0.00    +0.000 C 
BRANCH  16  17
ATOM     17  S   UNL     1       5.258   4.350  18.978  0.00  0.00    +0.000 S 
BRANCH  17  21
ATOM     18  C   UNL     1       6.480   4.562  15.300  0.00  0.00    +0.000 A 
ATOM     19  N   UNL     1       7.344   5.538  15.574  0.00  0.00    +0.000 NA
ATOM     20  S   UNL     1       7.205   5.847  17.204  0.00  0.00    +0.000 S 
ATOM     21  C   UNL     1       5.987   4.656  17.428  0.00  0.00    +0.000 A 
ATOM     22  N   UNL     1       5.681   4.034  16.315  0.00  0.00    +0.000 NA
BRANCH  18  24
ATOM     23  C   UNL     1       7.590   5.049  12.832  0.00  0.00    +0.000 C 
ATOM     24  S   UNL     1       6.387   3.988  13.643  0.00  0.00    +0.000 S 
ENDBRANCH  18  24
ENDBRANCH  17  21
ENDBRANCH  16  17
ENDBRANCH   1  16
TORSDOF 6
ENDMDL
MODEL 5
REMARK VINA RESULT:      -6.6      1.878      2.356
REMARK  Name = 
REMARK  8 active torsions:
REMARK  status: ('A' for Active; 'I' for Inactive)
REMARK    1  A    between atoms: C_1  and  S_2
REMARK    2  A    between atoms: S_2  and  C_3
REMARK    3  A    between atoms: C_6  and  S_7
REMARK    4  A    between atoms: S_7  and  C_8
REMARK    5  A    between atoms: C_8  and  C_9
REMARK    6  A    between atoms: N_11  and  C_12
REMARK    7  A    between atoms: C_15  and  N_16
REMARK    8  A    between atoms: C_17  and  C_18
REMARK                            x       y       z     vdW  Elec       q    Type
REMARK                         _______ _______ _______ _____ _____    ______ ____
ROOT
ATOM      1  C   UNL     1       2.697   4.914  18.233  0.00  0.00    +0.000 C 
ATOM      2  O   UNL     1       1.651   4.794  17.598  0.00  0.00    +0.000 OA
ATOM      3  N   UNL     1       3.175   6.099  18.781  0.00  0.00    +0.000 N 
ATOM      4  H   UNL     1       4.123   6.082  19.140  0.00  0.00    +0.000 HD
ENDROOT
BRANCH   3   5
ATOM      5  C   UNL     1       2.467   7.311  18.915  0.00  0.00    +0.000 A 
ATOM      6  C   UNL     1       1.814   7.677  20.086  0.00  0.00    +0.000 A 
ATOM      7  C   UNL     1       1.148   8.903  20.188  0.00  0.00    +0.000 A 
ATOM      8  C   UNL     1       1.112   9.794  19.120  0.00  0.00    +0.000 A 
ATOM      9  C   UNL     1       1.763   9.430  17.932  0.00  0.00    +0.000 A 
ATOM     10  C   UNL     1       2.450   8.205  17.838  0.00  0.00    +0.000 A 
BRANCH   8  11
ATOM     11  N   UNL     1       0.468  11.052  19.179  0.00  0.00    +0.000 N 
ATOM     12  C   UNL     1      -0.887  11.290  19.007  0.00  0.00    +0.000 C 
ATOM     13  C   UNL     1      -1.273  12.735  19.182  0.00  0.00    +0.000 C 
ATOM     14  O   UNL     1      -1.751  10.465  18.724  0.00  0.00    +0.000 OA
ATOM     15  H   UNL     1       1.055  11.851  19.386  0.00  0.00    +0.000 HD
ENDBRANCH   8  11
ENDBRANCH   3   5
BRANCH   1  16
ATOM     16  C   UNL     1       3.637   3.716  18.354  0.00  0.00    +0.000 C 
BRANCH  16  17
ATOM     17  S   UNL     1       5.224   4.186  19.094  0.00  0.00    +0.000 S 
BRANCH  17  21
ATOM     18  C   UNL     1       6.886   5.142  15.719  0.00  0.00    +0.000 A 
ATOM     19  N   UNL     1       7.462   6.226  16.235  0.00  0.00    +0.000 NA
ATOM     20  S   UNL     1       7.024   6.275  17.840  0.00  0.00    +0.000 S 
ATOM     21  C   UNL     1       6.083   4.842  17.730  0.00  0.00    +0.000 A 
ATOM     22  N   UNL     1       6.086   4.329  16.524  0.00  0.00    +0.000 NA
BRANCH  18  24
ATOM     23  C   UNL     1       5.744   3.757  13.636  0.00  0.00    +0.000 C 
ATOM     24  S   UNL     1       7.163   4.792  14.020  0.00  0.00    +0.000 S 
ENDBRANCH  18  24
ENDBRANCH  17  21
ENDBRANCH  16  17
ENDBRANCH   1  16
TORSDOF 6
ENDMDL
MODEL 6
REMARK VINA RESULT:      -6.4      2.098      2.528
REMARK  Name = 
REMARK  8 active torsions:
REMARK  status: ('A' for Active; 'I' for Inactive)
REMARK    1  A    between atoms: C_1  and  S_2
REMARK    2  A    between atoms: S_2  and  C_3
REMARK    3  A    between atoms: C_6  and  S_7
REMARK    4  A    between atoms: S_7  and  C_8
REMARK    5  A    between atoms: C_8  and  C_9
REMARK    6  A    between atoms: N_11  and  C_12
REMARK    7  A    between atoms: C_15  and  N_16
REMARK    8  A    between atoms: C_17  and  C_18
REMARK                            x       y       z     vdW  Elec       q    Type
REMARK                         _______ _______ _______ _____ _____    ______ ____
ROOT
ATOM      1  C   UNL     1       2.648   4.907  18.310  0.00  0.00    +0.000 C 
ATOM      2  O   UNL     1       1.568   4.748  17.743  0.00  0.00    +0.000 OA
ATOM      3  N   UNL     1       3.132   6.116  18.797  0.00  0.00    +0.000 N 
ATOM      4  H   UNL     1       4.100   6.128  19.098  0.00  0.00    +0.000 HD
ENDROOT
BRANCH   3   5
ATOM      5  C   UNL     1       2.407   7.316  18.941  0.00  0.00    +0.000 A 
ATOM      6  C   UNL     1       1.867   7.729  20.154  0.00  0.00    +0.000 A 
ATOM      7  C   UNL     1       1.180   8.943  20.262  0.00  0.00    +0.000 A 
ATOM      8  C   UNL     1       1.009   9.774  19.160  0.00  0.00    +0.000 A 
ATOM      9  C   UNL     1       1.546   9.363  17.931  0.00  0.00    +0.000 A 
ATOM     10  C   UNL     1       2.254   8.151  17.828  0.00  0.00    +0.000 A 
BRANCH   8  11
ATOM     11  N   UNL     1       0.339  11.019  19.222  0.00  0.00    +0.000 N 
ATOM     12  C   UNL     1       0.921  12.272  19.104  0.00  0.00    +0.000 C 
ATOM     13  C   UNL     1      -0.070  13.405  19.161  0.00  0.00    +0.000 C 
ATOM     14  O   UNL     1       2.116  12.522  18.979  0.00  0.00    +0.000 OA
ATOM     15  H   UNL     1      -0.665  10.985  19.345  0.00  0.00    +0.000 HD
ENDBRANCH   8  11
ENDBRANCH   3   5
BRANCH   1  16
ATOM     16  C   UNL     1       3.619   3.732  18.405  0.00  0.00    +0.000 C 
BRANCH  16  17
ATOM     17  S   UNL     1       5.187   4.224  19.171  0.00  0.00    +0.000 S 
BRANCH  17  21
ATOM     18  C   UNL     1       6.870   5.187  15.808  0.00  0.00    +0.000 A 
ATOM     19  N   UNL     1       7.497   6.232  16.346  0.00  0.00    +0.000 NA
ATOM     20  S   UNL     1       7.071   6.261  17.954  0.00  0.00    +0.000 S 
ATOM     21  C   UNL     1       6.067   4.874  17.817  0.00  0.00    +0.000 A 
ATOM     22  N   UNL     1       6.040   4.391  16.599  0.00  0.00    +0.000 NA
BRANCH  18  24
ATOM     23  C   UNL     1       5.747   3.764  13.740  0.00  0.00    +0.000 C 
ATOM     24  S   UNL     1       7.121   4.866  14.100  0.00  0.00    +0.000 S 
ENDBRANCH  18  24
ENDBRANCH  17  21
ENDBRANCH  16  17
ENDBRANCH   1  16
TORSDOF 6
ENDMDL
MODEL 7
REMARK VINA RESULT:      -6.4      1.304      1.902
REMARK  Name = 
REMARK  8 active torsions:
REMARK  status: ('A' for Active; 'I' for Inactive)
REMARK    1  A    between atoms: C_1  and  S_2
REMARK    2  A    between atoms: S_2  and  C_3
REMARK    3  A    between atoms: C_6  and  S_7
REMARK    4  A    between atoms: S_7  and  C_8
REMARK    5  A    between atoms: C_8  and  C_9
REMARK    6  A    between atoms: N_11  and  C_12
REMARK    7  A    between atoms: C_15  and  N_16
REMARK    8  A    between atoms: C_17  and  C_18
REMARK                            x       y       z     vdW  Elec       q    Type
REMARK                         _______ _______ _______ _____ _____    ______ ____
ROOT
ATOM      1  C   UNL     1       2.249   4.731  20.005  0.00  0.00    +0.000 C 
ATOM      2  O   UNL     1       1.285   4.449  19.296  0.00  0.00    +0.000 OA
ATOM      3  N   UNL     1       2.801   6.000  20.145  0.00  0.00    +0.000 N 
ATOM      4  H   UNL     1       3.686   6.057  20.637  0.00  0.00    +0.000 HD
ENDROOT
BRANCH   3   5
ATOM      5  C   UNL     1       2.242   7.215  19.701  0.00  0.00    +0.000 A 
ATOM      6  C   UNL     1       2.355   7.662  18.389  0.00  0.00    +0.000 A 
ATOM      7  C   UNL     1       1.759   8.859  17.980  0.00  0.00    +0.000 A 
ATOM      8  C   UNL     1       1.038   9.646  18.873  0.00  0.00    +0.000 A 
ATOM      9  C   UNL     1       0.924   9.207  20.200  0.00  0.00    +0.000 A 
ATOM     10  C   UNL     1       1.507   7.992  20.605  0.00  0.00    +0.000 A 
BRANCH   8  11
ATOM     11  N   UNL     1       0.402  10.855  18.505  0.00  0.00    +0.000 N 
ATOM     12  C   UNL     1      -0.962  11.049  18.343  0.00  0.00    +0.000 C 
ATOM     13  C   UNL     1      -1.332  12.467  17.996  0.00  0.00    +0.000 C 
ATOM     14  O   UNL     1      -1.845  10.201  18.439  0.00  0.00    +0.000 OA
ATOM     15  H   UNL     1       1.003  11.657  18.365  0.00  0.00    +0.000 HD
ENDBRANCH   8  11
ENDBRANCH   3   5
BRANCH   1  16
ATOM     16  C   UNL     1       3.005   3.611  20.717  0.00  0.00    +0.000 C 
BRANCH  16  17
ATOM     17  S   UNL     1       3.599   2.360  19.546  0.00  0.00    +0.000 S 
BRANCH  17  21
ATOM     18  C   UNL     1       5.274   4.210  16.573  0.00  0.00    +0.000 A 
ATOM     19  N   UNL     1       6.090   4.894  17.374  0.00  0.00    +0.000 NA
ATOM     20  S   UNL     1       5.745   4.407  18.928  0.00  0.00    +0.000 S 
ATOM     21  C   UNL     1       4.517   3.319  18.420  0.00  0.00    +0.000 A 
ATOM     22  N   UNL     1       4.357   3.311  17.119  0.00  0.00    +0.000 NA
BRANCH  18  24
ATOM     23  C   UNL     1       7.121   4.963  14.681  0.00  0.00    +0.000 C 
ATOM     24  S   UNL     1       5.395   4.488  14.844  0.00  0.00    +0.000 S 
ENDBRANCH  18  24
ENDBRANCH  17  21
ENDBRANCH  16  17
ENDBRANCH   1  16
TORSDOF 6
ENDMDL
MODEL 8
REMARK VINA RESULT:      -6.4      2.151      2.748
REMARK  Name = 
REMARK  8 active torsions:
REMARK  status: ('A' for Active; 'I' for Inactive)
REMARK    1  A    between atoms: C_1  and  S_2
REMARK    2  A    between atoms: S_2  and  C_3
REMARK    3  A    between atoms: C_6  and  S_7
REMARK    4  A    between atoms: S_7  and  C_8
REMARK    5  A    between atoms: C_8  and  C_9
REMARK    6  A    between atoms: N_11  and  C_12
REMARK    7  A    between atoms: C_15  and  N_16
REMARK    8  A    between atoms: C_17  and  C_18
REMARK                            x       y       z     vdW  Elec       q    Type
REMARK                         _______ _______ _______ _____ _____    ______ ____
ROOT
ATOM      1  C   UNL     1       2.879   4.933  18.458  0.00  0.00    +0.000 C 
ATOM      2  O   UNL     1       1.929   4.760  17.697  0.00  0.00    +0.000 OA
ATOM      3  N   UNL     1       3.269   6.156  18.994  0.00  0.00    +0.000 N 
ATOM      4  H   UNL     1       4.160   6.175  19.477  0.00  0.00    +0.000 HD
ENDROOT
BRANCH   3   5
ATOM      5  C   UNL     1       2.539   7.361  18.961  0.00  0.00    +0.000 A 
ATOM      6  C   UNL     1       2.453   8.160  17.826  0.00  0.00    +0.000 A 
ATOM      7  C   UNL     1       1.692   9.333  17.825  0.00  0.00    +0.000 A 
ATOM      8  C   UNL     1       1.000   9.743  18.960  0.00  0.00    +0.000 A 
ATOM      9  C   UNL     1       1.085   8.947  20.111  0.00  0.00    +0.000 A 
ATOM     10  C   UNL     1       1.835   7.756  20.105  0.00  0.00    +0.000 A 
BRANCH   8  11
ATOM     11  N   UNL     1       0.202  10.911  19.003  0.00  0.00    +0.000 N 
ATOM     12  C   UNL     1       0.642  12.195  19.288  0.00  0.00    +0.000 C 
ATOM     13  C   UNL     1      -0.444  13.237  19.205  0.00  0.00    +0.000 C 
ATOM     14  O   UNL     1       1.779  12.534  19.602  0.00  0.00    +0.000 OA
ATOM     15  H   UNL     1      -0.780  10.796  18.786  0.00  0.00    +0.000 HD
ENDBRANCH   8  11
ENDBRANCH   3   5
BRANCH   1  16
ATOM     16  C   UNL     1       3.805   3.760  18.774  0.00  0.00    +0.000 C 
BRANCH  16  17
ATOM     17  S   UNL     1       5.499   4.317  19.101  0.00  0.00    +0.000 S 
BRANCH  17  21
ATOM     18  C   UNL     1       6.442   4.625  15.348  0.00  0.00    +0.000 A 
ATOM     19  N   UNL     1       7.164   5.726  15.553  0.00  0.00    +0.000 NA
ATOM     20  S   UNL     1       7.083   6.048  17.184  0.00  0.00    +0.000 S 
ATOM     21  C   UNL     1       6.076   4.693  17.503  0.00  0.00    +0.000 A 
ATOM     22  N   UNL     1       5.797   4.007  16.421  0.00  0.00    +0.000 NA
BRANCH  18  24
ATOM     23  C   UNL     1       7.641   4.931  12.893  0.00  0.00    +0.000 C 
ATOM     24  S   UNL     1       6.333   4.005  13.709  0.00  0.00    +0.000 S 
ENDBRANCH  18  24
ENDBRANCH  17  21
ENDBRANCH  16  17
ENDBRANCH   1  16
TORSDOF 6
ENDMDL
MODEL 9
REMARK VINA RESULT:      -6.4      2.266      2.859
REMARK  Name = 
REMARK  8 active torsions:
REMARK  status: ('A' for Active; 'I' for Inactive)
REMARK    1  A    between atoms: C_1  and  S_2
REMARK    2  A    between atoms: S_2  and  C_3
REMARK    3  A    between atoms: C_6  and  S_7
REMARK    4  A    between atoms: S_7  and  C_8
REMARK    5  A    between atoms: C_8  and  C_9
REMARK    6  A    between atoms: N_11  and  C_12
REMARK    7  A    between atoms: C_15  and  N_16
REMARK    8  A    between atoms: C_17  and  C_18
REMARK                            x       y       z     vdW  Elec       q    Type
REMARK                         _______ _______ _______ _____ _____    ______ ____
ROOT
ATOM      1  C   UNL     1       2.609   4.895  18.647  0.00  0.00    +0.000 C 
ATOM      2  O   UNL     1       1.433   4.550  18.750  0.00  0.00    +0.000 OA
ATOM      3  N   UNL     1       3.073   6.205  18.706  0.00  0.00    +0.000 N 
ATOM      4  H   UNL     1       4.041   6.354  18.449  0.00  0.00    +0.000 HD
ENDROOT
BRANCH   3   5
ATOM      5  C   UNL     1       2.342   7.338  19.116  0.00  0.00    +0.000 A 
ATOM      6  C   UNL     1       2.028   8.384  18.256  0.00  0.00    +0.000 A 
ATOM      7  C   UNL     1       1.274   9.478  18.695  0.00  0.00    +0.000 A 
ATOM      8  C   UNL     1       0.818   9.558  20.007  0.00  0.00    +0.000 A 
ATOM      9  C   UNL     1       1.135   8.510  20.884  0.00  0.00    +0.000 A 
ATOM     10  C   UNL     1       1.877   7.401  20.435  0.00  0.00    +0.000 A 
BRANCH   8  11
ATOM     11  N   UNL     1       0.037  10.633  20.494  0.00  0.00    +0.000 N 
ATOM     12  C   UNL     1       0.516  11.829  21.007  0.00  0.00    +0.000 C 
ATOM     13  C   UNL     1      -0.571  12.797  21.395  0.00  0.00    +0.000 C 
ATOM     14  O   UNL     1       1.691  12.142  21.176  0.00  0.00    +0.000 OA
ATOM     15  H   UNL     1      -0.967  10.521  20.443  0.00  0.00    +0.000 HD
ENDBRANCH   8  11
ENDBRANCH   3   5
BRANCH   1  16
ATOM     16  C   UNL     1       3.666   3.846  18.307  0.00  0.00    +0.000 C 
BRANCH  16  17
ATOM     17  S   UNL     1       5.275   4.262  19.032  0.00  0.00    +0.000 S 
BRANCH  17  21
ATOM     18  C   UNL     1       6.951   5.187  15.656  0.00  0.00    +0.000 A 
ATOM     19  N   UNL     1       7.508   6.287  16.159  0.00  0.00    +0.000 NA
ATOM     20  S   UNL     1       7.056   6.356  17.759  0.00  0.00    +0.000 S 
ATOM     21  C   UNL     1       6.136   4.908  17.665  0.00  0.00    +0.000 A 
ATOM     22  N   UNL     1       6.156   4.376  16.467  0.00  0.00    +0.000 NA
BRANCH  18  24
ATOM     23  C   UNL     1       5.860   3.731  13.593  0.00  0.00    +0.000 C 
ATOM     24  S   UNL     1       7.247   4.814  13.965  0.00  0.00    +0.000 S 
ENDBRANCH  18  24
ENDBRANCH  17  21
ENDBRANCH  16  17
ENDBRANCH   1  16
TORSDOF 6
ENDMDL
