MODEL 1
REMARK VINA RESULT:      -8.1      0.000      0.000
REMARK  Name = 
REMARK  9 active torsions:
REMARK  status: ('A' for Active; 'I' for Inactive)
REMARK    1  A    between atoms: C_1  and  C_2
REMARK    2  A    between atoms: C_2  and  C_3
REMARK    3  A    between atoms: C_2  and  O_4
REMARK    4  A    between atoms: O_4  and  C_5
REMARK    5  A    between atoms: C_8  and  C_9
REMARK    6  A    between atoms: C_9  and  N_10
REMARK    7  A    between atoms: C_16  and  C_17
REMARK    8  A    between atoms: C_22  and  C_23
REMARK    9  A    between atoms: C_23  and  O_24
REMARK                            x       y       z     vdW  Elec       q    Type
REMARK                         _______ _______ _______ _____ _____    ______ ____
ROOT
ATOM      1  N   UNL     1       4.925   4.328  19.236  0.00  0.00    +0.000 N 
ATOM      2  C   UNL     1       3.640   4.709  19.607  0.00  0.00    +0.000 A 
ATOM      3  N   UNL     1       2.755   3.728  19.697  0.00  0.00    +0.000 NA
ATOM      4  C   UNL     1       1.530   4.085  20.051  0.00  0.00    +0.000 A 
ATOM      5  N   UNL     1       0.571   3.098  20.135  0.00  0.00    +0.000 N 
ATOM      6  N   UNL     1       1.152   5.315  20.340  0.00  0.00    +0.000 NA
ATOM      7  C   UNL     1       2.092   6.246  20.193  0.00  0.00    +0.000 A 
ATOM      8  N   UNL     1       3.346   5.989  19.814  0.00  0.00    +0.000 NA
ATOM      9  H   UNL     1       4.846   3.435  18.761  0.00  0.00    +0.000 HD
ATOM     10  H   UNL     1       0.992   2.190  20.282  0.00  0.00    +0.000 HD
ATOM     11  H   UNL     1      -0.178   3.372  20.753  0.00  0.00    +0.000 HD
ENDROOT
BRANCH   7  12
ATOM     12  C   UNL     1       1.671   7.655  20.391  0.00  0.00    +0.000 A 
ATOM     13  C   UNL     1       1.301   8.070  21.697  0.00  0.00    +0.000 A 
ATOM     14  C   UNL     1       0.829   9.356  21.970  0.00  0.00    +0.000 A 
ATOM     15  C   UNL     1       0.710  10.275  20.942  0.00  0.00    +0.000 A 
ATOM     16  C   UNL     1       1.078   9.911  19.648  0.00  0.00    +0.000 A 
ATOM     17  C   UNL     1       1.565   8.618  19.353  0.00  0.00    +0.000 A 
BRANCH  17  18
ATOM     18  C   UNL     1       1.950   8.351  17.914  0.00  0.00    +0.000 C 
BRANCH  18  19
ATOM     19  O   UNL     1       2.113   9.551  17.176  0.00  0.00    +0.000 OA
ATOM     20  H   UNL     1       2.512   9.291  16.328  0.00  0.00    +0.000 HD
ENDBRANCH  18  19
ENDBRANCH  17  18
ENDBRANCH   7  12
BRANCH   1  21
ATOM     21  C   UNL     1       5.692   5.334  18.526  0.00  0.00    +0.000 C 
BRANCH  21  25
ATOM     22  C   UNL     1       6.218   4.302  14.329  0.00  0.00    +0.000 A 
ATOM     23  C   UNL     1       5.041   4.004  15.009  0.00  0.00    +0.000 A 
ATOM     24  C   UNL     1       4.897   4.340  16.361  0.00  0.00    +0.000 A 
ATOM     25  C   UNL     1       5.932   4.962  17.074  0.00  0.00    +0.000 A 
ATOM     26  C   UNL     1       7.109   5.277  16.382  0.00  0.00    +0.000 A 
ATOM     27  C   UNL     1       7.251   4.939  15.026  0.00  0.00    +0.000 A 
BRANCH  22  28
ATOM     28  O   UNL     1       6.475   4.029  13.012  0.00  0.00    +0.000 OA
BRANCH  28  30
ATOM     29  C   UNL     1       4.608   3.411  11.650  0.00  0.00    +0.000 C 
ATOM     30  C   UNL     1       5.836   2.899  12.401  0.00  0.00    +0.000 C 
ATOM     31  C   UNL     1       6.790   2.213  11.424  0.00  0.00    +0.000 C 
ENDBRANCH  28  30
ENDBRANCH  22  28
ENDBRANCH  21  25
ENDBRANCH   1  21
TORSDOF 7
ENDMDL
MODEL 2
REMARK VINA RESULT:      -8.0      2.638      9.077
REMARK  Name = 
REMARK  9 active torsions:
REMARK  status: ('A' for Active; 'I' for Inactive)
REMARK    1  A    between atoms: C_1  and  C_2
REMARK    2  A    between atoms: C_2  and  C_3
REMARK    3  A    between atoms: C_2  and  O_4
REMARK    4  A    between atoms: O_4  and  C_5
REMARK    5  A    between atoms: C_8  and  C_9
REMARK    6  A    between atoms: C_9  and  N_10
REMARK    7  A    between atoms: C_16  and  C_17
REMARK    8  A    between atoms: C_22  and  C_23
REMARK    9  A    between atoms: C_23  and  O_24
REMARK                            x       y       z     vdW  Elec       q    Type
REMARK                         _______ _______ _______ _____ _____    ______ ____
ROOT
ATOM      1  N   UNL     1       1.367   6.576  20.531  0.00  0.00    +0.000 N 
ATOM      2  C   UNL     1       2.215   5.502  20.278  0.00  0.00    +0.000 A 
ATOM      3  N   UNL     1       2.073   4.459  21.082  0.00  0.00    +0.000 NA
ATOM      4  C   UNL     1       2.876   3.433  20.845  0.00  0.00    +0.000 A 
ATOM      5  N   UNL     1       2.778   2.335  21.672  0.00  0.00    +0.000 N 
ATOM      6  N   UNL     1       3.762   3.373  19.869  0.00  0.00    +0.000 NA
ATOM      7  C   UNL     1       3.865   4.473  19.129  0.00  0.00    +0.000 A 
ATOM      8  N   UNL     1       3.120   5.568  19.307  0.00  0.00    +0.000 NA
ATOM      9  H   UNL     1       1.062   6.494  21.495  0.00  0.00    +0.000 HD
ATOM     10  H   UNL     1       1.870   2.289  22.114  0.00  0.00    +0.000 HD
ATOM     11  H   UNL     1       3.116   1.503  21.211  0.00  0.00    +0.000 HD
ENDROOT
BRANCH   7  12
ATOM     12  C   UNL     1       4.934   4.487  18.100  0.00  0.00    +0.000 A 
ATOM     13  C   UNL     1       4.622   4.016  16.798  0.00  0.00    +0.000 A 
ATOM     14  C   UNL     1       5.578   3.928  15.783  0.00  0.00    +0.000 A 
ATOM     15  C   UNL     1       6.885   4.310  16.037  0.00  0.00    +0.000 A 
ATOM     16  C   UNL     1       7.227   4.793  17.298  0.00  0.00    +0.000 A 
ATOM     17  C   UNL     1       6.273   4.897  18.336  0.00  0.00    +0.000 A 
BRANCH  17  18
ATOM     18  C   UNL     1       6.764   5.454  19.654  0.00  0.00    +0.000 C 
BRANCH  18  19
ATOM     19  O   UNL     1       8.176   5.581  19.685  0.00  0.00    +0.000 OA
ATOM     20  H   UNL     1       8.373   6.196  20.412  0.00  0.00    +0.000 HD
ENDBRANCH  18  19
ENDBRANCH  17  18
ENDBRANCH   7  12
BRANCH   1  21
ATOM     21  C   UNL     1       1.887   7.879  20.161  0.00  0.00    +0.000 C 
BRANCH  21  25
ATOM     22  C   UNL     1      -0.839  11.090  21.264  0.00  0.00    +0.000 A 
ATOM     23  C   UNL     1      -0.556  10.802  19.932  0.00  0.00    +0.000 A 
ATOM     24  C   UNL     1       0.329   9.768  19.601  0.00  0.00    +0.000 A 
ATOM     25  C   UNL     1       0.971   9.011  20.591  0.00  0.00    +0.000 A 
ATOM     26  C   UNL     1       0.671   9.291  21.930  0.00  0.00    +0.000 A 
ATOM     27  C   UNL     1      -0.217  10.328  22.260  0.00  0.00    +0.000 A 
BRANCH  22  28
ATOM     28  O   UNL     1      -1.687  12.069  21.711  0.00  0.00    +0.000 OA
BRANCH  28  30
ATOM     29  C   UNL     1      -1.227  13.737  23.363  0.00  0.00    +0.000 C 
ATOM     30  C   UNL     1      -1.765  12.328  23.120  0.00  0.00    +0.000 C 
ATOM     31  C   UNL     1      -3.215  12.240  23.595  0.00  0.00    +0.000 C 
ENDBRANCH  28  30
ENDBRANCH  22  28
ENDBRANCH  21  25
ENDBRANCH   1  21
TORSDOF 7
ENDMDL
MODEL 3
REMARK VINA RESULT:      -7.8      2.653      7.877
REMARK  Name = 
REMARK  9 active torsions:
REMARK  status: ('A' for Active; 'I' for Inactive)
REMARK    1  A    between atoms: C_1  and  C_2
REMARK    2  A    between atoms: C_2  and  C_3
REMARK    3  A    between atoms: C_2  and  O_4
REMARK    4  A    between atoms: O_4  and  C_5
REMARK    5  A    between atoms: C_8  and  C_9
REMARK    6  A    between atoms: C_9  and  N_10
REMARK    7  A    between atoms: C_16  and  C_17
REMARK    8  A    between atoms: C_22  and  C_23
REMARK    9  A    between atoms: C_23  and  O_24
REMARK                            x       y       z     vdW  Elec       q    Type
REMARK                         _______ _______ _______ _____ _____    ______ ____
ROOT
ATOM      1  N   UNL     1       1.572   6.627  20.740  0.00  0.00    +0.000 N 
ATOM      2  C   UNL     1       2.375   5.550  20.380  0.00  0.00    +0.000 A 
ATOM      3  N   UNL     1       2.238   4.461  21.122  0.00  0.00    +0.000 NA
ATOM      4  C   UNL     1       2.998   3.432  20.784  0.00  0.00    +0.000 A 
ATOM      5  N   UNL     1       2.905   2.285  21.543  0.00  0.00    +0.000 N 
ATOM      6  N   UNL     1       3.839   3.411  19.767  0.00  0.00    +0.000 NA
ATOM      7  C   UNL     1       3.941   4.554  19.093  0.00  0.00    +0.000 A 
ATOM      8  N   UNL     1       3.238   5.654  19.375  0.00  0.00    +0.000 NA
ATOM      9  H   UNL     1       1.306   6.492  21.710  0.00  0.00    +0.000 HD
ATOM     10  H   UNL     1       2.016   2.235  22.022  0.00  0.00    +0.000 HD
ATOM     11  H   UNL     1       3.198   1.476  21.015  0.00  0.00    +0.000 HD
ENDROOT
BRANCH   7  12
ATOM     12  C   UNL     1       4.964   4.606  18.020  0.00  0.00    +0.000 A 
ATOM     13  C   UNL     1       4.603   4.156  16.723  0.00  0.00    +0.000 A 
ATOM     14  C   UNL     1       5.514   4.104  15.666  0.00  0.00    +0.000 A 
ATOM     15  C   UNL     1       6.825   4.502  15.871  0.00  0.00    +0.000 A 
ATOM     16  C   UNL     1       7.215   4.966  17.125  0.00  0.00    +0.000 A 
ATOM     17  C   UNL     1       6.306   5.033  18.206  0.00  0.00    +0.000 A 
BRANCH  17  18
ATOM     18  C   UNL     1       6.845   5.572  19.512  0.00  0.00    +0.000 C 
BRANCH  18  19
ATOM     19  O   UNL     1       8.223   5.281  19.679  0.00  0.00    +0.000 OA
ATOM     20  H   UNL     1       8.288   4.760  20.498  0.00  0.00    +0.000 HD
ENDBRANCH  18  19
ENDBRANCH  17  18
ENDBRANCH   7  12
BRANCH   1  21
ATOM     21  C   UNL     1       2.113   7.938  20.430  0.00  0.00    +0.000 C 
BRANCH  21  25
ATOM     22  C   UNL     1      -0.778  10.616  18.578  0.00  0.00    +0.000 A 
ATOM     23  C   UNL     1      -0.736  10.432  19.957  0.00  0.00    +0.000 A 
ATOM     24  C   UNL     1       0.198   9.561  20.531  0.00  0.00    +0.000 A 
ATOM     25  C   UNL     1       1.100   8.834  19.740  0.00  0.00    +0.000 A 
ATOM     26  C   UNL     1       1.068   9.035  18.354  0.00  0.00    +0.000 A 
ATOM     27  C   UNL     1       0.130   9.910  17.782  0.00  0.00    +0.000 A 
BRANCH  22  28
ATOM     28  O   UNL     1      -1.639  11.441  17.905  0.00  0.00    +0.000 OA
BRANCH  28  30
ATOM     29  C   UNL     1      -4.022  11.648  17.899  0.00  0.00    +0.000 C 
ATOM     30  C   UNL     1      -2.829  10.881  17.332  0.00  0.00    +0.000 C 
ATOM     31  C   UNL     1      -2.802  11.020  15.810  0.00  0.00    +0.000 C 
ENDBRANCH  28  30
ENDBRANCH  22  28
ENDBRANCH  21  25
ENDBRANCH   1  21
TORSDOF 7
ENDMDL
MODEL 4
REMARK VINA RESULT:      -7.8      1.414      2.040
REMARK  Name = 
REMARK  9 active torsions:
REMARK  status: ('A' for Active; 'I' for Inactive)
REMARK    1  A    between atoms: C_1  and  C_2
REMARK    2  A    between atoms: C_2  and  C_3
REMARK    3  A    between atoms: C_2  and  O_4
REMARK    4  A    between atoms: O_4  and  C_5
REMARK    5  A    between atoms: C_8  and  C_9
REMARK    6  A    between atoms: C_9  and  N_10
REMARK    7  A    between atoms: C_16  and  C_17
REMARK    8  A    between atoms: C_22  and  C_23
REMARK    9  A    between atoms: C_23  and  O_24
REMARK                            x       y       z     vdW  Elec       q    Type
REMARK                         _______ _______ _______ _____ _____    ______ ____
ROOT
ATOM      1  N   UNL     1       5.369   4.512  19.694  0.00  0.00    +0.000 N 
ATOM      2  C   UNL     1       4.037   4.904  19.779  0.00  0.00    +0.000 A 
ATOM      3  N   UNL     1       3.173   3.941  20.061  0.00  0.00    +0.000 NA
ATOM      4  C   UNL     1       1.904   4.309  20.144  0.00  0.00    +0.000 A 
ATOM      5  N   UNL     1       0.967   3.334  20.413  0.00  0.00    +0.000 N 
ATOM      6  N   UNL     1       1.461   5.543  19.998  0.00  0.00    +0.000 NA
ATOM      7  C   UNL     1       2.388   6.444  19.685  0.00  0.00    +0.000 A 
ATOM      8  N   UNL     1       3.687   6.166  19.550  0.00  0.00    +0.000 NA
ATOM      9  H   UNL     1       5.375   3.514  19.508  0.00  0.00    +0.000 HD
ATOM     10  H   UNL     1       1.388   2.541  20.878  0.00  0.00    +0.000 HD
ATOM     11  H   UNL     1       0.138   3.733  20.827  0.00  0.00    +0.000 HD
ENDROOT
BRANCH   7  12
ATOM     12  C   UNL     1       1.910   7.819  19.394  0.00  0.00    +0.000 A 
ATOM     13  C   UNL     1       2.020   8.303  18.064  0.00  0.00    +0.000 A 
ATOM     14  C   UNL     1       1.660   9.604  17.707  0.00  0.00    +0.000 A 
ATOM     15  C   UNL     1       1.175  10.470  18.672  0.00  0.00    +0.000 A 
ATOM     16  C   UNL     1       1.037  10.028  19.986  0.00  0.00    +0.000 A 
ATOM     17  C   UNL     1       1.389   8.713  20.366  0.00  0.00    +0.000 A 
BRANCH  17  18
ATOM     18  C   UNL     1       1.175   8.347  21.818  0.00  0.00    +0.000 C 
BRANCH  18  19
ATOM     19  O   UNL     1       1.863   9.225  22.694  0.00  0.00    +0.000 OA
ATOM     20  H   UNL     1       1.187   9.821  23.061  0.00  0.00    +0.000 HD
ENDBRANCH  18  19
ENDBRANCH  17  18
ENDBRANCH   7  12
BRANCH   1  21
ATOM     21  C   UNL     1       6.196   5.306  18.805  0.00  0.00    +0.000 C 
BRANCH  21  25
ATOM     22  C   UNL     1       5.454   4.629  14.568  0.00  0.00    +0.000 A 
ATOM     23  C   UNL     1       5.301   5.888  15.141  0.00  0.00    +0.000 A 
ATOM     24  C   UNL     1       5.539   6.081  16.507  0.00  0.00    +0.000 A 
ATOM     25  C   UNL     1       5.915   5.018  17.341  0.00  0.00    +0.000 A 
ATOM     26  C   UNL     1       6.085   3.755  16.759  0.00  0.00    +0.000 A 
ATOM     27  C   UNL     1       5.845   3.564  15.388  0.00  0.00    +0.000 A 
BRANCH  22  28
ATOM     28  O   UNL     1       5.255   4.318  13.249  0.00  0.00    +0.000 OA
BRANCH  28  30
ATOM     29  C   UNL     1       5.333   2.561  11.627  0.00  0.00    +0.000 C 
ATOM     30  C   UNL     1       6.151   3.397  12.611  0.00  0.00    +0.000 C 
ATOM     31  C   UNL     1       7.245   4.155  11.861  0.00  0.00    +0.000 C 
ENDBRANCH  28  30
ENDBRANCH  22  28
ENDBRANCH  21  25
ENDBRANCH   1  21
TORSDOF 7
ENDMDL
MODEL 5
REMARK VINA RESULT:      -7.7      1.340      1.932
REMARK  Name = 
REMARK  9 active torsions:
REMARK  status: ('A' for Active; 'I' for Inactive)
REMARK    1  A    between atoms: C_1  and  C_2
REMARK    2  A    between atoms: C_2  and  C_3
REMARK    3  A    between atoms: C_2  and  O_4
REMARK    4  A    between atoms: O_4  and  C_5
REMARK    5  A    between atoms: C_8  and  C_9
REMARK    6  A    between atoms: C_9  and  N_10
REMARK    7  A    between atoms: C_16  and  C_17
REMARK    8  A    between atoms: C_22  and  C_23
REMARK    9  A    between atoms: C_23  and  O_24
REMARK                            x       y       z     vdW  Elec       q    Type
REMARK                         _______ _______ _______ _____ _____    ______ ____
ROOT
ATOM      1  N   UNL     1       5.721   4.328  19.008  0.00  0.00    +0.000 N 
ATOM      2  C   UNL     1       4.383   4.683  19.148  0.00  0.00    +0.000 A 
ATOM      3  N   UNL     1       3.542   3.681  19.352  0.00  0.00    +0.000 NA
ATOM      4  C   UNL     1       2.268   4.013  19.488  0.00  0.00    +0.000 A 
ATOM      5  N   UNL     1       1.355   2.999  19.680  0.00  0.00    +0.000 N 
ATOM      6  N   UNL     1       1.799   5.246  19.463  0.00  0.00    +0.000 NA
ATOM      7  C   UNL     1       2.703   6.191  19.220  0.00  0.00    +0.000 A 
ATOM      8  N   UNL     1       4.005   5.954  19.041  0.00  0.00    +0.000 NA
ATOM      9  H   UNL     1       5.743   3.352  18.731  0.00  0.00    +0.000 HD
ATOM     10  H   UNL     1       1.799   2.175  20.064  0.00  0.00    +0.000 HD
ATOM     11  H   UNL     1       0.525   3.341  20.142  0.00  0.00    +0.000 HD
ENDROOT
BRANCH   7  12
ATOM     12  C   UNL     1       2.194   7.577  19.063  0.00  0.00    +0.000 A 
ATOM     13  C   UNL     1       2.418   8.241  17.829  0.00  0.00    +0.000 A 
ATOM     14  C   UNL     1       2.036   9.567  17.611  0.00  0.00    +0.000 A 
ATOM     15  C   UNL     1       1.415  10.277  18.625  0.00  0.00    +0.000 A 
ATOM     16  C   UNL     1       1.163   9.655  19.845  0.00  0.00    +0.000 A 
ATOM     17  C   UNL     1       1.535   8.313  20.084  0.00  0.00    +0.000 A 
BRANCH  17  18
ATOM     18  C   UNL     1       1.190   7.744  21.443  0.00  0.00    +0.000 C 
BRANCH  18  19
ATOM     19  O   UNL     1       0.720   8.744  22.332  0.00  0.00    +0.000 OA
ATOM     20  H   UNL     1      -0.057   8.363  22.776  0.00  0.00    +0.000 HD
ENDBRANCH  18  19
ENDBRANCH  17  18
ENDBRANCH   7  12
BRANCH   1  21
ATOM     21  C   UNL     1       6.518   5.217  18.183  0.00  0.00    +0.000 C 
BRANCH  21  25
ATOM     22  C   UNL     1       6.327   4.022  14.000  0.00  0.00    +0.000 A 
ATOM     23  C   UNL     1       5.612   3.345  14.984  0.00  0.00    +0.000 A 
ATOM     24  C   UNL     1       5.693   3.743  16.324  0.00  0.00    +0.000 A 
ATOM     25  C   UNL     1       6.508   4.813  16.720  0.00  0.00    +0.000 A 
ATOM     26  C   UNL     1       7.213   5.505  15.726  0.00  0.00    +0.000 A 
ATOM     27  C   UNL     1       7.129   5.103  14.382  0.00  0.00    +0.000 A 
BRANCH  22  28
ATOM     28  O   UNL     1       6.325   3.731  12.662  0.00  0.00    +0.000 OA
BRANCH  28  30
ATOM     29  C   UNL     1       4.314   3.351  11.424  0.00  0.00    +0.000 C 
ATOM     30  C   UNL     1       5.463   2.689  12.181  0.00  0.00    +0.000 C 
ATOM     31  C   UNL     1       6.230   1.757  11.244  0.00  0.00    +0.000 C 
ENDBRANCH  28  30
ENDBRANCH  22  28
ENDBRANCH  21  25
ENDBRANCH   1  21
TORSDOF 7
ENDMDL
MODEL 6
REMARK VINA RESULT:      -7.7      3.558      9.139
REMARK  Name = 
REMARK  9 active torsions:
REMARK  status: ('A' for Active; 'I' for Inactive)
REMARK    1  A    between atoms: C_1  and  C_2
REMARK    2  A    between atoms: C_2  and  C_3
REMARK    3  A    between atoms: C_2  and  O_4
REMARK    4  A    between atoms: O_4  and  C_5
REMARK    5  A    between atoms: C_8  and  C_9
REMARK    6  A    between atoms: C_9  and  N_10
REMARK    7  A    between atoms: C_16  and  C_17
REMARK    8  A    between atoms: C_22  and  C_23
REMARK    9  A    between atoms: C_23  and  O_24
REMARK                            x       y       z     vdW  Elec       q    Type
REMARK                         _______ _______ _______ _____ _____    ______ ____
ROOT
ATOM      1  N   UNL     1       2.330   9.113  17.901  0.00  0.00    +0.000 N 
ATOM      2  C   UNL     1       2.969   7.895  17.691  0.00  0.00    +0.000 A 
ATOM      3  N   UNL     1       4.056   7.941  16.935  0.00  0.00    +0.000 NA
ATOM      4  C   UNL     1       4.669   6.786  16.733  0.00  0.00    +0.000 A 
ATOM      5  N   UNL     1       5.792   6.784  15.933  0.00  0.00    +0.000 N 
ATOM      6  N   UNL     1       4.295   5.628  17.245  0.00  0.00    +0.000 NA
ATOM      7  C   UNL     1       3.176   5.663  17.964  0.00  0.00    +0.000 A 
ATOM      8  N   UNL     1       2.472   6.772  18.201  0.00  0.00    +0.000 NA
ATOM      9  H   UNL     1       2.611   9.731  17.148  0.00  0.00    +0.000 HD
ATOM     10  H   UNL     1       6.223   7.698  15.905  0.00  0.00    +0.000 HD
ATOM     11  H   UNL     1       6.384   5.994  16.142  0.00  0.00    +0.000 HD
ENDROOT
BRANCH   7  12
ATOM     12  C   UNL     1       2.659   4.361  18.454  0.00  0.00    +0.000 A 
ATOM     13  C   UNL     1       1.344   3.977  18.084  0.00  0.00    +0.000 A 
ATOM     14  C   UNL     1       0.746   2.803  18.550  0.00  0.00    +0.000 A 
ATOM     15  C   UNL     1       1.446   1.971  19.406  0.00  0.00    +0.000 A 
ATOM     16  C   UNL     1       2.745   2.305  19.781  0.00  0.00    +0.000 A 
ATOM     17  C   UNL     1       3.371   3.484  19.315  0.00  0.00    +0.000 A 
BRANCH  17  18
ATOM     18  C   UNL     1       4.791   3.726  19.777  0.00  0.00    +0.000 C 
BRANCH  18  19
ATOM     19  O   UNL     1       5.736   3.446  18.757  0.00  0.00    +0.000 OA
ATOM     20  H   UNL     1       5.474   2.590  18.378  0.00  0.00    +0.000 HD
ENDBRANCH  18  19
ENDBRANCH  17  18
ENDBRANCH   7  12
BRANCH   1  21
ATOM     21  C   UNL     1       0.899   9.034  18.129  0.00  0.00    +0.000 C 
BRANCH  21  25
ATOM     22  C   UNL     1      -0.171  11.029  21.848  0.00  0.00    +0.000 A 
ATOM     23  C   UNL     1       0.523   9.823  21.843  0.00  0.00    +0.000 A 
ATOM     24  C   UNL     1       0.852   9.196  20.635  0.00  0.00    +0.000 A 
ATOM     25  C   UNL     1       0.475   9.745  19.401  0.00  0.00    +0.000 A 
ATOM     26  C   UNL     1      -0.208  10.968  19.407  0.00  0.00    +0.000 A 
ATOM     27  C   UNL     1      -0.536  11.595  20.621  0.00  0.00    +0.000 A 
BRANCH  22  28
ATOM     28  O   UNL     1      -0.544  11.736  22.960  0.00  0.00    +0.000 OA
BRANCH  28  30
ATOM     29  C   UNL     1      -2.855  12.123  23.440  0.00  0.00    +0.000 C 
ATOM     30  C   UNL     1      -1.583  12.719  22.841  0.00  0.00    +0.000 C 
ATOM     31  C   UNL     1      -1.200  13.989  23.599  0.00  0.00    +0.000 C 
ENDBRANCH  28  30
ENDBRANCH  22  28
ENDBRANCH  21  25
ENDBRANCH   1  21
TORSDOF 7
ENDMDL
MODEL 7
REMARK VINA RESULT:      -7.7      2.572      7.773
REMARK  Name = 
REMARK  9 active torsions:
REMARK  status: ('A' for Active; 'I' for Inactive)
REMARK    1  A    between atoms: C_1  and  C_2
REMARK    2  A    between atoms: C_2  and  C_3
REMARK    3  A    between atoms: C_2  and  O_4
REMARK    4  A    between atoms: O_4  and  C_5
REMARK    5  A    between atoms: C_8  and  C_9
REMARK    6  A    between atoms: C_9  and  N_10
REMARK    7  A    between atoms: C_16  and  C_17
REMARK    8  A    between atoms: C_22  and  C_23
REMARK    9  A    between atoms: C_23  and  O_24
REMARK                            x       y       z     vdW  Elec       q    Type
REMARK                         _______ _______ _______ _____ _____    ______ ____
ROOT
ATOM      1  N   UNL     1       1.500   6.811  20.699  0.00  0.00    +0.000 N 
ATOM      2  C   UNL     1       2.271   5.709  20.343  0.00  0.00    +0.000 A 
ATOM      3  N   UNL     1       2.104   4.628  21.090  0.00  0.00    +0.000 NA
ATOM      4  C   UNL     1       2.834   3.576  20.755  0.00  0.00    +0.000 A 
ATOM      5  N   UNL     1       2.708   2.436  21.519  0.00  0.00    +0.000 N 
ATOM      6  N   UNL     1       3.672   3.527  19.737  0.00  0.00    +0.000 NA
ATOM      7  C   UNL     1       3.806   4.663  19.058  0.00  0.00    +0.000 A 
ATOM      8  N   UNL     1       3.136   5.785  19.336  0.00  0.00    +0.000 NA
ATOM      9  H   UNL     1       1.232   6.687  21.669  0.00  0.00    +0.000 HD
ATOM     10  H   UNL     1       1.819   2.414  22.000  0.00  0.00    +0.000 HD
ATOM     11  H   UNL     1       2.977   1.617  20.995  0.00  0.00    +0.000 HD
ENDROOT
BRANCH   7  12
ATOM     12  C   UNL     1       4.829   4.681  17.983  0.00  0.00    +0.000 A 
ATOM     13  C   UNL     1       4.441   4.276  16.679  0.00  0.00    +0.000 A 
ATOM     14  C   UNL     1       5.347   4.196  15.619  0.00  0.00    +0.000 A 
ATOM     15  C   UNL     1       6.677   4.519  15.828  0.00  0.00    +0.000 A 
ATOM     16  C   UNL     1       7.094   4.936  17.090  0.00  0.00    +0.000 A 
ATOM     17  C   UNL     1       6.192   5.031  18.174  0.00  0.00    +0.000 A 
BRANCH  17  18
ATOM     18  C   UNL     1       6.761   5.515  19.489  0.00  0.00    +0.000 C 
BRANCH  18  19
ATOM     19  O   UNL     1       8.113   5.924  19.364  0.00  0.00    +0.000 OA
ATOM     20  H   UNL     1       8.608   5.131  19.093  0.00  0.00    +0.000 HD
ENDBRANCH  18  19
ENDBRANCH  17  18
ENDBRANCH   7  12
BRANCH   1  21
ATOM     21  C   UNL     1       2.078   8.104  20.382  0.00  0.00    +0.000 C 
BRANCH  21  25
ATOM     22  C   UNL     1      -0.822  10.712  18.446  0.00  0.00    +0.000 A 
ATOM     23  C   UNL     1       0.140  10.023  17.713  0.00  0.00    +0.000 A 
ATOM     24  C   UNL     1       1.067   9.194  18.358  0.00  0.00    +0.000 A 
ATOM     25  C   UNL     1       1.072   9.050  19.753  0.00  0.00    +0.000 A 
ATOM     26  C   UNL     1       0.092   9.731  20.487  0.00  0.00    +0.000 A 
ATOM     27  C   UNL     1      -0.837  10.561  19.837  0.00  0.00    +0.000 A 
BRANCH  22  28
ATOM     28  O   UNL     1      -1.779  11.544  17.931  0.00  0.00    +0.000 OA
BRANCH  28  30
ATOM     29  C   UNL     1      -2.747  11.021  15.807  0.00  0.00    +0.000 C 
ATOM     30  C   UNL     1      -2.943  10.969  17.321  0.00  0.00    +0.000 C 
ATOM     31  C   UNL     1      -3.115   9.519  17.770  0.00  0.00    +0.000 C 
ENDBRANCH  28  30
ENDBRANCH  22  28
ENDBRANCH  21  25
ENDBRANCH   1  21
TORSDOF 7
ENDMDL
MODEL 8
REMARK VINA RESULT:      -7.7      2.288      8.169
REMARK  Name = 
REMARK  9 active torsions:
REMARK  status: ('A' for Active; 'I' for Inactive)
REMARK    1  A    between atoms: C_1  and  C_2
REMARK    2  A    between atoms: C_2  and  C_3
REMARK    3  A    between atoms: C_2  and  O_4
REMARK    4  A    between atoms: O_4  and  C_5
REMARK    5  A    between atoms: C_8  and  C_9
REMARK    6  A    between atoms: C_9  and  N_10
REMARK    7  A    between atoms: C_16  and  C_17
REMARK    8  A    between atoms: C_22  and  C_23
REMARK    9  A    between atoms: C_23  and  O_24
REMARK                            x       y       z     vdW  Elec       q    Type
REMARK                         _______ _______ _______ _____ _____    ______ ____
ROOT
ATOM      1  N   UNL     1       1.730   5.833  19.657  0.00  0.00    +0.000 N 
ATOM      2  C   UNL     1       2.368   4.843  18.918  0.00  0.00    +0.000 A 
ATOM      3  N   UNL     1       1.969   3.603  19.157  0.00  0.00    +0.000 NA
ATOM      4  C   UNL     1       2.572   2.656  18.454  0.00  0.00    +0.000 A 
ATOM      5  N   UNL     1       2.203   1.348  18.687  0.00  0.00    +0.000 N 
ATOM      6  N   UNL     1       3.497   2.864  17.537  0.00  0.00    +0.000 NA
ATOM      7  C   UNL     1       3.865   4.134  17.382  0.00  0.00    +0.000 A 
ATOM      8  N   UNL     1       3.337   5.155  18.062  0.00  0.00    +0.000 NA
ATOM      9  H   UNL     1       1.345   5.387  20.484  0.00  0.00    +0.000 HD
ATOM     10  H   UNL     1       1.273   1.295  19.082  0.00  0.00    +0.000 HD
ATOM     11  H   UNL     1       2.405   0.767  17.887  0.00  0.00    +0.000 HD
ENDROOT
BRANCH   7  12
ATOM     12  C   UNL     1       4.988   4.393  16.447  0.00  0.00    +0.000 A 
ATOM     13  C   UNL     1       4.744   4.276  15.054  0.00  0.00    +0.000 A 
ATOM     14  C   UNL     1       5.753   4.436  14.101  0.00  0.00    +0.000 A 
ATOM     15  C   UNL     1       7.045   4.718  14.510  0.00  0.00    +0.000 A 
ATOM     16  C   UNL     1       7.321   4.855  15.869  0.00  0.00    +0.000 A 
ATOM     17  C   UNL     1       6.314   4.705  16.848  0.00  0.00    +0.000 A 
BRANCH  17  18
ATOM     18  C   UNL     1       6.735   4.898  18.289  0.00  0.00    +0.000 C 
BRANCH  18  19
ATOM     19  O   UNL     1       6.089   3.981  19.158  0.00  0.00    +0.000 OA
ATOM     20  H   UNL     1       5.297   3.675  18.683  0.00  0.00    +0.000 HD
ENDBRANCH  18  19
ENDBRANCH  17  18
ENDBRANCH   7  12
BRANCH   1  21
ATOM     21  C   UNL     1       2.519   7.024  19.914  0.00  0.00    +0.000 C 
BRANCH  21  25
ATOM     22  C   UNL     1       0.199  10.631  19.162  0.00  0.00    +0.000 A 
ATOM     23  C   UNL     1       0.959  10.034  18.161  0.00  0.00    +0.000 A 
ATOM     24  C   UNL     1       1.703   8.877  18.427  0.00  0.00    +0.000 A 
ATOM     25  C   UNL     1       1.724   8.300  19.705  0.00  0.00    +0.000 A 
ATOM     26  C   UNL     1       0.943   8.893  20.706  0.00  0.00    +0.000 A 
ATOM     27  C   UNL     1       0.198  10.053  20.436  0.00  0.00    +0.000 A 
BRANCH  22  28
ATOM     28  O   UNL     1      -0.569  11.756  19.022  0.00  0.00    +0.000 OA
BRANCH  28  30
ATOM     29  C   UNL     1      -2.250  13.046  20.133  0.00  0.00    +0.000 C 
ATOM     30  C   UNL     1      -1.940  11.718  19.446  0.00  0.00    +0.000 C 
ATOM     31  C   UNL     1      -2.862  11.530  18.242  0.00  0.00    +0.000 C 
ENDBRANCH  28  30
ENDBRANCH  22  28
ENDBRANCH  21  25
ENDBRANCH   1  21
TORSDOF 7
ENDMDL
MODEL 9
REMARK VINA RESULT:      -7.7      2.388      8.945
REMARK  Name = 
REMARK  9 active torsions:
REMARK  status: ('A' for Active; 'I' for Inactive)
REMARK    1  A    between atoms: C_1  and  C_2
REMARK    2  A    between atoms: C_2  and  C_3
REMARK    3  A    between atoms: C_2  and  O_4
REMARK    4  A    between atoms: O_4  and  C_5
REMARK    5  A    between atoms: C_8  and  C_9
REMARK    6  A    between atoms: C_9  and  N_10
REMARK    7  A    between atoms: C_16  and  C_17
REMARK    8  A    between atoms: C_22  and  C_23
REMARK    9  A    between atoms: C_23  and  O_24
REMARK                            x       y       z     vdW  Elec       q    Type
REMARK                         _______ _______ _______ _____ _____    ______ ____
ROOT
ATOM      1  N   UNL     1       1.946   6.462  19.877  0.00  0.00    +0.000 N 
ATOM      2  C   UNL     1       2.844   5.477  19.479  0.00  0.00    +0.000 A 
ATOM      3  N   UNL     1       2.927   4.423  20.276  0.00  0.00    +0.000 NA
ATOM      4  C   UNL     1       3.779   3.481  19.902  0.00  0.00    +0.000 A 
ATOM      5  N   UNL     1       3.915   2.376  20.715  0.00  0.00    +0.000 N 
ATOM      6  N   UNL     1       4.508   3.510  18.803  0.00  0.00    +0.000 NA
ATOM      7  C   UNL     1       4.390   4.618  18.075  0.00  0.00    +0.000 A 
ATOM      8  N   UNL     1       3.580   5.634  18.383  0.00  0.00    +0.000 NA
ATOM      9  H   UNL     1       1.800   6.348  20.874  0.00  0.00    +0.000 HD
ATOM     10  H   UNL     1       3.093   2.240  21.289  0.00  0.00    +0.000 HD
ATOM     11  H   UNL     1       4.257   1.583  20.193  0.00  0.00    +0.000 HD
ENDROOT
BRANCH   7  12
ATOM     12  C   UNL     1       5.284   4.739  16.896  0.00  0.00    +0.000 A 
ATOM     13  C   UNL     1       4.811   4.273  15.642  0.00  0.00    +0.000 A 
ATOM     14  C   UNL     1       5.603   4.284  14.491  0.00  0.00    +0.000 A 
ATOM     15  C   UNL     1       6.900   4.763  14.556  0.00  0.00    +0.000 A 
ATOM     16  C   UNL     1       7.396   5.245  15.765  0.00  0.00    +0.000 A 
ATOM     17  C   UNL     1       6.609   5.249  16.939  0.00  0.00    +0.000 A 
BRANCH  17  18
ATOM     18  C   UNL     1       7.253   5.816  18.186  0.00  0.00    +0.000 C 
BRANCH  18  19
ATOM     19  O   UNL     1       7.539   4.807  19.141  0.00  0.00    +0.000 OA
ATOM     20  H   UNL     1       8.175   4.207  18.713  0.00  0.00    +0.000 HD
ENDBRANCH  18  19
ENDBRANCH  17  18
ENDBRANCH   7  12
BRANCH   1  21
ATOM     21  C   UNL     1       2.275   7.811  19.455  0.00  0.00    +0.000 C 
BRANCH  21  25
ATOM     22  C   UNL     1      -0.479  10.768  21.077  0.00  0.00    +0.000 A 
ATOM     23  C   UNL     1       0.123   9.812  21.890  0.00  0.00    +0.000 A 
ATOM     24  C   UNL     1       1.001   8.867  21.345  0.00  0.00    +0.000 A 
ATOM     25  C   UNL     1       1.283   8.837  19.972  0.00  0.00    +0.000 A 
ATOM     26  C   UNL     1       0.690   9.812  19.158  0.00  0.00    +0.000 A 
ATOM     27  C   UNL     1      -0.190  10.759  19.708  0.00  0.00    +0.000 A 
BRANCH  22  28
ATOM     28  O   UNL     1      -1.347  11.742  21.492  0.00  0.00    +0.000 OA
BRANCH  28  30
ATOM     29  C   UNL     1      -0.968  13.566  22.993  0.00  0.00    +0.000 C 
ATOM     30  C   UNL     1      -1.377  12.098  22.882  0.00  0.00    +0.000 C 
ATOM     31  C   UNL     1      -2.784  11.910  23.447  0.00  0.00    +0.000 C 
ENDBRANCH  28  30
ENDBRANCH  22  28
ENDBRANCH  21  25
ENDBRANCH   1  21
TORSDOF 7
ENDMDL
