MODEL 1
REMARK VINA RESULT:      -7.2      0.000      0.000
REMARK  Name = 
REMARK  2 active torsions:
REMARK  status: ('A' for Active; 'I' for Inactive)
REMARK    1  A    between atoms: N_4  and  S_5
REMARK    2  A    between atoms: S_5  and  C_8
REMARK                            x       y       z     vdW  Elec       q    Type
REMARK                         _______ _______ _______ _____ _____    ______ ____
ROOT
ATOM      1  S   UNL     1       4.271   3.174  18.353  0.00  0.00    +0.000 S 
ATOM      2  O   UNL     1       5.024   2.897  19.555  0.00  0.00    +0.000 OA
ATOM      3  O   UNL     1       3.575   2.103  17.677  0.00  0.00    +0.000 OA
ENDROOT
BRANCH   1   7
ATOM      4  O   UNL     1       2.113   3.497  22.125  0.00  0.00    +0.000 OA
ATOM      5  C   UNL     1       2.068   3.676  20.909  0.00  0.00    +0.000 C 
ATOM      6  C   UNL     1       2.982   4.672  20.190  0.00  0.00    +0.000 C 
ATOM      7  N   UNL     1       3.151   4.409  18.725  0.00  0.00    +0.000 NA
ATOM      8  C   UNL     1       1.804   4.225  18.100  0.00  0.00    +0.000 C 
ATOM      9  C   UNL     1       1.095   3.016  18.715  0.00  0.00    +0.000 C 
ATOM     10  N   UNL     1       1.081   3.066  20.166  0.00  0.00    +0.000 N 
ATOM     11  H   UNL     1       0.558   2.363  20.679  0.00  0.00    +0.000 HD
ENDBRANCH   1   7
BRANCH   1  12
ATOM     12  C   UNL     1       5.371   3.914  17.169  0.00  0.00    +0.000 A 
ATOM     13  C   UNL     1       5.222   3.546  15.822  0.00  0.00    +0.000 A 
ATOM     14  C   UNL     1       5.988   4.171  14.839  0.00  0.00    +0.000 A 
ATOM     15 BR   UNL     1       5.772   3.684  13.026  0.00  0.00    +0.000 Br
ATOM     16  C   UNL     1       6.898   5.166  15.182  0.00  0.00    +0.000 A 
ATOM     17  C   UNL     1       7.042   5.537  16.519  0.00  0.00    +0.000 A 
ATOM     18  C   UNL     1       6.281   4.917  17.522  0.00  0.00    +0.000 A 
ATOM     19 BR   UNL     1       6.587   5.529  19.292  0.00  0.00    +0.000 Br
ENDBRANCH   1  12
TORSDOF 2
ENDMDL
MODEL 2
REMARK VINA RESULT:      -7.1      3.082      6.063
REMARK  Name = 
REMARK  2 active torsions:
REMARK  status: ('A' for Active; 'I' for Inactive)
REMARK    1  A    between atoms: N_4  and  S_5
REMARK    2  A    between atoms: S_5  and  C_8
REMARK                            x       y       z     vdW  Elec       q    Type
REMARK                         _______ _______ _______ _____ _____    ______ ____
ROOT
ATOM      1  S   UNL     1       4.674   4.096  18.513  0.00  0.00    +0.000 S 
ATOM      2  O   UNL     1       4.322   3.638  17.188  0.00  0.00    +0.000 OA
ATOM      3  O   UNL     1       5.449   3.243  19.386  0.00  0.00    +0.000 OA
ENDROOT
BRANCH   1   7
ATOM      4  O   UNL     1       6.229   5.636  14.745  0.00  0.00    +0.000 OA
ATOM      5  C   UNL     1       6.397   5.565  15.961  0.00  0.00    +0.000 C 
ATOM      6  C   UNL     1       5.415   6.178  16.963  0.00  0.00    +0.000 C 
ATOM      7  N   UNL     1       5.488   5.588  18.338  0.00  0.00    +0.000 NA
ATOM      8  C   UNL     1       6.915   5.565  18.789  0.00  0.00    +0.000 C 
ATOM      9  C   UNL     1       7.751   4.686  17.855  0.00  0.00    +0.000 C 
ATOM     10  N   UNL     1       7.568   5.036  16.459  0.00  0.00    +0.000 N 
ATOM     11  H   UNL     1       8.142   4.579  15.756  0.00  0.00    +0.000 HD
ENDBRANCH   1   7
BRANCH   1  12
ATOM     12  C   UNL     1       3.175   4.505  19.374  0.00  0.00    +0.000 A 
ATOM     13  C   UNL     1       2.993   5.841  19.766  0.00  0.00    +0.000 A 
ATOM     14  C   UNL     1       1.793   6.239  20.353  0.00  0.00    +0.000 A 
ATOM     15 BR   UNL     1       1.545   8.042  20.864  0.00  0.00    +0.000 Br
ATOM     16  C   UNL     1       0.765   5.321  20.548  0.00  0.00    +0.000 A 
ATOM     17  C   UNL     1       0.943   3.995  20.153  0.00  0.00    +0.000 A 
ATOM     18  C   UNL     1       2.146   3.576  19.563  0.00  0.00    +0.000 A 
ATOM     19 BR   UNL     1       2.237   1.743  19.078  0.00  0.00    +0.000 Br
ENDBRANCH   1  12
TORSDOF 2
ENDMDL
MODEL 3
REMARK VINA RESULT:      -7.1      1.357      1.597
REMARK  Name = 
REMARK  2 active torsions:
REMARK  status: ('A' for Active; 'I' for Inactive)
REMARK    1  A    between atoms: N_4  and  S_5
REMARK    2  A    between atoms: S_5  and  C_8
REMARK                            x       y       z     vdW  Elec       q    Type
REMARK                         _______ _______ _______ _____ _____    ______ ____
ROOT
ATOM      1  S   UNL     1       4.468   4.270  18.407  0.00  0.00    +0.000 S 
ATOM      2  O   UNL     1       4.163   5.589  18.915  0.00  0.00    +0.000 OA
ATOM      3  O   UNL     1       5.052   3.280  19.283  0.00  0.00    +0.000 OA
ENDROOT
BRANCH   1   7
ATOM      4  O   UNL     1       0.582   4.364  20.377  0.00  0.00    +0.000 OA
ATOM      5  C   UNL     1       1.330   3.731  19.636  0.00  0.00    +0.000 C 
ATOM      6  C   UNL     1       1.772   4.258  18.268  0.00  0.00    +0.000 C 
ATOM      7  N   UNL     1       3.028   3.634  17.742  0.00  0.00    +0.000 NA
ATOM      8  C   UNL     1       2.914   2.144  17.836  0.00  0.00    +0.000 C 
ATOM      9  C   UNL     1       2.753   1.717  19.297  0.00  0.00    +0.000 C 
ATOM     10  N   UNL     1       1.692   2.443  19.970  0.00  0.00    +0.000 N 
ATOM     11  H   UNL     1       1.436   2.178  20.916  0.00  0.00    +0.000 HD
ENDBRANCH   1   7
BRANCH   1  12
ATOM     12  C   UNL     1       5.559   4.450  17.016  0.00  0.00    +0.000 A 
ATOM     13  C   UNL     1       5.098   4.008  15.766  0.00  0.00    +0.000 A 
ATOM     14  C   UNL     1       5.870   4.218  14.624  0.00  0.00    +0.000 A 
ATOM     15 BR   UNL     1       5.239   3.636  12.940  0.00  0.00    +0.000 Br
ATOM     16  C   UNL     1       7.095   4.871  14.712  0.00  0.00    +0.000 A 
ATOM     17  C   UNL     1       7.551   5.316  15.953  0.00  0.00    +0.000 A 
ATOM     18  C   UNL     1       6.788   5.112  17.113  0.00  0.00    +0.000 A 
ATOM     19 BR   UNL     1       7.538   5.775  18.726  0.00  0.00    +0.000 Br
ENDBRANCH   1  12
TORSDOF 2
ENDMDL
MODEL 4
REMARK VINA RESULT:      -7.1      3.216      6.032
REMARK  Name = 
REMARK  2 active torsions:
REMARK  status: ('A' for Active; 'I' for Inactive)
REMARK    1  A    between atoms: N_4  and  S_5
REMARK    2  A    between atoms: S_5  and  C_8
REMARK                            x       y       z     vdW  Elec       q    Type
REMARK                         _______ _______ _______ _____ _____    ______ ____
ROOT
ATOM      1  S   UNL     1       4.352   5.168  17.311  0.00  0.00    +0.000 S 
ATOM      2  O   UNL     1       4.364   6.507  16.768  0.00  0.00    +0.000 OA
ATOM      3  O   UNL     1       3.886   4.066  16.500  0.00  0.00    +0.000 OA
ENDROOT
BRANCH   1   7
ATOM      4  O   UNL     1       7.636   8.033  17.333  0.00  0.00    +0.000 OA
ATOM      5  C   UNL     1       7.315   6.855  17.183  0.00  0.00    +0.000 C 
ATOM      6  C   UNL     1       6.710   6.017  18.313  0.00  0.00    +0.000 C 
ATOM      7  N   UNL     1       5.937   4.821  17.849  0.00  0.00    +0.000 NA
ATOM      8  C   UNL     1       6.764   4.052  16.866  0.00  0.00    +0.000 C 
ATOM      9  C   UNL     1       7.072   4.916  15.642  0.00  0.00    +0.000 C 
ATOM     10  N   UNL     1       7.621   6.209  16.004  0.00  0.00    +0.000 N 
ATOM     11  H   UNL     1       7.948   6.830  15.270  0.00  0.00    +0.000 HD
ENDBRANCH   1   7
BRANCH   1  12
ATOM     12  C   UNL     1       3.373   5.180  18.794  0.00  0.00    +0.000 A 
ATOM     13  C   UNL     1       2.851   6.413  19.219  0.00  0.00    +0.000 A 
ATOM     14  C   UNL     1       1.993   6.465  20.316  0.00  0.00    +0.000 A 
ATOM     15 BR   UNL     1       1.280   8.124  20.876  0.00  0.00    +0.000 Br
ATOM     16  C   UNL     1       1.640   5.301  20.992  0.00  0.00    +0.000 A 
ATOM     17  C   UNL     1       2.153   4.076  20.566  0.00  0.00    +0.000 A 
ATOM     18  C   UNL     1       3.021   4.004  19.465  0.00  0.00    +0.000 A 
ATOM     19 BR   UNL     1       3.634   2.268  19.005  0.00  0.00    +0.000 Br
ENDBRANCH   1  12
TORSDOF 2
ENDMDL
MODEL 5
REMARK VINA RESULT:      -7.0      1.747      2.227
REMARK  Name = 
REMARK  2 active torsions:
REMARK  status: ('A' for Active; 'I' for Inactive)
REMARK    1  A    between atoms: N_4  and  S_5
REMARK    2  A    between atoms: S_5  and  C_8
REMARK                            x       y       z     vdW  Elec       q    Type
REMARK                         _______ _______ _______ _____ _____    ______ ____
ROOT
ATOM      1  S   UNL     1       3.446   4.895  18.253  0.00  0.00    +0.000 S 
ATOM      2  O   UNL     1       2.279   4.808  17.406  0.00  0.00    +0.000 OA
ATOM      3  O   UNL     1       3.690   6.095  19.021  0.00  0.00    +0.000 OA
ENDROOT
BRANCH   1   7
ATOM      4  O   UNL     1       0.241   1.946  18.393  0.00  0.00    +0.000 OA
ATOM      5  C   UNL     1       1.072   2.575  19.045  0.00  0.00    +0.000 C 
ATOM      6  C   UNL     1       2.580   2.406  18.836  0.00  0.00    +0.000 C 
ATOM      7  N   UNL     1       3.404   3.560  19.319  0.00  0.00    +0.000 NA
ATOM      8  C   UNL     1       2.996   3.904  20.718  0.00  0.00    +0.000 C 
ATOM      9  C   UNL     1       1.526   4.329  20.752  0.00  0.00    +0.000 C 
ATOM     10  N   UNL     1       0.660   3.369  20.093  0.00  0.00    +0.000 N 
ATOM     11  H   UNL     1      -0.346   3.502  20.134  0.00  0.00    +0.000 HD
ENDBRANCH   1   7
BRANCH   1  12
ATOM     12  C   UNL     1       4.884   4.614  17.247  0.00  0.00    +0.000 A 
ATOM     13  C   UNL     1       4.679   4.268  15.901  0.00  0.00    +0.000 A 
ATOM     14  C   UNL     1       5.768   4.137  15.041  0.00  0.00    +0.000 A 
ATOM     15 BR   UNL     1       5.487   3.686  13.227  0.00  0.00    +0.000 Br
ATOM     16  C   UNL     1       7.062   4.355  15.504  0.00  0.00    +0.000 A 
ATOM     17  C   UNL     1       7.266   4.705  16.839  0.00  0.00    +0.000 A 
ATOM     18  C   UNL     1       6.181   4.839  17.720  0.00  0.00    +0.000 A 
ATOM     19 BR   UNL     1       6.616   5.322  19.503  0.00  0.00    +0.000 Br
ENDBRANCH   1  12
TORSDOF 2
ENDMDL
MODEL 6
REMARK VINA RESULT:      -7.0      3.211      5.934
REMARK  Name = 
REMARK  2 active torsions:
REMARK  status: ('A' for Active; 'I' for Inactive)
REMARK    1  A    between atoms: N_4  and  S_5
REMARK    2  A    between atoms: S_5  and  C_8
REMARK                            x       y       z     vdW  Elec       q    Type
REMARK                         _______ _______ _______ _____ _____    ______ ____
ROOT
ATOM      1  S   UNL     1       4.576   4.423  18.253  0.00  0.00    +0.000 S 
ATOM      2  O   UNL     1       3.881   3.636  17.260  0.00  0.00    +0.000 OA
ATOM      3  O   UNL     1       5.479   3.777  19.179  0.00  0.00    +0.000 OA
ENDROOT
BRANCH   1   7
ATOM      4  O   UNL     1       6.533   3.912  14.393  0.00  0.00    +0.000 OA
ATOM      5  C   UNL     1       6.574   4.471  15.487  0.00  0.00    +0.000 C 
ATOM      6  C   UNL     1       5.503   5.466  15.943  0.00  0.00    +0.000 C 
ATOM      7  N   UNL     1       5.425   5.654  17.427  0.00  0.00    +0.000 NA
ATOM      8  C   UNL     1       6.798   5.918  17.962  0.00  0.00    +0.000 C 
ATOM      9  C   UNL     1       7.713   4.722  17.687  0.00  0.00    +0.000 C 
ATOM     10  N   UNL     1       7.680   4.312  16.295  0.00  0.00    +0.000 N 
ATOM     11  H   UNL     1       8.316   3.586  15.979  0.00  0.00    +0.000 HD
ENDBRANCH   1   7
BRANCH   1  12
ATOM     12  C   UNL     1       3.365   5.291  19.221  0.00  0.00    +0.000 A 
ATOM     13  C   UNL     1       3.083   6.622  18.870  0.00  0.00    +0.000 A 
ATOM     14  C   UNL     1       2.069   7.317  19.527  0.00  0.00    +0.000 A 
ATOM     15 BR   UNL     1       1.682   9.101  19.041  0.00  0.00    +0.000 Br
ATOM     16  C   UNL     1       1.326   6.699  20.529  0.00  0.00    +0.000 A 
ATOM     17  C   UNL     1       1.601   5.376  20.874  0.00  0.00    +0.000 A 
ATOM     18  C   UNL     1       2.620   4.661  20.223  0.00  0.00    +0.000 A 
ATOM     19 BR   UNL     1       2.875   2.871  20.800  0.00  0.00    +0.000 Br
ENDBRANCH   1  12
TORSDOF 2
ENDMDL
MODEL 7
REMARK VINA RESULT:      -7.0      3.279      4.978
REMARK  Name = 
REMARK  2 active torsions:
REMARK  status: ('A' for Active; 'I' for Inactive)
REMARK    1  A    between atoms: N_4  and  S_5
REMARK    2  A    between atoms: S_5  and  C_8
REMARK                            x       y       z     vdW  Elec       q    Type
REMARK                         _______ _______ _______ _____ _____    ______ ____
ROOT
ATOM      1  S   UNL     1       3.610   4.895  19.357  0.00  0.00    +0.000 S 
ATOM      2  O   UNL     1       2.939   4.218  20.443  0.00  0.00    +0.000 OA
ATOM      3  O   UNL     1       5.036   5.118  19.420  0.00  0.00    +0.000 OA
ENDROOT
BRANCH   1   7
ATOM      4  O   UNL     1       0.136   2.318  18.822  0.00  0.00    +0.000 OA
ATOM      5  C   UNL     1       1.320   2.499  18.543  0.00  0.00    +0.000 C 
ATOM      6  C   UNL     1       1.800   3.713  17.741  0.00  0.00    +0.000 C 
ATOM      7  N   UNL     1       3.250   4.039  17.922  0.00  0.00    +0.000 NA
ATOM      8  C   UNL     1       4.062   2.795  17.731  0.00  0.00    +0.000 C 
ATOM      9  C   UNL     1       3.681   1.747  18.779  0.00  0.00    +0.000 C 
ATOM     10  N   UNL     1       2.248   1.525  18.840  0.00  0.00    +0.000 N 
ATOM     11  H   UNL     1       1.889   0.785  19.436  0.00  0.00    +0.000 HD
ENDBRANCH   1   7
BRANCH   1  12
ATOM     12  C   UNL     1       2.839   6.481  19.132  0.00  0.00    +0.000 A 
ATOM     13  C   UNL     1       1.961   6.925  20.133  0.00  0.00    +0.000 A 
ATOM     14  C   UNL     1       1.409   8.203  20.060  0.00  0.00    +0.000 A 
ATOM     15 BR   UNL     1       0.240   8.804  21.417  0.00  0.00    +0.000 Br
ATOM     16  C   UNL     1       1.728   9.049  19.001  0.00  0.00    +0.000 A 
ATOM     17  C   UNL     1       2.605   8.610  18.010  0.00  0.00    +0.000 A 
ATOM     18  C   UNL     1       3.169   7.326  18.067  0.00  0.00    +0.000 A 
ATOM     19 BR   UNL     1       4.345   6.873  16.647  0.00  0.00    +0.000 Br
ENDBRANCH   1  12
TORSDOF 2
ENDMDL
MODEL 8
REMARK VINA RESULT:      -6.7      3.102      6.114
REMARK  Name = 
REMARK  2 active torsions:
REMARK  status: ('A' for Active; 'I' for Inactive)
REMARK    1  A    between atoms: N_4  and  S_5
REMARK    2  A    between atoms: S_5  and  C_8
REMARK                            x       y       z     vdW  Elec       q    Type
REMARK                         _______ _______ _______ _____ _____    ______ ____
ROOT
ATOM      1  S   UNL     1       4.990   4.409  18.099  0.00  0.00    +0.000 S 
ATOM      2  O   UNL     1       4.783   3.304  17.191  0.00  0.00    +0.000 OA
ATOM      3  O   UNL     1       6.136   4.412  18.979  0.00  0.00    +0.000 OA
ENDROOT
BRANCH   1   7
ATOM      4  O   UNL     1       6.687   4.725  14.098  0.00  0.00    +0.000 OA
ATOM      5  C   UNL     1       6.492   5.299  15.167  0.00  0.00    +0.000 C 
ATOM      6  C   UNL     1       5.086   5.615  15.687  0.00  0.00    +0.000 C 
ATOM      7  N   UNL     1       5.010   5.840  17.165  0.00  0.00    +0.000 NA
ATOM      8  C   UNL     1       6.066   6.821  17.569  0.00  0.00    +0.000 C 
ATOM      9  C   UNL     1       7.456   6.265  17.249  0.00  0.00    +0.000 C 
ATOM     10  N   UNL     1       7.561   5.800  15.878  0.00  0.00    +0.000 N 
ATOM     11  H   UNL     1       8.464   5.495  15.529  0.00  0.00    +0.000 HD
ENDBRANCH   1   7
BRANCH   1  12
ATOM     12  C   UNL     1       3.544   4.565  19.120  0.00  0.00    +0.000 A 
ATOM     13  C   UNL     1       3.180   5.855  19.541  0.00  0.00    +0.000 A 
ATOM     14  C   UNL     1       1.999   6.047  20.257  0.00  0.00    +0.000 A 
ATOM     15 BR   UNL     1       1.505   7.786  20.808  0.00  0.00    +0.000 Br
ATOM     16  C   UNL     1       1.170   4.970  20.553  0.00  0.00    +0.000 A 
ATOM     17  C   UNL     1       1.528   3.689  20.129  0.00  0.00    +0.000 A 
ATOM     18  C   UNL     1       2.714   3.476  19.410  0.00  0.00    +0.000 A 
ATOM     19 BR   UNL     1       3.064   1.681  18.901  0.00  0.00    +0.000 Br
ENDBRANCH   1  12
TORSDOF 2
ENDMDL
MODEL 9
REMARK VINA RESULT:      -6.7      3.321      5.943
REMARK  Name = 
REMARK  2 active torsions:
REMARK  status: ('A' for Active; 'I' for Inactive)
REMARK    1  A    between atoms: N_4  and  S_5
REMARK    2  A    between atoms: S_5  and  C_8
REMARK                            x       y       z     vdW  Elec       q    Type
REMARK                         _______ _______ _______ _____ _____    ______ ____
ROOT
ATOM      1  S   UNL     1       4.360   5.197  17.180  0.00  0.00    +0.000 S 
ATOM      2  O   UNL     1       4.386   6.478  16.510  0.00  0.00    +0.000 OA
ATOM      3  O   UNL     1       3.991   4.008  16.445  0.00  0.00    +0.000 OA
ENDROOT
BRANCH   1   7
ATOM      4  O   UNL     1       7.516   8.199  17.304  0.00  0.00    +0.000 OA
ATOM      5  C   UNL     1       7.256   7.002  17.204  0.00  0.00    +0.000 C 
ATOM      6  C   UNL     1       6.582   6.211  18.329  0.00  0.00    +0.000 C 
ATOM      7  N   UNL     1       5.901   4.955  17.879  0.00  0.00    +0.000 NA
ATOM      8  C   UNL     1       6.843   4.162  17.027  0.00  0.00    +0.000 C 
ATOM      9  C   UNL     1       7.229   4.960  15.780  0.00  0.00    +0.000 C 
ATOM     10  N   UNL     1       7.693   6.297  16.103  0.00  0.00    +0.000 N 
ATOM     11  H   UNL     1       8.062   6.885  15.362  0.00  0.00    +0.000 HD
ENDBRANCH   1   7
BRANCH   1  12
ATOM     12  C   UNL     1       3.257   5.320  18.567  0.00  0.00    +0.000 A 
ATOM     13  C   UNL     1       3.109   4.187  19.384  0.00  0.00    +0.000 A 
ATOM     14  C   UNL     1       2.337   4.258  20.543  0.00  0.00    +0.000 A 
ATOM     15 BR   UNL     1       2.153   2.736  21.647  0.00  0.00    +0.000 Br
ATOM     16  C   UNL     1       1.716   5.450  20.903  0.00  0.00    +0.000 A 
ATOM     17  C   UNL     1       1.868   6.578  20.096  0.00  0.00    +0.000 A 
ATOM     18  C   UNL     1       2.639   6.523  18.925  0.00  0.00    +0.000 A 
ATOM     19 BR   UNL     1       2.754   8.137  17.932  0.00  0.00    +0.000 Br
ENDBRANCH   1  12
TORSDOF 2
ENDMDL
