MODEL 1
REMARK VINA RESULT:      -9.5      0.000      0.000
REMARK  Name = 
REMARK  6 active torsions:
REMARK  status: ('A' for Active; 'I' for Inactive)
REMARK    1  A    between atoms: C_1  and  O_2
REMARK    2  A    between atoms: O_2  and  C_3
REMARK    3  A    between atoms: C_10  and  C_12
REMARK    4  A    between atoms: N_14  and  C_15
REMARK    5  A    between atoms: C_20  and  O_21
REMARK    6  A    between atoms: O_21  and  C_22
REMARK                            x       y       z     vdW  Elec       q    Type
REMARK                         _______ _______ _______ _____ _____    ______ ____
ROOT
ATOM      1  C   UNL     1       2.891   5.908  19.036  0.00  0.00    +0.000 A 
ATOM      2  N   UNL     1       3.844   5.891  18.144  0.00  0.00    +0.000 NA
ATOM      3  N   UNL     1       4.537   4.723  17.938  0.00  0.00    +0.000 N 
ATOM      4  C   UNL     1       4.527   3.642  18.810  0.00  0.00    +0.000 A 
ATOM      5  O   UNL     1       5.308   2.692  18.794  0.00  0.00    +0.000 OA
ATOM      6  C   UNL     1       3.442   3.655  19.813  0.00  0.00    +0.000 A 
ATOM      7  C   UNL     1       3.276   2.560  20.669  0.00  0.00    +0.000 A 
ATOM      8  C   UNL     1       2.203   2.528  21.557  0.00  0.00    +0.000 A 
ATOM      9  C   UNL     1       1.274   3.561  21.556  0.00  0.00    +0.000 A 
ATOM     10  C   UNL     1       1.428   4.648  20.689  0.00  0.00    +0.000 A 
ATOM     11  C   UNL     1       2.552   4.727  19.858  0.00  0.00    +0.000 A 
ENDROOT
BRANCH   1  19
ATOM     12  C   UNL     1      -1.178  12.675  22.027  0.00  0.00    +0.000 A 
ATOM     13  C   UNL     1      -1.480  11.803  23.069  0.00  0.00    +0.000 A 
ATOM     14  C   UNL     1      -0.956  10.500  23.083  0.00  0.00    +0.000 A 
ATOM     15  C   UNL     1      -0.118  10.065  22.033  0.00  0.00    +0.000 A 
ATOM     16  N   UNL     1       0.530   8.839  21.942  0.00  0.00    +0.000 NA
ATOM     17  C   UNL     1       1.163   8.765  20.796  0.00  0.00    +0.000 A 
ATOM     18  N   UNL     1       1.935   7.675  20.464  0.00  0.00    +0.000 N 
ATOM     19  C   UNL     1       2.139   7.237  19.171  0.00  0.00    +0.000 C 
ATOM     20  O   UNL     1       1.748   7.766  18.140  0.00  0.00    +0.000 OA
ATOM     21  S   UNL     1       1.093  10.141  19.800  0.00  0.00    +0.000 S 
ATOM     22  C   UNL     1       0.119  10.939  20.971  0.00  0.00    +0.000 A 
ATOM     23  C   UNL     1      -0.398  12.243  20.951  0.00  0.00    +0.000 A 
ATOM     24  H   UNL     1       2.116   7.068  21.249  0.00  0.00    +0.000 HD
BRANCH  12  26
ATOM     25  C   UNL     1      -1.681  14.704  23.141  0.00  0.00    +0.000 C 
ATOM     26  O   UNL     1      -1.621  13.967  21.925  0.00  0.00    +0.000 OA
ENDBRANCH  12  26
ENDBRANCH   1  19
BRANCH   3  27
ATOM     27  C   UNL     1       5.467   4.776  16.874  0.00  0.00    +0.000 A 
ATOM     28  C   UNL     1       5.153   4.076  15.696  0.00  0.00    +0.000 A 
ATOM     29  C   UNL     1       5.971   4.173  14.569  0.00  0.00    +0.000 A 
ATOM     30  C   UNL     1       7.120   4.956  14.611  0.00  0.00    +0.000 A 
ATOM     31  C   UNL     1       7.444   5.649  15.778  0.00  0.00    +0.000 A 
ATOM     32  C   UNL     1       6.630   5.567  16.916  0.00  0.00    +0.000 A 
BRANCH  32  33
ATOM     33  O   UNL     1       7.072   6.347  17.953  0.00  0.00    +0.000 OA
ATOM     34  C   UNL     1       7.794   5.688  18.985  0.00  0.00    +0.000 C 
ENDBRANCH  32  33
ENDBRANCH   3  27
TORSDOF 4
ENDMDL
MODEL 2
REMARK VINA RESULT:      -8.5      4.735      8.048
REMARK  Name = 
REMARK  6 active torsions:
REMARK  status: ('A' for Active; 'I' for Inactive)
REMARK    1  A    between atoms: C_1  and  O_2
REMARK    2  A    between atoms: O_2  and  C_3
REMARK    3  A    between atoms: C_10  and  C_12
REMARK    4  A    between atoms: N_14  and  C_15
REMARK    5  A    between atoms: C_20  and  O_21
REMARK    6  A    between atoms: O_21  and  C_22
REMARK                            x       y       z     vdW  Elec       q    Type
REMARK                         _______ _______ _______ _____ _____    ______ ____
ROOT
ATOM      1  C   UNL     1       6.360   5.947  17.714  0.00  0.00    +0.000 A 
ATOM      2  N   UNL     1       5.419   5.675  18.576  0.00  0.00    +0.000 NA
ATOM      3  N   UNL     1       4.455   4.756  18.236  0.00  0.00    +0.000 N 
ATOM      4  C   UNL     1       4.213   4.318  16.941  0.00  0.00    +0.000 A 
ATOM      5  O   UNL     1       3.222   3.697  16.561  0.00  0.00    +0.000 OA
ATOM      6  C   UNL     1       5.284   4.615  15.967  0.00  0.00    +0.000 A 
ATOM      7  C   UNL     1       5.188   4.123  14.660  0.00  0.00    +0.000 A 
ATOM      8  C   UNL     1       6.235   4.326  13.763  0.00  0.00    +0.000 A 
ATOM      9  C   UNL     1       7.390   4.974  14.182  0.00  0.00    +0.000 A 
ATOM     10  C   UNL     1       7.494   5.452  15.493  0.00  0.00    +0.000 A 
ATOM     11  C   UNL     1       6.411   5.328  16.372  0.00  0.00    +0.000 A 
ENDROOT
BRANCH   1  19
ATOM     12  C   UNL     1      10.865  12.946  19.136  0.00  0.00    +0.000 A 
ATOM     13  C   UNL     1      10.274  13.347  17.942  0.00  0.00    +0.000 A 
ATOM     14  C   UNL     1       9.337  12.522  17.298  0.00  0.00    +0.000 A 
ATOM     15  C   UNL     1       8.991  11.274  17.861  0.00  0.00    +0.000 A 
ATOM     16  N   UNL     1       8.035  10.385  17.382  0.00  0.00    +0.000 NA
ATOM     17  C   UNL     1       8.039   9.303  18.123  0.00  0.00    +0.000 A 
ATOM     18  N   UNL     1       7.151   8.274  17.906  0.00  0.00    +0.000 N 
ATOM     19  C   UNL     1       7.419   6.950  18.189  0.00  0.00    +0.000 C 
ATOM     20  O   UNL     1       8.418   6.495  18.728  0.00  0.00    +0.000 OA
ATOM     21  S   UNL     1       9.103   9.294  19.449  0.00  0.00    +0.000 S 
ATOM     22  C   UNL     1       9.643  10.870  19.026  0.00  0.00    +0.000 A 
ATOM     23  C   UNL     1      10.578  11.689  19.677  0.00  0.00    +0.000 A 
ATOM     24  H   UNL     1       6.401   8.527  17.280  0.00  0.00    +0.000 HD
BRANCH  12  26
ATOM     25  C   UNL     1      11.769  15.082  19.617  0.00  0.00    +0.000 C 
ATOM     26  O   UNL     1      11.774  13.678  19.852  0.00  0.00    +0.000 OA
ENDBRANCH  12  26
ENDBRANCH   1  19
BRANCH   3  27
ATOM     27  C   UNL     1       3.550   4.447  19.279  0.00  0.00    +0.000 A 
ATOM     28  C   UNL     1       2.595   5.418  19.623  0.00  0.00    +0.000 A 
ATOM     29  C   UNL     1       1.603   5.140  20.565  0.00  0.00    +0.000 A 
ATOM     30  C   UNL     1       1.566   3.895  21.186  0.00  0.00    +0.000 A 
ATOM     31  C   UNL     1       2.515   2.927  20.857  0.00  0.00    +0.000 A 
ATOM     32  C   UNL     1       3.513   3.188  19.907  0.00  0.00    +0.000 A 
BRANCH  32  33
ATOM     33  O   UNL     1       4.328   2.113  19.672  0.00  0.00    +0.000 OA
ATOM     34  C   UNL     1       3.863   1.152  18.734  0.00  0.00    +0.000 C 
ENDBRANCH  32  33
ENDBRANCH   3  27
TORSDOF 4
ENDMDL
MODEL 3
REMARK VINA RESULT:      -8.4      1.149      1.275
REMARK  Name = 
REMARK  6 active torsions:
REMARK  status: ('A' for Active; 'I' for Inactive)
REMARK    1  A    between atoms: C_1  and  O_2
REMARK    2  A    between atoms: O_2  and  C_3
REMARK    3  A    between atoms: C_10  and  C_12
REMARK    4  A    between atoms: N_14  and  C_15
REMARK    5  A    between atoms: C_20  and  O_21
REMARK    6  A    between atoms: O_21  and  C_22
REMARK                            x       y       z     vdW  Elec       q    Type
REMARK                         _______ _______ _______ _____ _____    ______ ____
ROOT
ATOM      1  C   UNL     1       2.958   6.333  18.352  0.00  0.00    +0.000 A 
ATOM      2  N   UNL     1       3.913   6.164  17.478  0.00  0.00    +0.000 NA
ATOM      3  N   UNL     1       4.511   4.931  17.381  0.00  0.00    +0.000 N 
ATOM      4  C   UNL     1       4.406   3.932  18.340  0.00  0.00    +0.000 A 
ATOM      5  O   UNL     1       5.108   2.924  18.416  0.00  0.00    +0.000 OA
ATOM      6  C   UNL     1       3.318   4.117  19.322  0.00  0.00    +0.000 A 
ATOM      7  C   UNL     1       3.056   3.114  20.265  0.00  0.00    +0.000 A 
ATOM      8  C   UNL     1       1.976   3.245  21.135  0.00  0.00    +0.000 A 
ATOM      9  C   UNL     1       1.135   4.344  21.035  0.00  0.00    +0.000 A 
ATOM     10  C   UNL     1       1.384   5.339  20.082  0.00  0.00    +0.000 A 
ATOM     11  C   UNL     1       2.517   5.256  19.264  0.00  0.00    +0.000 A 
ENDROOT
BRANCH   1  19
ATOM     12  C   UNL     1      -0.939  13.464  20.644  0.00  0.00    +0.000 A 
ATOM     13  C   UNL     1      -1.491  12.633  21.614  0.00  0.00    +0.000 A 
ATOM     14  C   UNL     1      -1.095  11.288  21.710  0.00  0.00    +0.000 A 
ATOM     15  C   UNL     1      -0.133  10.771  20.815  0.00  0.00    +0.000 A 
ATOM     16  N   UNL     1       0.409   9.491  20.830  0.00  0.00    +0.000 NA
ATOM     17  C   UNL     1       1.218   9.349  19.807  0.00  0.00    +0.000 A 
ATOM     18  N   UNL     1       1.935   8.192  19.606  0.00  0.00    +0.000 N 
ATOM     19  C   UNL     1       2.315   7.725  18.364  0.00  0.00    +0.000 C 
ATOM     20  O   UNL     1       2.153   8.276  17.284  0.00  0.00    +0.000 OA
ATOM     21  S   UNL     1       1.441  10.716  18.821  0.00  0.00    +0.000 S 
ATOM     22  C   UNL     1       0.358  11.610  19.814  0.00  0.00    +0.000 A 
ATOM     23  C   UNL     1      -0.030  12.954  19.713  0.00  0.00    +0.000 A 
ATOM     24  H   UNL     1       1.926   7.580  20.407  0.00  0.00    +0.000 HD
BRANCH  12  26
ATOM     25  C   UNL     1      -0.505  15.473  19.465  0.00  0.00    +0.000 C 
ATOM     26  O   UNL     1      -1.242  14.789  20.474  0.00  0.00    +0.000 OA
ENDBRANCH  12  26
ENDBRANCH   1  19
BRANCH   3  27
ATOM     27  C   UNL     1       5.451   4.819  16.330  0.00  0.00    +0.000 A 
ATOM     28  C   UNL     1       5.008   4.276  15.112  0.00  0.00    +0.000 A 
ATOM     29  C   UNL     1       5.850   4.236  14.000  0.00  0.00    +0.000 A 
ATOM     30  C   UNL     1       7.150   4.723  14.097  0.00  0.00    +0.000 A 
ATOM     31  C   UNL     1       7.602   5.257  15.303  0.00  0.00    +0.000 A 
ATOM     32  C   UNL     1       6.766   5.311  16.428  0.00  0.00    +0.000 A 
BRANCH  32  33
ATOM     33  O   UNL     1       7.356   5.909  17.511  0.00  0.00    +0.000 OA
ATOM     34  C   UNL     1       7.439   7.328  17.489  0.00  0.00    +0.000 C 
ENDBRANCH  32  33
ENDBRANCH   3  27
TORSDOF 4
ENDMDL
MODEL 4
REMARK VINA RESULT:      -8.3      4.338      8.031
REMARK  Name = 
REMARK  6 active torsions:
REMARK  status: ('A' for Active; 'I' for Inactive)
REMARK    1  A    between atoms: C_1  and  O_2
REMARK    2  A    between atoms: O_2  and  C_3
REMARK    3  A    between atoms: C_10  and  C_12
REMARK    4  A    between atoms: N_14  and  C_15
REMARK    5  A    between atoms: C_20  and  O_21
REMARK    6  A    between atoms: O_21  and  C_22
REMARK                            x       y       z     vdW  Elec       q    Type
REMARK                         _______ _______ _______ _____ _____    ______ ____
ROOT
ATOM      1  C   UNL     1       6.349   5.859  17.684  0.00  0.00    +0.000 A 
ATOM      2  N   UNL     1       5.405   5.565  18.535  0.00  0.00    +0.000 NA
ATOM      3  N   UNL     1       4.456   4.638  18.176  0.00  0.00    +0.000 N 
ATOM      4  C   UNL     1       4.229   4.213  16.874  0.00  0.00    +0.000 A 
ATOM      5  O   UNL     1       3.249   3.585  16.478  0.00  0.00    +0.000 OA
ATOM      6  C   UNL     1       5.303   4.537  15.912  0.00  0.00    +0.000 A 
ATOM      7  C   UNL     1       5.224   4.060  14.598  0.00  0.00    +0.000 A 
ATOM      8  C   UNL     1       6.275   4.288  13.712  0.00  0.00    +0.000 A 
ATOM      9  C   UNL     1       7.418   4.945  14.148  0.00  0.00    +0.000 A 
ATOM     10  C   UNL     1       7.506   5.407  15.466  0.00  0.00    +0.000 A 
ATOM     11  C   UNL     1       6.418   5.258  16.335  0.00  0.00    +0.000 A 
ENDROOT
BRANCH   1  19
ATOM     12  C   UNL     1      10.787  12.885  19.180  0.00  0.00    +0.000 A 
ATOM     13  C   UNL     1      10.225  13.277  17.969  0.00  0.00    +0.000 A 
ATOM     14  C   UNL     1       9.308  12.445  17.305  0.00  0.00    +0.000 A 
ATOM     15  C   UNL     1       8.953  11.199  17.867  0.00  0.00    +0.000 A 
ATOM     16  N   UNL     1       8.013  10.303  17.369  0.00  0.00    +0.000 NA
ATOM     17  C   UNL     1       8.003   9.225  18.116  0.00  0.00    +0.000 A 
ATOM     18  N   UNL     1       7.125   8.191  17.883  0.00  0.00    +0.000 N 
ATOM     19  C   UNL     1       7.391   6.869  18.180  0.00  0.00    +0.000 C 
ATOM     20  O   UNL     1       8.379   6.422  18.747  0.00  0.00    +0.000 OA
ATOM     21  S   UNL     1       9.033   9.228  19.469  0.00  0.00    +0.000 S 
ATOM     22  C   UNL     1       9.578  10.804  19.051  0.00  0.00    +0.000 A 
ATOM     23  C   UNL     1      10.492  11.631  19.721  0.00  0.00    +0.000 A 
ATOM     24  H   UNL     1       6.391   8.437  17.237  0.00  0.00    +0.000 HD
BRANCH  12  26
ATOM     25  C   UNL     1      12.111  14.845  19.322  0.00  0.00    +0.000 C 
ATOM     26  O   UNL     1      11.675  13.625  19.915  0.00  0.00    +0.000 OA
ENDBRANCH  12  26
ENDBRANCH   1  19
BRANCH   3  27
ATOM     27  C   UNL     1       3.547   4.304  19.207  0.00  0.00    +0.000 A 
ATOM     28  C   UNL     1       3.786   3.124  19.932  0.00  0.00    +0.000 A 
ATOM     29  C   UNL     1       2.994   2.790  21.032  0.00  0.00    +0.000 A 
ATOM     30  C   UNL     1       1.945   3.622  21.409  0.00  0.00    +0.000 A 
ATOM     31  C   UNL     1       1.695   4.791  20.692  0.00  0.00    +0.000 A 
ATOM     32  C   UNL     1       2.485   5.145  19.588  0.00  0.00    +0.000 A 
BRANCH  32  33
ATOM     33  O   UNL     1       2.129   6.346  19.033  0.00  0.00    +0.000 OA
ATOM     34  C   UNL     1       2.158   7.479  19.890  0.00  0.00    +0.000 C 
ENDBRANCH  32  33
ENDBRANCH   3  27
TORSDOF 4
ENDMDL
MODEL 5
REMARK VINA RESULT:      -8.2      1.958      2.420
REMARK  Name = 
REMARK  6 active torsions:
REMARK  status: ('A' for Active; 'I' for Inactive)
REMARK    1  A    between atoms: C_1  and  O_2
REMARK    2  A    between atoms: O_2  and  C_3
REMARK    3  A    between atoms: C_10  and  C_12
REMARK    4  A    between atoms: N_14  and  C_15
REMARK    5  A    between atoms: C_20  and  O_21
REMARK    6  A    between atoms: O_21  and  C_22
REMARK                            x       y       z     vdW  Elec       q    Type
REMARK                         _______ _______ _______ _____ _____    ______ ____
ROOT
ATOM      1  C   UNL     1       2.895   5.781  19.329  0.00  0.00    +0.000 A 
ATOM      2  N   UNL     1       3.814   5.798  18.402  0.00  0.00    +0.000 NA
ATOM      3  N   UNL     1       4.446   4.621  18.076  0.00  0.00    +0.000 N 
ATOM      4  C   UNL     1       4.416   3.474  18.857  0.00  0.00    +0.000 A 
ATOM      5  O   UNL     1       5.152   2.496  18.735  0.00  0.00    +0.000 OA
ATOM      6  C   UNL     1       3.369   3.450  19.899  0.00  0.00    +0.000 A 
ATOM      7  C   UNL     1       3.183   2.296  20.670  0.00  0.00    +0.000 A 
ATOM      8  C   UNL     1       2.140   2.238  21.592  0.00  0.00    +0.000 A 
ATOM      9  C   UNL     1       1.260   3.306  21.711  0.00  0.00    +0.000 A 
ATOM     10  C   UNL     1       1.434   4.453  20.929  0.00  0.00    +0.000 A 
ATOM     11  C   UNL     1       2.531   4.552  20.065  0.00  0.00    +0.000 A 
ENDROOT
BRANCH   1  19
ATOM     12  C   UNL     1       0.258  13.791  18.894  0.00  0.00    +0.000 A 
ATOM     13  C   UNL     1       1.449  13.951  18.191  0.00  0.00    +0.000 A 
ATOM     14  C   UNL     1       2.269  12.844  17.917  0.00  0.00    +0.000 A 
ATOM     15  C   UNL     1       1.888  11.557  18.358  0.00  0.00    +0.000 A 
ATOM     16  N   UNL     1       2.554  10.364  18.104  0.00  0.00    +0.000 NA
ATOM     17  C   UNL     1       1.946   9.385  18.732  0.00  0.00    +0.000 A 
ATOM     18  N   UNL     1       2.362   8.079  18.613  0.00  0.00    +0.000 N 
ATOM     19  C   UNL     1       2.210   7.126  19.600  0.00  0.00    +0.000 C 
ATOM     20  O   UNL     1       1.636   7.256  20.672  0.00  0.00    +0.000 OA
ATOM     21  S   UNL     1       0.536   9.794  19.590  0.00  0.00    +0.000 S 
ATOM     22  C   UNL     1       0.721  11.435  19.113  0.00  0.00    +0.000 A 
ATOM     23  C   UNL     1      -0.105  12.536  19.390  0.00  0.00    +0.000 A 
ATOM     24  H   UNL     1       3.022   7.944  17.862  0.00  0.00    +0.000 HD
BRANCH  12  26
ATOM     25  C   UNL     1      -0.250  16.101  18.764  0.00  0.00    +0.000 C 
ATOM     26  O   UNL     1      -0.619  14.797  19.200  0.00  0.00    +0.000 OA
ENDBRANCH  12  26
ENDBRANCH   1  19
BRANCH   3  27
ATOM     27  C   UNL     1       5.340   4.722  16.985  0.00  0.00    +0.000 A 
ATOM     28  C   UNL     1       4.832   4.470  15.699  0.00  0.00    +0.000 A 
ATOM     29  C   UNL     1       5.629   4.657  14.568  0.00  0.00    +0.000 A 
ATOM     30  C   UNL     1       6.946   5.082  14.710  0.00  0.00    +0.000 A 
ATOM     31  C   UNL     1       7.462   5.328  15.983  0.00  0.00    +0.000 A 
ATOM     32  C   UNL     1       6.673   5.151  17.128  0.00  0.00    +0.000 A 
BRANCH  32  33
ATOM     33  O   UNL     1       7.323   5.483  18.288  0.00  0.00    +0.000 OA
ATOM     34  C   UNL     1       7.800   6.818  18.391  0.00  0.00    +0.000 C 
ENDBRANCH  32  33
ENDBRANCH   3  27
TORSDOF 4
ENDMDL
MODEL 6
REMARK VINA RESULT:      -8.0      2.730     10.228
REMARK  Name = 
REMARK  6 active torsions:
REMARK  status: ('A' for Active; 'I' for Inactive)
REMARK    1  A    between atoms: C_1  and  O_2
REMARK    2  A    between atoms: O_2  and  C_3
REMARK    3  A    between atoms: C_10  and  C_12
REMARK    4  A    between atoms: N_14  and  C_15
REMARK    5  A    between atoms: C_20  and  O_21
REMARK    6  A    between atoms: O_21  and  C_22
REMARK                            x       y       z     vdW  Elec       q    Type
REMARK                         _______ _______ _______ _____ _____    ______ ____
ROOT
ATOM      1  C   UNL     1      -0.217  10.899  18.961  0.00  0.00    +0.000 A 
ATOM      2  N   UNL     1      -0.080  11.723  19.964  0.00  0.00    +0.000 NA
ATOM      3  N   UNL     1      -1.179  12.427  20.397  0.00  0.00    +0.000 N 
ATOM      4  C   UNL     1      -2.351  12.575  19.667  0.00  0.00    +0.000 A 
ATOM      5  O   UNL     1      -3.249  13.383  19.897  0.00  0.00    +0.000 OA
ATOM      6  C   UNL     1      -2.510  11.635  18.538  0.00  0.00    +0.000 A 
ATOM      7  C   UNL     1      -3.704  11.628  17.806  0.00  0.00    +0.000 A 
ATOM      8  C   UNL     1      -3.893  10.685  16.797  0.00  0.00    +0.000 A 
ATOM      9  C   UNL     1      -2.919   9.725  16.554  0.00  0.00    +0.000 A 
ATOM     10  C   UNL     1      -1.734   9.720  17.297  0.00  0.00    +0.000 A 
ATOM     11  C   UNL     1      -1.500  10.718  18.251  0.00  0.00    +0.000 A 
ENDROOT
BRANCH   1  19
ATOM     12  C   UNL     1       5.672   4.927  17.986  0.00  0.00    +0.000 A 
ATOM     13  C   UNL     1       5.107   4.438  19.160  0.00  0.00    +0.000 A 
ATOM     14  C   UNL     1       3.989   5.069  19.730  0.00  0.00    +0.000 A 
ATOM     15  C   UNL     1       3.432   6.210  19.112  0.00  0.00    +0.000 A 
ATOM     16  N   UNL     1       2.292   6.897  19.513  0.00  0.00    +0.000 NA
ATOM     17  C   UNL     1       2.121   7.944  18.741  0.00  0.00    +0.000 A 
ATOM     18  N   UNL     1       1.034   8.776  18.881  0.00  0.00    +0.000 N 
ATOM     19  C   UNL     1       1.047  10.122  18.572  0.00  0.00    +0.000 C 
ATOM     20  O   UNL     1       1.964  10.758  18.071  0.00  0.00    +0.000 OA
ATOM     21  S   UNL     1       3.235   8.141  17.472  0.00  0.00    +0.000 S 
ATOM     22  C   UNL     1       4.056   6.715  17.970  0.00  0.00    +0.000 A 
ATOM     23  C   UNL     1       5.171   6.089  17.393  0.00  0.00    +0.000 A 
ATOM     24  H   UNL     1       0.316   8.389  19.474  0.00  0.00    +0.000 HD
BRANCH  12  26
ATOM     25  C   UNL     1       6.989   4.850  16.018  0.00  0.00    +0.000 C 
ATOM     26  O   UNL     1       6.749   4.380  17.340  0.00  0.00    +0.000 OA
ENDBRANCH  12  26
ENDBRANCH   1  19
BRANCH   3  27
ATOM     27  C   UNL     1      -0.954  13.203  21.558  0.00  0.00    +0.000 A 
ATOM     28  C   UNL     1      -0.078  14.296  21.454  0.00  0.00    +0.000 A 
ATOM     29  C   UNL     1       0.106  15.168  22.529  0.00  0.00    +0.000 A 
ATOM     30  C   UNL     1      -0.572  14.947  23.724  0.00  0.00    +0.000 A 
ATOM     31  C   UNL     1      -1.439  13.861  23.839  0.00  0.00    +0.000 A 
ATOM     32  C   UNL     1      -1.639  12.979  22.767  0.00  0.00    +0.000 A 
BRANCH  32  33
ATOM     33  O   UNL     1      -2.557  11.999  23.039  0.00  0.00    +0.000 OA
ATOM     34  C   UNL     1      -3.609  12.340  23.933  0.00  0.00    +0.000 C 
ENDBRANCH  32  33
ENDBRANCH   3  27
TORSDOF 4
ENDMDL
MODEL 7
REMARK VINA RESULT:      -7.6      2.949     10.107
REMARK  Name = 
REMARK  6 active torsions:
REMARK  status: ('A' for Active; 'I' for Inactive)
REMARK    1  A    between atoms: C_1  and  O_2
REMARK    2  A    between atoms: O_2  and  C_3
REMARK    3  A    between atoms: C_10  and  C_12
REMARK    4  A    between atoms: N_14  and  C_15
REMARK    5  A    between atoms: C_20  and  O_21
REMARK    6  A    between atoms: O_21  and  C_22
REMARK                            x       y       z     vdW  Elec       q    Type
REMARK                         _______ _______ _______ _____ _____    ______ ____
ROOT
ATOM      1  C   UNL     1      -0.370  10.675  18.633  0.00  0.00    +0.000 A 
ATOM      2  N   UNL     1      -0.367  11.427  19.699  0.00  0.00    +0.000 NA
ATOM      3  N   UNL     1      -1.524  12.081  20.051  0.00  0.00    +0.000 N 
ATOM      4  C   UNL     1      -2.610  12.262  19.204  0.00  0.00    +0.000 A 
ATOM      5  O   UNL     1      -3.547  13.037  19.386  0.00  0.00    +0.000 OA
ATOM      6  C   UNL     1      -2.619  11.402  18.002  0.00  0.00    +0.000 A 
ATOM      7  C   UNL     1      -3.721  11.428  17.140  0.00  0.00    +0.000 A 
ATOM      8  C   UNL     1      -3.774  10.557  16.054  0.00  0.00    +0.000 A 
ATOM      9  C   UNL     1      -2.756   9.633  15.857  0.00  0.00    +0.000 A 
ATOM     10  C   UNL     1      -1.661   9.594  16.728  0.00  0.00    +0.000 A 
ATOM     11  C   UNL     1      -1.561  10.525  17.769  0.00  0.00    +0.000 A 
ENDROOT
BRANCH   1  19
ATOM     12  C   UNL     1       5.797   4.933  18.086  0.00  0.00    +0.000 A 
ATOM     13  C   UNL     1       5.164   4.417  19.213  0.00  0.00    +0.000 A 
ATOM     14  C   UNL     1       3.983   5.003  19.699  0.00  0.00    +0.000 A 
ATOM     15  C   UNL     1       3.432   6.125  19.044  0.00  0.00    +0.000 A 
ATOM     16  N   UNL     1       2.240   6.766  19.361  0.00  0.00    +0.000 NA
ATOM     17  C   UNL     1       2.087   7.810  18.580  0.00  0.00    +0.000 A 
ATOM     18  N   UNL     1       0.962   8.601  18.640  0.00  0.00    +0.000 N 
ATOM     19  C   UNL     1       0.947   9.947  18.337  0.00  0.00    +0.000 C 
ATOM     20  O   UNL     1       1.874  10.620  17.908  0.00  0.00    +0.000 OA
ATOM     21  S   UNL     1       3.285   8.056  17.399  0.00  0.00    +0.000 S 
ATOM     22  C   UNL     1       4.119   6.659  17.953  0.00  0.00    +0.000 A 
ATOM     23  C   UNL     1       5.298   6.079  17.460  0.00  0.00    +0.000 A 
ATOM     24  H   UNL     1       0.217   8.184  19.178  0.00  0.00    +0.000 HD
BRANCH  12  26
ATOM     25  C   UNL     1       7.084   4.633  16.120  0.00  0.00    +0.000 C 
ATOM     26  O   UNL     1       6.939   4.430  17.521  0.00  0.00    +0.000 OA
ENDBRANCH  12  26
ENDBRANCH   1  19
BRANCH   3  27
ATOM     27  C   UNL     1      -1.451  12.775  21.281  0.00  0.00    +0.000 A 
ATOM     28  C   UNL     1      -2.062  12.186  22.401  0.00  0.00    +0.000 A 
ATOM     29  C   UNL     1      -1.936  12.761  23.667  0.00  0.00    +0.000 A 
ATOM     30  C   UNL     1      -1.212  13.939  23.825  0.00  0.00    +0.000 A 
ATOM     31  C   UNL     1      -0.608  14.535  22.718  0.00  0.00    +0.000 A 
ATOM     32  C   UNL     1      -0.720  13.967  21.441  0.00  0.00    +0.000 A 
BRANCH  32  33
ATOM     33  O   UNL     1      -0.026  14.657  20.481  0.00  0.00    +0.000 OA
ATOM     34  C   UNL     1      -0.761  15.607  19.722  0.00  0.00    +0.000 C 
ENDBRANCH  32  33
ENDBRANCH   3  27
TORSDOF 4
ENDMDL
MODEL 8
REMARK VINA RESULT:      -7.5      1.703      2.509
REMARK  Name = 
REMARK  6 active torsions:
REMARK  status: ('A' for Active; 'I' for Inactive)
REMARK    1  A    between atoms: C_1  and  O_2
REMARK    2  A    between atoms: O_2  and  C_3
REMARK    3  A    between atoms: C_10  and  C_12
REMARK    4  A    between atoms: N_14  and  C_15
REMARK    5  A    between atoms: C_20  and  O_21
REMARK    6  A    between atoms: O_21  and  C_22
REMARK                            x       y       z     vdW  Elec       q    Type
REMARK                         _______ _______ _______ _____ _____    ______ ____
ROOT
ATOM      1  C   UNL     1       2.699   6.245  19.686  0.00  0.00    +0.000 A 
ATOM      2  N   UNL     1       3.756   6.528  18.975  0.00  0.00    +0.000 NA
ATOM      3  N   UNL     1       4.545   5.497  18.524  0.00  0.00    +0.000 N 
ATOM      4  C   UNL     1       4.493   4.199  19.014  0.00  0.00    +0.000 A 
ATOM      5  O   UNL     1       5.330   3.318  18.821  0.00  0.00    +0.000 OA
ATOM      6  C   UNL     1       3.291   3.875  19.809  0.00  0.00    +0.000 A 
ATOM      7  C   UNL     1       3.088   2.565  20.258  0.00  0.00    +0.000 A 
ATOM      8  C   UNL     1       1.914   2.235  20.933  0.00  0.00    +0.000 A 
ATOM      9  C   UNL     1       0.928   3.196  21.115  0.00  0.00    +0.000 A 
ATOM     10  C   UNL     1       1.121   4.502  20.652  0.00  0.00    +0.000 A 
ATOM     11  C   UNL     1       2.334   4.860  20.052  0.00  0.00    +0.000 A 
ENDROOT
BRANCH   1  19
ATOM     12  C   UNL     1      -1.293  13.680  19.965  0.00  0.00    +0.000 A 
ATOM     13  C   UNL     1      -0.283  14.047  19.081  0.00  0.00    +0.000 A 
ATOM     14  C   UNL     1       0.656  13.100  18.638  0.00  0.00    +0.000 A 
ATOM     15  C   UNL     1       0.578  11.765  19.092  0.00  0.00    +0.000 A 
ATOM     16  N   UNL     1       1.384  10.706  18.691  0.00  0.00    +0.000 NA
ATOM     17  C   UNL     1       1.065   9.634  19.377  0.00  0.00    +0.000 A 
ATOM     18  N   UNL     1       1.671   8.420  19.146  0.00  0.00    +0.000 N 
ATOM     19  C   UNL     1       1.851   7.450  20.112  0.00  0.00    +0.000 C 
ATOM     20  O   UNL     1       1.451   7.473  21.267  0.00  0.00    +0.000 OA
ATOM     21  S   UNL     1      -0.230   9.788  20.468  0.00  0.00    +0.000 S 
ATOM     22  C   UNL     1      -0.408  11.439  20.024  0.00  0.00    +0.000 A 
ATOM     23  C   UNL     1      -1.350  12.379  20.470  0.00  0.00    +0.000 A 
ATOM     24  H   UNL     1       2.209   8.405  18.293  0.00  0.00    +0.000 HD
BRANCH  12  26
ATOM     25  C   UNL     1      -3.477  13.895  20.859  0.00  0.00    +0.000 C 
ATOM     26  O   UNL     1      -2.265  14.518  20.445  0.00  0.00    +0.000 OA
ENDBRANCH  12  26
ENDBRANCH   1  19
BRANCH   3  27
ATOM     27  C   UNL     1       5.598   5.899  17.669  0.00  0.00    +0.000 A 
ATOM     28  C   UNL     1       6.562   6.779  18.189  0.00  0.00    +0.000 A 
ATOM     29  C   UNL     1       7.685   7.131  17.439  0.00  0.00    +0.000 A 
ATOM     30  C   UNL     1       7.849   6.621  16.155  0.00  0.00    +0.000 A 
ATOM     31  C   UNL     1       6.894   5.752  15.627  0.00  0.00    +0.000 A 
ATOM     32  C   UNL     1       5.763   5.384  16.370  0.00  0.00    +0.000 A 
BRANCH  32  33
ATOM     33  O   UNL     1       4.957   4.488  15.717  0.00  0.00    +0.000 OA
ATOM     34  C   UNL     1       5.411   4.026  14.452  0.00  0.00    +0.000 C 
ENDBRANCH  32  33
ENDBRANCH   3  27
TORSDOF 4
ENDMDL
MODEL 9
REMARK VINA RESULT:      -7.5      3.221     10.470
REMARK  Name = 
REMARK  6 active torsions:
REMARK  status: ('A' for Active; 'I' for Inactive)
REMARK    1  A    between atoms: C_1  and  O_2
REMARK    2  A    between atoms: O_2  and  C_3
REMARK    3  A    between atoms: C_10  and  C_12
REMARK    4  A    between atoms: N_14  and  C_15
REMARK    5  A    between atoms: C_20  and  O_21
REMARK    6  A    between atoms: O_21  and  C_22
REMARK                            x       y       z     vdW  Elec       q    Type
REMARK                         _______ _______ _______ _____ _____    ______ ____
ROOT
ATOM      1  C   UNL     1       0.654  11.939  18.941  0.00  0.00    +0.000 A 
ATOM      2  N   UNL     1      -0.564  11.785  19.384  0.00  0.00    +0.000 NA
ATOM      3  N   UNL     1      -1.326  12.903  19.626  0.00  0.00    +0.000 N 
ATOM      4  C   UNL     1      -0.815  14.190  19.739  0.00  0.00    +0.000 A 
ATOM      5  O   UNL     1      -1.410  15.167  20.190  0.00  0.00    +0.000 OA
ATOM      6  C   UNL     1       0.560  14.366  19.227  0.00  0.00    +0.000 A 
ATOM      7  C   UNL     1       1.128  15.645  19.194  0.00  0.00    +0.000 A 
ATOM      8  C   UNL     1       2.390  15.830  18.633  0.00  0.00    +0.000 A 
ATOM      9  C   UNL     1       3.059  14.754  18.065  0.00  0.00    +0.000 A 
ATOM     10  C   UNL     1       2.485  13.478  18.081  0.00  0.00    +0.000 A 
ATOM     11  C   UNL     1       1.257  13.271  18.722  0.00  0.00    +0.000 A 
ENDROOT
BRANCH   1  19
ATOM     12  C   UNL     1       3.502   3.991  19.061  0.00  0.00    +0.000 A 
ATOM     13  C   UNL     1       3.049   4.044  20.375  0.00  0.00    +0.000 A 
ATOM     14  C   UNL     1       2.397   5.190  20.859  0.00  0.00    +0.000 A 
ATOM     15  C   UNL     1       2.200   6.301  20.010  0.00  0.00    +0.000 A 
ATOM     16  N   UNL     1       1.514   7.470  20.320  0.00  0.00    +0.000 NA
ATOM     17  C   UNL     1       1.597   8.303  19.310  0.00  0.00    +0.000 A 
ATOM     18  N   UNL     1       0.961   9.523  19.324  0.00  0.00    +0.000 N 
ATOM     19  C   UNL     1       1.419  10.641  18.655  0.00  0.00    +0.000 C 
ATOM     20  O   UNL     1       2.384  10.713  17.908  0.00  0.00    +0.000 OA
ATOM     21  S   UNL     1       2.416   7.742  17.929  0.00  0.00    +0.000 S 
ATOM     22  C   UNL     1       2.718   6.244  18.715  0.00  0.00    +0.000 A 
ATOM     23  C   UNL     1       3.369   5.102  18.224  0.00  0.00    +0.000 A 
ATOM     24  H   UNL     1       0.289   9.607  20.071  0.00  0.00    +0.000 HD
BRANCH  12  26
ATOM     25  C   UNL     1       3.331   1.764  18.272  0.00  0.00    +0.000 C 
ATOM     26  O   UNL     1       4.134   2.920  18.485  0.00  0.00    +0.000 OA
ENDBRANCH  12  26
ENDBRANCH   1  19
BRANCH   3  27
ATOM     27  C   UNL     1      -2.665  12.629  19.991  0.00  0.00    +0.000 A 
ATOM     28  C   UNL     1      -3.060  12.937  21.304  0.00  0.00    +0.000 A 
ATOM     29  C   UNL     1      -4.391  12.795  21.701  0.00  0.00    +0.000 A 
ATOM     30  C   UNL     1      -5.338  12.327  20.795  0.00  0.00    +0.000 A 
ATOM     31  C   UNL     1      -4.954  12.012  19.491  0.00  0.00    +0.000 A 
ATOM     32  C   UNL     1      -3.623  12.155  19.076  0.00  0.00    +0.000 A 
BRANCH  32  33
ATOM     33  O   UNL     1      -3.434  11.847  17.754  0.00  0.00    +0.000 OA
ATOM     34  C   UNL     1      -4.557  11.327  17.054  0.00  0.00    +0.000 C 
ENDBRANCH  32  33
ENDBRANCH   3  27
TORSDOF 4
ENDMDL
