MODEL 1
REMARK VINA RESULT:      -7.9      0.000      0.000
REMARK  Name = 
REMARK  3 active torsions:
REMARK  status: ('A' for Active; 'I' for Inactive)
REMARK    1  A    between atoms: O_1  and  C_2
REMARK    2  A    between atoms: C_9  and  C_10
REMARK    3  A    between atoms: C_11  and  C_12
REMARK                            x       y       z     vdW  Elec       q    Type
REMARK                         _______ _______ _______ _____ _____    ______ ____
ROOT
ATOM      1  C   UNL     1       5.423   6.106  15.948  0.00  0.00    +0.000 A 
ATOM      2  C   UNL     1       4.845   4.833  15.863  0.00  0.00    +0.000 A 
ATOM      3  C   UNL     1       5.216   3.850  16.772  0.00  0.00    +0.000 A 
ATOM      4  C   UNL     1       6.157   4.143  17.757  0.00  0.00    +0.000 A 
ATOM      5  C   UNL     1       6.733   5.424  17.840  0.00  0.00    +0.000 A 
ATOM      6  C   UNL     1       7.678   5.726  18.825  0.00  0.00    +0.000 A 
ATOM      7  C   UNL     1       8.233   7.000  18.890  0.00  0.00    +0.000 A 
ATOM      8  C   UNL     1       7.828   7.945  17.962  0.00  0.00    +0.000 A 
ATOM      9  N   UNL     1       6.919   7.673  16.998  0.00  0.00    +0.000 NA
ATOM     10  C   UNL     1       6.370   6.437  16.928  0.00  0.00    +0.000 A 
ENDROOT
BRANCH   1  11
ATOM     11  O   UNL     1       5.048   7.062  15.033  0.00  0.00    +0.000 OA
ATOM     12  H   UNL     1       4.560   6.644  14.307  0.00  0.00    +0.000 HD
ENDBRANCH   1  11
BRANCH   8  13
ATOM     13  C   UNL     1       8.408   9.297  17.985  0.00  0.00    +0.000 C 
ATOM     14  C   UNL     1       9.217   9.741  18.960  0.00  0.00    +0.000 C 
BRANCH  14  15
ATOM     15  C   UNL     1       9.736  11.112  18.979  0.00  0.00    +0.000 A 
ATOM     16  C   UNL     1      10.401  11.574  17.833  0.00  0.00    +0.000 A 
ATOM     17  C   UNL     1      10.903  12.876  17.776  0.00  0.00    +0.000 A 
ATOM     18  C   UNL     1      10.744  13.733  18.863  0.00  0.00    +0.000 A 
ATOM     19  C   UNL     1      10.093  13.285  20.011  0.00  0.00    +0.000 A 
ATOM     20  C   UNL     1       9.593  11.979  20.075  0.00  0.00    +0.000 A 
ATOM     21 CL   UNL     1       8.808  11.486  21.535  0.00  0.00    +0.000 Cl
ENDBRANCH  14  15
ENDBRANCH   8  13
TORSDOF 3
ENDMDL
MODEL 2
REMARK VINA RESULT:      -7.8      1.260      1.380
REMARK  Name = 
REMARK  3 active torsions:
REMARK  status: ('A' for Active; 'I' for Inactive)
REMARK    1  A    between atoms: O_1  and  C_2
REMARK    2  A    between atoms: C_9  and  C_10
REMARK    3  A    between atoms: C_11  and  C_12
REMARK                            x       y       z     vdW  Elec       q    Type
REMARK                         _______ _______ _______ _____ _____    ______ ____
ROOT
ATOM      1  C   UNL     1       5.349   6.145  16.152  0.00  0.00    +0.000 A 
ATOM      2  C   UNL     1       4.638   4.940  16.224  0.00  0.00    +0.000 A 
ATOM      3  C   UNL     1       4.915   4.042  17.248  0.00  0.00    +0.000 A 
ATOM      4  C   UNL     1       5.894   4.351  18.188  0.00  0.00    +0.000 A 
ATOM      5  C   UNL     1       6.604   5.563  18.112  0.00  0.00    +0.000 A 
ATOM      6  C   UNL     1       7.589   5.880  19.053  0.00  0.00    +0.000 A 
ATOM      7  C   UNL     1       8.277   7.086  18.961  0.00  0.00    +0.000 A 
ATOM      8  C   UNL     1       7.962   7.949  17.924  0.00  0.00    +0.000 A 
ATOM      9  N   UNL     1       7.016   7.660  17.001  0.00  0.00    +0.000 NA
ATOM     10  C   UNL     1       6.339   6.490  17.083  0.00  0.00    +0.000 A 
ENDROOT
BRANCH   1  11
ATOM     11  O   UNL     1       5.065   7.018  15.126  0.00  0.00    +0.000 OA
ATOM     12  H   UNL     1       4.144   6.900  14.847  0.00  0.00    +0.000 HD
ENDBRANCH   1  11
BRANCH   8  13
ATOM     13  C   UNL     1       8.683   9.223  17.780  0.00  0.00    +0.000 C 
ATOM     14  C   UNL     1       9.002  10.016  18.815  0.00  0.00    +0.000 C 
BRANCH  14  15
ATOM     15  C   UNL     1       9.675  11.306  18.631  0.00  0.00    +0.000 A 
ATOM     16  C   UNL     1      10.941  11.471  19.215  0.00  0.00    +0.000 A 
ATOM     17  C   UNL     1      11.646  12.667  19.063  0.00  0.00    +0.000 A 
ATOM     18  C   UNL     1      11.096  13.711  18.322  0.00  0.00    +0.000 A 
ATOM     19  C   UNL     1       9.835  13.564  17.744  0.00  0.00    +0.000 A 
ATOM     20  C   UNL     1       9.123  12.369  17.899  0.00  0.00    +0.000 A 
ATOM     21 CL   UNL     1       7.561  12.261  17.166  0.00  0.00    +0.000 Cl
ENDBRANCH  14  15
ENDBRANCH   8  13
TORSDOF 3
ENDMDL
MODEL 3
REMARK VINA RESULT:      -7.4      6.410      7.861
REMARK  Name = 
REMARK  3 active torsions:
REMARK  status: ('A' for Active; 'I' for Inactive)
REMARK    1  A    between atoms: O_1  and  C_2
REMARK    2  A    between atoms: C_9  and  C_10
REMARK    3  A    between atoms: C_11  and  C_12
REMARK                            x       y       z     vdW  Elec       q    Type
REMARK                         _______ _______ _______ _____ _____    ______ ____
ROOT
ATOM      1  C   UNL     1       3.776   2.352  20.482  0.00  0.00    +0.000 A 
ATOM      2  C   UNL     1       3.067   2.061  21.654  0.00  0.00    +0.000 A 
ATOM      3  C   UNL     1       1.804   2.607  21.845  0.00  0.00    +0.000 A 
ATOM      4  C   UNL     1       1.258   3.436  20.869  0.00  0.00    +0.000 A 
ATOM      5  C   UNL     1       1.972   3.724  19.692  0.00  0.00    +0.000 A 
ATOM      6  C   UNL     1       1.431   4.556  18.706  0.00  0.00    +0.000 A 
ATOM      7  C   UNL     1       2.154   4.825  17.548  0.00  0.00    +0.000 A 
ATOM      8  C   UNL     1       3.407   4.254  17.404  0.00  0.00    +0.000 A 
ATOM      9  N   UNL     1       3.952   3.451  18.347  0.00  0.00    +0.000 NA
ATOM     10  C   UNL     1       3.256   3.180  19.476  0.00  0.00    +0.000 A 
ENDROOT
BRANCH   1  11
ATOM     11  O   UNL     1       5.028   1.808  20.315  0.00  0.00    +0.000 OA
ATOM     12  H   UNL     1       5.701   2.478  20.508  0.00  0.00    +0.000 HD
ENDBRANCH   1  11
BRANCH   8  13
ATOM     13  C   UNL     1       4.211   4.533  16.204  0.00  0.00    +0.000 C 
ATOM     14  C   UNL     1       5.218   3.749  15.786  0.00  0.00    +0.000 C 
BRANCH  14  15
ATOM     15  C   UNL     1       6.033   4.085  14.615  0.00  0.00    +0.000 A 
ATOM     16  C   UNL     1       5.756   3.415  13.413  0.00  0.00    +0.000 A 
ATOM     17  C   UNL     1       6.482   3.701  12.254  0.00  0.00    +0.000 A 
ATOM     18  C   UNL     1       7.491   4.661  12.282  0.00  0.00    +0.000 A 
ATOM     19  C   UNL     1       7.782   5.328  13.471  0.00  0.00    +0.000 A 
ATOM     20  C   UNL     1       7.062   5.041  14.636  0.00  0.00    +0.000 A 
ATOM     21 CL   UNL     1       7.485   5.897  16.078  0.00  0.00    +0.000 Cl
ENDBRANCH  14  15
ENDBRANCH   8  13
TORSDOF 3
ENDMDL
MODEL 4
REMARK VINA RESULT:      -7.4      5.337      7.052
REMARK  Name = 
REMARK  3 active torsions:
REMARK  status: ('A' for Active; 'I' for Inactive)
REMARK    1  A    between atoms: O_1  and  C_2
REMARK    2  A    between atoms: C_9  and  C_10
REMARK    3  A    between atoms: C_11  and  C_12
REMARK                            x       y       z     vdW  Elec       q    Type
REMARK                         _______ _______ _______ _____ _____    ______ ____
ROOT
ATOM      1  C   UNL     1       6.184   6.164  16.635  0.00  0.00    +0.000 A 
ATOM      2  C   UNL     1       6.972   5.430  15.741  0.00  0.00    +0.000 A 
ATOM      3  C   UNL     1       6.555   4.167  15.338  0.00  0.00    +0.000 A 
ATOM      4  C   UNL     1       5.359   3.648  15.827  0.00  0.00    +0.000 A 
ATOM      5  C   UNL     1       4.570   4.390  16.725  0.00  0.00    +0.000 A 
ATOM      6  C   UNL     1       3.368   3.876  17.222  0.00  0.00    +0.000 A 
ATOM      7  C   UNL     1       2.602   4.629  18.106  0.00  0.00    +0.000 A 
ATOM      8  C   UNL     1       3.060   5.883  18.475  0.00  0.00    +0.000 A 
ATOM      9  N   UNL     1       4.222   6.398  18.010  0.00  0.00    +0.000 NA
ATOM     10  C   UNL     1       4.973   5.675  17.147  0.00  0.00    +0.000 A 
ENDROOT
BRANCH   1  11
ATOM     11  O   UNL     1       6.619   7.410  17.028  0.00  0.00    +0.000 OA
ATOM     12  H   UNL     1       7.564   7.498  16.836  0.00  0.00    +0.000 HD
ENDBRANCH   1  11
BRANCH   8  13
ATOM     13  C   UNL     1       2.288   6.700  19.425  0.00  0.00    +0.000 C 
ATOM     14  C   UNL     1       1.925   7.970  19.188  0.00  0.00    +0.000 C 
BRANCH  14  15
ATOM     15  C   UNL     1       1.202   8.773  20.179  0.00  0.00    +0.000 A 
ATOM     16  C   UNL     1       1.449   8.512  21.536  0.00  0.00    +0.000 A 
ATOM     17  C   UNL     1       0.809   9.252  22.532  0.00  0.00    +0.000 A 
ATOM     18  C   UNL     1      -0.083  10.264  22.185  0.00  0.00    +0.000 A 
ATOM     19  C   UNL     1      -0.345  10.528  20.841  0.00  0.00    +0.000 A 
ATOM     20  C   UNL     1       0.290   9.785  19.839  0.00  0.00    +0.000 A 
ATOM     21 CL   UNL     1      -0.091  10.158  18.194  0.00  0.00    +0.000 Cl
ENDBRANCH  14  15
ENDBRANCH   8  13
TORSDOF 3
ENDMDL
MODEL 5
REMARK VINA RESULT:      -7.3      6.209      7.718
REMARK  Name = 
REMARK  3 active torsions:
REMARK  status: ('A' for Active; 'I' for Inactive)
REMARK    1  A    between atoms: O_1  and  C_2
REMARK    2  A    between atoms: C_9  and  C_10
REMARK    3  A    between atoms: C_11  and  C_12
REMARK                            x       y       z     vdW  Elec       q    Type
REMARK                         _______ _______ _______ _____ _____    ______ ____
ROOT
ATOM      1  C   UNL     1       2.063   2.469  19.244  0.00  0.00    +0.000 A 
ATOM      2  C   UNL     1       1.383   2.306  20.458  0.00  0.00    +0.000 A 
ATOM      3  C   UNL     1       1.375   3.343  21.383  0.00  0.00    +0.000 A 
ATOM      4  C   UNL     1       2.042   4.530  21.092  0.00  0.00    +0.000 A 
ATOM      5  C   UNL     1       2.722   4.690  19.871  0.00  0.00    +0.000 A 
ATOM      6  C   UNL     1       3.394   5.880  19.571  0.00  0.00    +0.000 A 
ATOM      7  C   UNL     1       4.058   6.017  18.356  0.00  0.00    +0.000 A 
ATOM      8  C   UNL     1       4.034   4.956  17.467  0.00  0.00    +0.000 A 
ATOM      9  N   UNL     1       3.394   3.795  17.738  0.00  0.00    +0.000 NA
ATOM     10  C   UNL     1       2.742   3.652  18.916  0.00  0.00    +0.000 A 
ENDROOT
BRANCH   1  11
ATOM     11  O   UNL     1       2.065   1.428  18.344  0.00  0.00    +0.000 OA
ATOM     12  H   UNL     1       1.189   1.350  17.938  0.00  0.00    +0.000 HD
ENDBRANCH   1  11
BRANCH   8  13
ATOM     13  C   UNL     1       4.743   5.055  16.181  0.00  0.00    +0.000 C 
ATOM     14  C   UNL     1       5.276   4.000  15.545  0.00  0.00    +0.000 C 
BRANCH  14  15
ATOM     15  C   UNL     1       6.022   4.143  14.290  0.00  0.00    +0.000 A 
ATOM     16  C   UNL     1       5.602   3.378  13.191  0.00  0.00    +0.000 A 
ATOM     17  C   UNL     1       6.256   3.479  11.961  0.00  0.00    +0.000 A 
ATOM     18  C   UNL     1       7.335   4.348  11.814  0.00  0.00    +0.000 A 
ATOM     19  C   UNL     1       7.769   5.107  12.900  0.00  0.00    +0.000 A 
ATOM     20  C   UNL     1       7.120   5.004  14.136  0.00  0.00    +0.000 A 
ATOM     21 CL   UNL     1       7.720   5.965  15.443  0.00  0.00    +0.000 Cl
ENDBRANCH  14  15
ENDBRANCH   8  13
TORSDOF 3
ENDMDL
MODEL 6
REMARK VINA RESULT:      -7.3      1.287      1.401
REMARK  Name = 
REMARK  3 active torsions:
REMARK  status: ('A' for Active; 'I' for Inactive)
REMARK    1  A    between atoms: O_1  and  C_2
REMARK    2  A    between atoms: C_9  and  C_10
REMARK    3  A    between atoms: C_11  and  C_12
REMARK                            x       y       z     vdW  Elec       q    Type
REMARK                         _______ _______ _______ _____ _____    ______ ____
ROOT
ATOM      1  C   UNL     1       5.522   6.212  16.159  0.00  0.00    +0.000 A 
ATOM      2  C   UNL     1       5.067   4.889  16.227  0.00  0.00    +0.000 A 
ATOM      3  C   UNL     1       5.592   4.032  17.187  0.00  0.00    +0.000 A 
ATOM      4  C   UNL     1       6.564   4.499  18.068  0.00  0.00    +0.000 A 
ATOM      5  C   UNL     1       7.017   5.829  17.997  0.00  0.00    +0.000 A 
ATOM      6  C   UNL     1       7.993   6.306  18.879  0.00  0.00    +0.000 A 
ATOM      7  C   UNL     1       8.424   7.626  18.792  0.00  0.00    +0.000 A 
ATOM      8  C   UNL     1       7.867   8.441  17.820  0.00  0.00    +0.000 A 
ATOM      9  N   UNL     1       6.925   7.999  16.954  0.00  0.00    +0.000 NA
ATOM     10  C   UNL     1       6.496   6.717  17.032  0.00  0.00    +0.000 A 
ENDROOT
BRANCH   1  11
ATOM     11  O   UNL     1       4.994   7.042  15.197  0.00  0.00    +0.000 OA
ATOM     12  H   UNL     1       5.693   7.614  14.844  0.00  0.00    +0.000 HD
ENDBRANCH   1  11
BRANCH   8  13
ATOM     13  C   UNL     1       8.313   9.836  17.683  0.00  0.00    +0.000 C 
ATOM     14  C   UNL     1       9.138  10.440  18.552  0.00  0.00    +0.000 C 
BRANCH  14  15
ATOM     15  C   UNL     1       9.521  11.849  18.414  0.00  0.00    +0.000 A 
ATOM     16  C   UNL     1       8.546  12.748  17.957  0.00  0.00    +0.000 A 
ATOM     17  C   UNL     1       8.837  14.107  17.820  0.00  0.00    +0.000 A 
ATOM     18  C   UNL     1      10.106  14.584  18.143  0.00  0.00    +0.000 A 
ATOM     19  C   UNL     1      11.087  13.700  18.590  0.00  0.00    +0.000 A 
ATOM     20  C   UNL     1      10.801  12.337  18.723  0.00  0.00    +0.000 A 
ATOM     21 CL   UNL     1      12.069  11.296  19.271  0.00  0.00    +0.000 Cl
ENDBRANCH  14  15
ENDBRANCH   8  13
TORSDOF 3
ENDMDL
MODEL 7
REMARK VINA RESULT:      -7.3      7.383      9.441
REMARK  Name = 
REMARK  3 active torsions:
REMARK  status: ('A' for Active; 'I' for Inactive)
REMARK    1  A    between atoms: O_1  and  C_2
REMARK    2  A    between atoms: C_9  and  C_10
REMARK    3  A    between atoms: C_11  and  C_12
REMARK                            x       y       z     vdW  Elec       q    Type
REMARK                         _______ _______ _______ _____ _____    ______ ____
ROOT
ATOM      1  C   UNL     1      -0.438  10.209  22.733  0.00  0.00    +0.000 A 
ATOM      2  C   UNL     1      -1.349  11.188  23.148  0.00  0.00    +0.000 A 
ATOM      3  C   UNL     1      -1.895  12.057  22.211  0.00  0.00    +0.000 A 
ATOM      4  C   UNL     1      -1.531  11.942  20.871  0.00  0.00    +0.000 A 
ATOM      5  C   UNL     1      -0.617  10.955  20.459  0.00  0.00    +0.000 A 
ATOM      6  C   UNL     1      -0.246  10.833  19.116  0.00  0.00    +0.000 A 
ATOM      7  C   UNL     1       0.657   9.848  18.730  0.00  0.00    +0.000 A 
ATOM      8  C   UNL     1       1.171   9.005  19.702  0.00  0.00    +0.000 A 
ATOM      9  N   UNL     1       0.829   9.108  21.007  0.00  0.00    +0.000 NA
ATOM     10  C   UNL     1      -0.051  10.062  21.393  0.00  0.00    +0.000 A 
ENDROOT
BRANCH   1  11
ATOM     11  O   UNL     1       0.097   9.363  23.678  0.00  0.00    +0.000 OA
ATOM     12  H   UNL     1       0.982   9.084  23.399  0.00  0.00    +0.000 HD
ENDBRANCH   1  11
BRANCH   8  13
ATOM     13  C   UNL     1       2.146   7.966  19.336  0.00  0.00    +0.000 C 
ATOM     14  C   UNL     1       2.360   7.561  18.074  0.00  0.00    +0.000 C 
BRANCH  14  15
ATOM     15  C   UNL     1       3.302   6.484  17.750  0.00  0.00    +0.000 A 
ATOM     16  C   UNL     1       4.588   6.849  17.322  0.00  0.00    +0.000 A 
ATOM     17  C   UNL     1       5.540   5.874  17.015  0.00  0.00    +0.000 A 
ATOM     18  C   UNL     1       5.220   4.524  17.137  0.00  0.00    +0.000 A 
ATOM     19  C   UNL     1       3.944   4.147  17.553  0.00  0.00    +0.000 A 
ATOM     20  C   UNL     1       2.985   5.121  17.856  0.00  0.00    +0.000 A 
ATOM     21 CL   UNL     1       1.419   4.582  18.354  0.00  0.00    +0.000 Cl
ENDBRANCH  14  15
ENDBRANCH   8  13
TORSDOF 3
ENDMDL
MODEL 8
REMARK VINA RESULT:      -7.2      6.693      8.848
REMARK  Name = 
REMARK  3 active torsions:
REMARK  status: ('A' for Active; 'I' for Inactive)
REMARK    1  A    between atoms: O_1  and  C_2
REMARK    2  A    between atoms: C_9  and  C_10
REMARK    3  A    between atoms: C_11  and  C_12
REMARK                            x       y       z     vdW  Elec       q    Type
REMARK                         _______ _______ _______ _____ _____    ______ ____
ROOT
ATOM      1  C   UNL     1      -0.448  11.489  19.466  0.00  0.00    +0.000 A 
ATOM      2  C   UNL     1      -1.198  12.241  20.379  0.00  0.00    +0.000 A 
ATOM      3  C   UNL     1      -1.276  11.831  21.704  0.00  0.00    +0.000 A 
ATOM      4  C   UNL     1      -0.607  10.679  22.109  0.00  0.00    +0.000 A 
ATOM      5  C   UNL     1       0.147   9.927  21.189  0.00  0.00    +0.000 A 
ATOM      6  C   UNL     1       0.821   8.768  21.586  0.00  0.00    +0.000 A 
ATOM      7  C   UNL     1       1.563   8.042  20.660  0.00  0.00    +0.000 A 
ATOM      8  C   UNL     1       1.612   8.494  19.352  0.00  0.00    +0.000 A 
ATOM      9  N   UNL     1       0.963   9.610  18.945  0.00  0.00    +0.000 NA
ATOM     10  C   UNL     1       0.241  10.326  19.838  0.00  0.00    +0.000 A 
ENDROOT
BRANCH   1  11
ATOM     11  O   UNL     1      -0.390  11.908  18.157  0.00  0.00    +0.000 OA
ATOM     12  H   UNL     1       0.470  11.671  17.779  0.00  0.00    +0.000 HD
ENDBRANCH   1  11
BRANCH   8  13
ATOM     13  C   UNL     1       2.368   7.741  18.339  0.00  0.00    +0.000 C 
ATOM     14  C   UNL     1       3.048   6.615  18.606  0.00  0.00    +0.000 C 
BRANCH  14  15
ATOM     15  C   UNL     1       3.834   5.918  17.584  0.00  0.00    +0.000 A 
ATOM     16  C   UNL     1       4.657   6.693  16.753  0.00  0.00    +0.000 A 
ATOM     17  C   UNL     1       5.448   6.092  15.771  0.00  0.00    +0.000 A 
ATOM     18  C   UNL     1       5.428   4.709  15.610  0.00  0.00    +0.000 A 
ATOM     19  C   UNL     1       4.608   3.926  16.423  0.00  0.00    +0.000 A 
ATOM     20  C   UNL     1       3.810   4.526  17.404  0.00  0.00    +0.000 A 
ATOM     21 CL   UNL     1       2.808   3.496  18.368  0.00  0.00    +0.000 Cl
ENDBRANCH  14  15
ENDBRANCH   8  13
TORSDOF 3
ENDMDL
MODEL 9
REMARK VINA RESULT:      -7.2      6.808      8.109
REMARK  Name = 
REMARK  3 active torsions:
REMARK  status: ('A' for Active; 'I' for Inactive)
REMARK    1  A    between atoms: O_1  and  C_2
REMARK    2  A    between atoms: C_9  and  C_10
REMARK    3  A    between atoms: C_11  and  C_12
REMARK                            x       y       z     vdW  Elec       q    Type
REMARK                         _______ _______ _______ _____ _____    ______ ____
ROOT
ATOM      1  C   UNL     1       1.548   3.059  19.527  0.00  0.00    +0.000 A 
ATOM      2  C   UNL     1       2.013   1.864  18.964  0.00  0.00    +0.000 A 
ATOM      3  C   UNL     1       3.118   1.887  18.122  0.00  0.00    +0.000 A 
ATOM      4  C   UNL     1       3.749   3.098  17.848  0.00  0.00    +0.000 A 
ATOM      5  C   UNL     1       3.279   4.296  18.417  0.00  0.00    +0.000 A 
ATOM      6  C   UNL     1       3.908   5.516  18.147  0.00  0.00    +0.000 A 
ATOM      7  C   UNL     1       3.428   6.688  18.723  0.00  0.00    +0.000 A 
ATOM      8  C   UNL     1       2.326   6.611  19.558  0.00  0.00    +0.000 A 
ATOM      9  N   UNL     1       1.700   5.442  19.829  0.00  0.00    +0.000 NA
ATOM     10  C   UNL     1       2.161   4.296  19.277  0.00  0.00    +0.000 A 
ENDROOT
BRANCH   1  11
ATOM     11  O   UNL     1       0.448   3.015  20.353  0.00  0.00    +0.000 OA
ATOM     12  H   UNL     1      -0.354   3.166  19.831  0.00  0.00    +0.000 HD
ENDBRANCH   1  11
BRANCH   8  13
ATOM     13  C   UNL     1       1.776   7.832  20.169  0.00  0.00    +0.000 C 
ATOM     14  C   UNL     1       0.578   7.885  20.772  0.00  0.00    +0.000 C 
BRANCH  14  15
ATOM     15  C   UNL     1       0.038   9.132  21.324  0.00  0.00    +0.000 A 
ATOM     16  C   UNL     1      -0.138   9.209  22.714  0.00  0.00    +0.000 A 
ATOM     17  C   UNL     1      -0.630  10.373  23.308  0.00  0.00    +0.000 A 
ATOM     18  C   UNL     1      -0.950  11.476  22.519  0.00  0.00    +0.000 A 
ATOM     19  C   UNL     1      -0.789  11.411  21.135  0.00  0.00    +0.000 A 
ATOM     20  C   UNL     1      -0.302  10.244  20.536  0.00  0.00    +0.000 A 
ATOM     21 CL   UNL     1      -0.139  10.228  18.814  0.00  0.00    +0.000 Cl
ENDBRANCH  14  15
ENDBRANCH   8  13
TORSDOF 3
ENDMDL
