MODEL 1
REMARK VINA RESULT:      -6.8      0.000      0.000
REMARK  Name = 
REMARK  9 active torsions:
REMARK  status: ('A' for Active; 'I' for Inactive)
REMARK    1  A    between atoms: C_1  and  C_2
REMARK    2  A    between atoms: C_3  and  C_4
REMARK    3  A    between atoms: C_4  and  S_5
REMARK    4  A    between atoms: S_5  and  C_6
REMARK    5  A    between atoms: C_18  and  O_19
REMARK    6  A    between atoms: O_19  and  C_20
REMARK    7  A    between atoms: C_20  and  C_21
REMARK    8  A    between atoms: C_21  and  C_22
REMARK    9  A    between atoms: C_21  and  C_23
REMARK                            x       y       z     vdW  Elec       q    Type
REMARK                         _______ _______ _______ _____ _____    ______ ____
ROOT
ATOM      1  C   UNL     1       4.466   7.180  16.925  0.00  0.00    +0.000 C 
ATOM      2  C   UNL     1       3.591   6.712  18.061  0.00  0.00    +0.000 A 
ATOM      3  C   UNL     1       2.475   7.474  18.504  0.00  0.00    +0.000 A 
ATOM      4  C   UNL     1       1.764   7.035  19.645  0.00  0.00    +0.000 A 
ATOM      5  C   UNL     1       2.136   5.892  20.335  0.00  0.00    +0.000 A 
ATOM      6  C   UNL     1       3.192   5.124  19.866  0.00  0.00    +0.000 A 
ATOM      7  C   UNL     1       3.884   5.482  18.700  0.00  0.00    +0.000 A 
ENDROOT
BRANCH   3   8
ATOM      8  C   UNL     1       2.012   8.784  17.889  0.00  0.00    +0.000 C 
BRANCH   8   9
ATOM      9  S   UNL     1       1.426  10.036  19.069  0.00  0.00    +0.000 S 
BRANCH   9  10
ATOM     10  C   UNL     1      -0.235  10.215  18.530  0.00  0.00    +0.000 A 
ATOM     11  N   UNL     1      -0.662   9.676  17.411  0.00  0.00    +0.000 NA
ATOM     12  C   UNL     1      -1.926  10.158  17.116  0.00  0.00    +0.000 A 
ATOM     13  C   UNL     1      -2.656   9.891  15.938  0.00  0.00    +0.000 A 
ATOM     14  C   UNL     1      -3.885  10.525  15.725  0.00  0.00    +0.000 A 
ATOM     15  C   UNL     1      -4.410  11.386  16.684  0.00  0.00    +0.000 A 
ATOM     16  C   UNL     1      -3.728  11.628  17.881  0.00  0.00    +0.000 A 
ATOM     17  C   UNL     1      -2.477  11.016  18.069  0.00  0.00    +0.000 A 
ATOM     18  S   UNL     1      -1.374  11.166  19.384  0.00  0.00    +0.000 S 
ENDBRANCH   9  10
ENDBRANCH   8   9
ENDBRANCH   3   8
BRANCH   7  19
ATOM     19  O   UNL     1       4.853   4.671  18.141  0.00  0.00    +0.000 OA
BRANCH  19  20
ATOM     20  C   UNL     1       6.056   4.561  18.927  0.00  0.00    +0.000 C 
BRANCH  20  21
ATOM     21  C   UNL     1       7.333   4.956  18.173  0.00  0.00    +0.000 C 
ATOM     22  C   UNL     1       7.200   4.714  16.672  0.00  0.00    +0.000 C 
ATOM     23  C   UNL     1       7.750   6.394  18.463  0.00  0.00    +0.000 C 
ENDBRANCH  20  21
ENDBRANCH  19  20
ENDBRANCH   7  19
TORSDOF 6
ENDMDL
MODEL 2
REMARK VINA RESULT:      -6.8      3.109      4.634
REMARK  Name = 
REMARK  9 active torsions:
REMARK  status: ('A' for Active; 'I' for Inactive)
REMARK    1  A    between atoms: C_1  and  C_2
REMARK    2  A    between atoms: C_3  and  C_4
REMARK    3  A    between atoms: C_4  and  S_5
REMARK    4  A    between atoms: S_5  and  C_6
REMARK    5  A    between atoms: C_18  and  O_19
REMARK    6  A    between atoms: O_19  and  C_20
REMARK    7  A    between atoms: C_20  and  C_21
REMARK    8  A    between atoms: C_21  and  C_22
REMARK    9  A    between atoms: C_21  and  C_23
REMARK                            x       y       z     vdW  Elec       q    Type
REMARK                         _______ _______ _______ _____ _____    ______ ____
ROOT
ATOM      1  C   UNL     1       2.828   5.731  19.859  0.00  0.00    +0.000 C 
ATOM      2  C   UNL     1       3.640   5.618  18.593  0.00  0.00    +0.000 A 
ATOM      3  C   UNL     1       3.913   6.752  17.780  0.00  0.00    +0.000 A 
ATOM      4  C   UNL     1       4.584   6.559  16.550  0.00  0.00    +0.000 A 
ATOM      5  C   UNL     1       4.971   5.298  16.126  0.00  0.00    +0.000 A 
ATOM      6  C   UNL     1       4.750   4.203  16.949  0.00  0.00    +0.000 A 
ATOM      7  C   UNL     1       4.149   4.354  18.207  0.00  0.00    +0.000 A 
ENDROOT
BRANCH   3   8
ATOM      8  C   UNL     1       3.475   8.175  18.088  0.00  0.00    +0.000 C 
BRANCH   8   9
ATOM      9  S   UNL     1       1.760   8.577  17.641  0.00  0.00    +0.000 S 
BRANCH   9  10
ATOM     10  C   UNL     1       1.249   9.410  19.099  0.00  0.00    +0.000 A 
ATOM     11  N   UNL     1       1.009   8.765  20.217  0.00  0.00    +0.000 NA
ATOM     12  C   UNL     1       0.409   9.619  21.127  0.00  0.00    +0.000 A 
ATOM     13  C   UNL     1      -0.094   9.254  22.394  0.00  0.00    +0.000 A 
ATOM     14  C   UNL     1      -0.766  10.202  23.173  0.00  0.00    +0.000 A 
ATOM     15  C   UNL     1      -0.908  11.511  22.724  0.00  0.00    +0.000 A 
ATOM     16  C   UNL     1      -0.376  11.910  21.494  0.00  0.00    +0.000 A 
ATOM     17  C   UNL     1       0.265  10.941  20.702  0.00  0.00    +0.000 A 
ATOM     18  S   UNL     1       0.954  11.096  19.130  0.00  0.00    +0.000 S 
ENDBRANCH   9  10
ENDBRANCH   8   9
ENDBRANCH   3   8
BRANCH   7  19
ATOM     19  O   UNL     1       4.033   3.304  19.098  0.00  0.00    +0.000 OA
BRANCH  19  20
ATOM     20  C   UNL     1       3.214   2.216  18.625  0.00  0.00    +0.000 C 
BRANCH  20  21
ATOM     21  C   UNL     1       1.913   2.025  19.415  0.00  0.00    +0.000 C 
ATOM     22  C   UNL     1       2.073   2.439  20.875  0.00  0.00    +0.000 C 
ATOM     23  C   UNL     1       0.735   2.745  18.766  0.00  0.00    +0.000 C 
ENDBRANCH  20  21
ENDBRANCH  19  20
ENDBRANCH   7  19
TORSDOF 6
ENDMDL
MODEL 3
REMARK VINA RESULT:      -6.7      4.658      8.251
REMARK  Name = 
REMARK  9 active torsions:
REMARK  status: ('A' for Active; 'I' for Inactive)
REMARK    1  A    between atoms: C_1  and  C_2
REMARK    2  A    between atoms: C_3  and  C_4
REMARK    3  A    between atoms: C_4  and  S_5
REMARK    4  A    between atoms: S_5  and  C_6
REMARK    5  A    between atoms: C_18  and  O_19
REMARK    6  A    between atoms: O_19  and  C_20
REMARK    7  A    between atoms: C_20  and  C_21
REMARK    8  A    between atoms: C_21  and  C_22
REMARK    9  A    between atoms: C_21  and  C_23
REMARK                            x       y       z     vdW  Elec       q    Type
REMARK                         _______ _______ _______ _____ _____    ______ ____
ROOT
ATOM      1  C   UNL     1       1.791   4.513  21.238  0.00  0.00    +0.000 C 
ATOM      2  C   UNL     1       1.938   5.387  20.018  0.00  0.00    +0.000 A 
ATOM      3  C   UNL     1       1.997   4.835  18.709  0.00  0.00    +0.000 A 
ATOM      4  C   UNL     1       2.247   5.700  17.618  0.00  0.00    +0.000 A 
ATOM      5  C   UNL     1       2.439   7.060  17.802  0.00  0.00    +0.000 A 
ATOM      6  C   UNL     1       2.327   7.600  19.075  0.00  0.00    +0.000 A 
ATOM      7  C   UNL     1       2.013   6.793  20.178  0.00  0.00    +0.000 A 
ENDROOT
BRANCH   3   8
ATOM      8  C   UNL     1       1.882   3.356  18.378  0.00  0.00    +0.000 C 
BRANCH   8   9
ATOM      9  S   UNL     1       3.297   2.333  18.882  0.00  0.00    +0.000 S 
BRANCH   9  10
ATOM     10  C   UNL     1       4.622   3.380  18.400  0.00  0.00    +0.000 A 
ATOM     11  N   UNL     1       5.435   3.917  19.280  0.00  0.00    +0.000 NA
ATOM     12  C   UNL     1       6.230   4.865  18.659  0.00  0.00    +0.000 A 
ATOM     13  C   UNL     1       7.144   5.725  19.304  0.00  0.00    +0.000 A 
ATOM     14  C   UNL     1       7.814   6.706  18.565  0.00  0.00    +0.000 A 
ATOM     15  C   UNL     1       7.614   6.814  17.192  0.00  0.00    +0.000 A 
ATOM     16  C   UNL     1       6.750   5.941  16.522  0.00  0.00    +0.000 A 
ATOM     17  C   UNL     1       6.055   4.983  17.280  0.00  0.00    +0.000 A 
ATOM     18  S   UNL     1       4.884   3.827  16.768  0.00  0.00    +0.000 S 
ENDBRANCH   9  10
ENDBRANCH   8   9
ENDBRANCH   3   8
BRANCH   7  19
ATOM     19  O   UNL     1       1.771   7.322  21.431  0.00  0.00    +0.000 OA
BRANCH  19  20
ATOM     20  C   UNL     1       0.547   8.077  21.527  0.00  0.00    +0.000 C 
BRANCH  20  21
ATOM     21  C   UNL     1       0.714   9.457  22.177  0.00  0.00    +0.000 C 
ATOM     22  C   UNL     1       0.851  10.561  21.133  0.00  0.00    +0.000 C 
ATOM     23  C   UNL     1      -0.408   9.768  23.162  0.00  0.00    +0.000 C 
ENDBRANCH  20  21
ENDBRANCH  19  20
ENDBRANCH   7  19
TORSDOF 6
ENDMDL
MODEL 4
REMARK VINA RESULT:      -6.7      3.079      4.097
REMARK  Name = 
REMARK  9 active torsions:
REMARK  status: ('A' for Active; 'I' for Inactive)
REMARK    1  A    between atoms: C_1  and  C_2
REMARK    2  A    between atoms: C_3  and  C_4
REMARK    3  A    between atoms: C_4  and  S_5
REMARK    4  A    between atoms: S_5  and  C_6
REMARK    5  A    between atoms: C_18  and  O_19
REMARK    6  A    between atoms: O_19  and  C_20
REMARK    7  A    between atoms: C_20  and  C_21
REMARK    8  A    between atoms: C_21  and  C_22
REMARK    9  A    between atoms: C_21  and  C_23
REMARK                            x       y       z     vdW  Elec       q    Type
REMARK                         _______ _______ _______ _____ _____    ______ ____
ROOT
ATOM      1  C   UNL     1       4.987   6.964  17.452  0.00  0.00    +0.000 C 
ATOM      2  C   UNL     1       4.068   5.768  17.471  0.00  0.00    +0.000 A 
ATOM      3  C   UNL     1       2.859   5.770  18.220  0.00  0.00    +0.000 A 
ATOM      4  C   UNL     1       2.100   4.579  18.285  0.00  0.00    +0.000 A 
ATOM      5  C   UNL     1       2.512   3.421  17.644  0.00  0.00    +0.000 A 
ATOM      6  C   UNL     1       3.663   3.441  16.871  0.00  0.00    +0.000 A 
ATOM      7  C   UNL     1       4.413   4.617  16.721  0.00  0.00    +0.000 A 
ENDROOT
BRANCH   3   8
ATOM      8  C   UNL     1       2.336   6.944  19.032  0.00  0.00    +0.000 C 
BRANCH   8   9
ATOM      9  S   UNL     1       1.911   8.427  18.074  0.00  0.00    +0.000 S 
BRANCH   9  10
ATOM     10  C   UNL     1       1.196   9.416  19.336  0.00  0.00    +0.000 A 
ATOM     11  N   UNL     1       1.173   9.028  20.590  0.00  0.00    +0.000 NA
ATOM     12  C   UNL     1       0.360   9.874  21.324  0.00  0.00    +0.000 A 
ATOM     13  C   UNL     1       0.006   9.708  22.679  0.00  0.00    +0.000 A 
ATOM     14  C   UNL     1      -0.906  10.589  23.272  0.00  0.00    +0.000 A 
ATOM     15  C   UNL     1      -1.435  11.650  22.544  0.00  0.00    +0.000 A 
ATOM     16  C   UNL     1      -1.062  11.865  21.214  0.00  0.00    +0.000 A 
ATOM     17  C   UNL     1      -0.174  10.953  20.617  0.00  0.00    +0.000 A 
ATOM     18  S   UNL     1       0.416  10.903  18.999  0.00  0.00    +0.000 S 
ENDBRANCH   9  10
ENDBRANCH   8   9
ENDBRANCH   3   8
BRANCH   7  19
ATOM     19  O   UNL     1       5.489   4.698  15.858  0.00  0.00    +0.000 OA
BRANCH  19  20
ATOM     20  C   UNL     1       5.160   4.443  14.478  0.00  0.00    +0.000 C 
BRANCH  20  21
ATOM     21  C   UNL     1       6.328   3.890  13.650  0.00  0.00    +0.000 C 
ATOM     22  C   UNL     1       5.864   3.385  12.287  0.00  0.00    +0.000 C 
ATOM     23  C   UNL     1       7.460   4.902  13.506  0.00  0.00    +0.000 C 
ENDBRANCH  20  21
ENDBRANCH  19  20
ENDBRANCH   7  19
TORSDOF 6
ENDMDL
MODEL 5
REMARK VINA RESULT:      -6.6      3.449      8.669
REMARK  Name = 
REMARK  9 active torsions:
REMARK  status: ('A' for Active; 'I' for Inactive)
REMARK    1  A    between atoms: C_1  and  C_2
REMARK    2  A    between atoms: C_3  and  C_4
REMARK    3  A    between atoms: C_4  and  S_5
REMARK    4  A    between atoms: S_5  and  C_6
REMARK    5  A    between atoms: C_18  and  O_19
REMARK    6  A    between atoms: O_19  and  C_20
REMARK    7  A    between atoms: C_20  and  C_21
REMARK    8  A    between atoms: C_21  and  C_22
REMARK    9  A    between atoms: C_21  and  C_23
REMARK                            x       y       z     vdW  Elec       q    Type
REMARK                         _______ _______ _______ _____ _____    ______ ____
ROOT
ATOM      1  C   UNL     1       0.830   8.754  21.703  0.00  0.00    +0.000 C 
ATOM      2  C   UNL     1       1.298   8.662  20.272  0.00  0.00    +0.000 A 
ATOM      3  C   UNL     1       2.016   7.530  19.795  0.00  0.00    +0.000 A 
ATOM      4  C   UNL     1       2.522   7.555  18.475  0.00  0.00    +0.000 A 
ATOM      5  C   UNL     1       2.338   8.654  17.650  0.00  0.00    +0.000 A 
ATOM      6  C   UNL     1       1.591   9.731  18.102  0.00  0.00    +0.000 A 
ATOM      7  C   UNL     1       1.011   9.723  19.380  0.00  0.00    +0.000 A 
ENDROOT
BRANCH   3   8
ATOM      8  C   UNL     1       2.356   6.300  20.620  0.00  0.00    +0.000 C 
BRANCH   8   9
ATOM      9  S   UNL     1       1.871   4.710  19.885  0.00  0.00    +0.000 S 
BRANCH   9  10
ATOM     10  C   UNL     1       3.292   4.375  18.910  0.00  0.00    +0.000 A 
ATOM     11  N   UNL     1       4.503   4.654  19.332  0.00  0.00    +0.000 NA
ATOM     12  C   UNL     1       5.405   4.505  18.292  0.00  0.00    +0.000 A 
ATOM     13  C   UNL     1       6.778   4.824  18.338  0.00  0.00    +0.000 A 
ATOM     14  C   UNL     1       7.556   4.715  17.179  0.00  0.00    +0.000 A 
ATOM     15  C   UNL     1       6.991   4.258  15.993  0.00  0.00    +0.000 A 
ATOM     16  C   UNL     1       5.643   3.889  15.934  0.00  0.00    +0.000 A 
ATOM     17  C   UNL     1       4.863   4.037  17.093  0.00  0.00    +0.000 A 
ATOM     18  S   UNL     1       3.181   3.741  17.323  0.00  0.00    +0.000 S 
ENDBRANCH   9  10
ENDBRANCH   8   9
ENDBRANCH   3   8
BRANCH   7  19
ATOM     19  O   UNL     1       0.159  10.724  19.807  0.00  0.00    +0.000 OA
BRANCH  19  20
ATOM     20  C   UNL     1      -1.135  10.709  19.171  0.00  0.00    +0.000 C 
BRANCH  20  21
ATOM     21  C   UNL     1      -1.693  12.104  18.861  0.00  0.00    +0.000 C 
ATOM     22  C   UNL     1      -2.559  12.633  20.001  0.00  0.00    +0.000 C 
ATOM     23  C   UNL     1      -0.593  13.096  18.501  0.00  0.00    +0.000 C 
ENDBRANCH  20  21
ENDBRANCH  19  20
ENDBRANCH   7  19
TORSDOF 6
ENDMDL
MODEL 6
REMARK VINA RESULT:      -6.6      2.904      3.986
REMARK  Name = 
REMARK  9 active torsions:
REMARK  status: ('A' for Active; 'I' for Inactive)
REMARK    1  A    between atoms: C_1  and  C_2
REMARK    2  A    between atoms: C_3  and  C_4
REMARK    3  A    between atoms: C_4  and  S_5
REMARK    4  A    between atoms: S_5  and  C_6
REMARK    5  A    between atoms: C_18  and  O_19
REMARK    6  A    between atoms: O_19  and  C_20
REMARK    7  A    between atoms: C_20  and  C_21
REMARK    8  A    between atoms: C_21  and  C_22
REMARK    9  A    between atoms: C_21  and  C_23
REMARK                            x       y       z     vdW  Elec       q    Type
REMARK                         _______ _______ _______ _____ _____    ______ ____
ROOT
ATOM      1  C   UNL     1       5.900   6.494  17.724  0.00  0.00    +0.000 C 
ATOM      2  C   UNL     1       4.629   5.690  17.609  0.00  0.00    +0.000 A 
ATOM      3  C   UNL     1       3.388   6.185  18.096  0.00  0.00    +0.000 A 
ATOM      4  C   UNL     1       2.257   5.337  18.057  0.00  0.00    +0.000 A 
ATOM      5  C   UNL     1       2.338   4.044  17.563  0.00  0.00    +0.000 A 
ATOM      6  C   UNL     1       3.538   3.586  17.040  0.00  0.00    +0.000 A 
ATOM      7  C   UNL     1       4.670   4.415  16.995  0.00  0.00    +0.000 A 
ENDROOT
BRANCH   3   8
ATOM      8  C   UNL     1       3.180   7.549  18.733  0.00  0.00    +0.000 C 
BRANCH   8   9
ATOM      9  S   UNL     1       2.004   8.639  17.879  0.00  0.00    +0.000 S 
BRANCH   9  10
ATOM     10  C   UNL     1       1.011   9.144  19.235  0.00  0.00    +0.000 A 
ATOM     11  N   UNL     1       0.173  10.151  19.143  0.00  0.00    +0.000 NA
ATOM     12  C   UNL     1      -0.303  10.476  20.401  0.00  0.00    +0.000 A 
ATOM     13  C   UNL     1      -1.135  11.573  20.710  0.00  0.00    +0.000 A 
ATOM     14  C   UNL     1      -1.463  11.841  22.044  0.00  0.00    +0.000 A 
ATOM     15  C   UNL     1      -1.007  11.010  23.062  0.00  0.00    +0.000 A 
ATOM     16  C   UNL     1      -0.222   9.889  22.777  0.00  0.00    +0.000 A 
ATOM     17  C   UNL     1       0.132   9.650  21.438  0.00  0.00    +0.000 A 
ATOM     18  S   UNL     1       1.131   8.410  20.777  0.00  0.00    +0.000 S 
ENDBRANCH   9  10
ENDBRANCH   8   9
ENDBRANCH   3   8
BRANCH   7  19
ATOM     19  O   UNL     1       5.838   4.029  16.366  0.00  0.00    +0.000 OA
BRANCH  19  20
ATOM     20  C   UNL     1       5.638   3.367  15.101  0.00  0.00    +0.000 C 
BRANCH  20  21
ATOM     21  C   UNL     1       6.000   4.225  13.882  0.00  0.00    +0.000 C 
ATOM     22  C   UNL     1       7.303   4.990  14.098  0.00  0.00    +0.000 C 
ATOM     23  C   UNL     1       6.049   3.406  12.597  0.00  0.00    +0.000 C 
ENDBRANCH  20  21
ENDBRANCH  19  20
ENDBRANCH   7  19
TORSDOF 6
ENDMDL
MODEL 7
REMARK VINA RESULT:      -6.5      2.645      4.259
REMARK  Name = 
REMARK  9 active torsions:
REMARK  status: ('A' for Active; 'I' for Inactive)
REMARK    1  A    between atoms: C_1  and  C_2
REMARK    2  A    between atoms: C_3  and  C_4
REMARK    3  A    between atoms: C_4  and  S_5
REMARK    4  A    between atoms: S_5  and  C_6
REMARK    5  A    between atoms: C_18  and  O_19
REMARK    6  A    between atoms: O_19  and  C_20
REMARK    7  A    between atoms: C_20  and  C_21
REMARK    8  A    between atoms: C_21  and  C_22
REMARK    9  A    between atoms: C_21  and  C_23
REMARK                            x       y       z     vdW  Elec       q    Type
REMARK                         _______ _______ _______ _____ _____    ______ ____
ROOT
ATOM      1  C   UNL     1       1.668   5.919  20.775  0.00  0.00    +0.000 C 
ATOM      2  C   UNL     1       2.488   6.307  19.570  0.00  0.00    +0.000 A 
ATOM      3  C   UNL     1       2.419   7.613  19.011  0.00  0.00    +0.000 A 
ATOM      4  C   UNL     1       3.128   7.877  17.817  0.00  0.00    +0.000 A 
ATOM      5  C   UNL     1       3.875   6.896  17.186  0.00  0.00    +0.000 A 
ATOM      6  C   UNL     1       3.982   5.640  17.764  0.00  0.00    +0.000 A 
ATOM      7  C   UNL     1       3.352   5.351  18.984  0.00  0.00    +0.000 A 
ENDROOT
BRANCH   3   8
ATOM      8  C   UNL     1       1.575   8.753  19.557  0.00  0.00    +0.000 C 
BRANCH   8   9
ATOM      9  S   UNL     1       0.756   9.785  18.306  0.00  0.00    +0.000 S 
BRANCH   9  10
ATOM     10  C   UNL     1      -0.218  10.813  19.344  0.00  0.00    +0.000 A 
ATOM     11  N   UNL     1      -0.141  10.747  20.652  0.00  0.00    +0.000 NA
ATOM     12  C   UNL     1      -1.166  11.488  21.216  0.00  0.00    +0.000 A 
ATOM     13  C   UNL     1      -1.471  11.562  22.592  0.00  0.00    +0.000 A 
ATOM     14  C   UNL     1      -2.599  12.274  23.016  0.00  0.00    +0.000 A 
ATOM     15  C   UNL     1      -3.398  12.941  22.094  0.00  0.00    +0.000 A 
ATOM     16  C   UNL     1      -3.090  12.924  20.730  0.00  0.00    +0.000 A 
ATOM     17  C   UNL     1      -1.976  12.176  20.311  0.00  0.00    +0.000 A 
ATOM     18  S   UNL     1      -1.382  11.901  18.716  0.00  0.00    +0.000 S 
ENDBRANCH   9  10
ENDBRANCH   8   9
ENDBRANCH   3   8
BRANCH   7  19
ATOM     19  O   UNL     1       3.546   4.153  19.645  0.00  0.00    +0.000 OA
BRANCH  19  20
ATOM     20  C   UNL     1       3.153   2.990  18.888  0.00  0.00    +0.000 C 
BRANCH  20  21
ATOM     21  C   UNL     1       1.952   2.238  19.477  0.00  0.00    +0.000 C 
ATOM     22  C   UNL     1       1.864   2.413  20.990  0.00  0.00    +0.000 C 
ATOM     23  C   UNL     1       0.642   2.628  18.801  0.00  0.00    +0.000 C 
ENDBRANCH  20  21
ENDBRANCH  19  20
ENDBRANCH   7  19
TORSDOF 6
ENDMDL
MODEL 8
REMARK VINA RESULT:      -6.5      2.466      3.518
REMARK  Name = 
REMARK  9 active torsions:
REMARK  status: ('A' for Active; 'I' for Inactive)
REMARK    1  A    between atoms: C_1  and  C_2
REMARK    2  A    between atoms: C_3  and  C_4
REMARK    3  A    between atoms: C_4  and  S_5
REMARK    4  A    between atoms: S_5  and  C_6
REMARK    5  A    between atoms: C_18  and  O_19
REMARK    6  A    between atoms: O_19  and  C_20
REMARK    7  A    between atoms: C_20  and  C_21
REMARK    8  A    between atoms: C_21  and  C_22
REMARK    9  A    between atoms: C_21  and  C_23
REMARK                            x       y       z     vdW  Elec       q    Type
REMARK                         _______ _______ _______ _____ _____    ______ ____
ROOT
ATOM      1  C   UNL     1       5.384   6.813  17.492  0.00  0.00    +0.000 C 
ATOM      2  C   UNL     1       4.325   5.739  17.490  0.00  0.00    +0.000 A 
ATOM      3  C   UNL     1       2.982   6.016  17.866  0.00  0.00    +0.000 A 
ATOM      4  C   UNL     1       2.066   4.942  17.949  0.00  0.00    +0.000 A 
ATOM      5  C   UNL     1       2.451   3.639  17.679  0.00  0.00    +0.000 A 
ATOM      6  C   UNL     1       3.748   3.383  17.260  0.00  0.00    +0.000 A 
ATOM      7  C   UNL     1       4.674   4.424  17.097  0.00  0.00    +0.000 A 
ENDROOT
BRANCH   3   8
ATOM      8  C   UNL     1       2.451   7.383  18.265  0.00  0.00    +0.000 C 
BRANCH   8   9
ATOM      9  S   UNL     1       1.991   7.562  20.013  0.00  0.00    +0.000 S 
BRANCH   9  10
ATOM     10  C   UNL     1       1.117   9.084  19.948  0.00  0.00    +0.000 A 
ATOM     11  N   UNL     1       0.620   9.643  21.027  0.00  0.00    +0.000 NA
ATOM     12  C   UNL     1      -0.203  10.696  20.666  0.00  0.00    +0.000 A 
ATOM     13  C   UNL     1      -0.997  11.461  21.547  0.00  0.00    +0.000 A 
ATOM     14  C   UNL     1      -1.860  12.437  21.034  0.00  0.00    +0.000 A 
ATOM     15  C   UNL     1      -1.911  12.683  19.666  0.00  0.00    +0.000 A 
ATOM     16  C   UNL     1      -1.098  11.972  18.777  0.00  0.00    +0.000 A 
ATOM     17  C   UNL     1      -0.262  10.970  19.299  0.00  0.00    +0.000 A 
ATOM     18  S   UNL     1       0.792   9.886  18.471  0.00  0.00    +0.000 S 
ENDBRANCH   9  10
ENDBRANCH   8   9
ENDBRANCH   3   8
BRANCH   7  19
ATOM     19  O   UNL     1       5.930   4.213  16.561  0.00  0.00    +0.000 OA
BRANCH  19  20
ATOM     20  C   UNL     1       5.930   3.460  15.332  0.00  0.00    +0.000 C 
BRANCH  20  21
ATOM     21  C   UNL     1       6.005   4.328  14.069  0.00  0.00    +0.000 C 
ATOM     22  C   UNL     1       7.317   5.102  13.993  0.00  0.00    +0.000 C 
ATOM     23  C   UNL     1       5.772   3.515  12.799  0.00  0.00    +0.000 C 
ENDBRANCH  20  21
ENDBRANCH  19  20
ENDBRANCH   7  19
TORSDOF 6
ENDMDL
MODEL 9
REMARK VINA RESULT:      -6.5      4.026      8.599
REMARK  Name = 
REMARK  9 active torsions:
REMARK  status: ('A' for Active; 'I' for Inactive)
REMARK    1  A    between atoms: C_1  and  C_2
REMARK    2  A    between atoms: C_3  and  C_4
REMARK    3  A    between atoms: C_4  and  S_5
REMARK    4  A    between atoms: S_5  and  C_6
REMARK    5  A    between atoms: C_18  and  O_19
REMARK    6  A    between atoms: O_19  and  C_20
REMARK    7  A    between atoms: C_20  and  C_21
REMARK    8  A    between atoms: C_21  and  C_22
REMARK    9  A    between atoms: C_21  and  C_23
REMARK                            x       y       z     vdW  Elec       q    Type
REMARK                         _______ _______ _______ _____ _____    ______ ____
ROOT
ATOM      1  C   UNL     1       0.710   8.555  21.768  0.00  0.00    +0.000 C 
ATOM      2  C   UNL     1       1.203   8.537  20.342  0.00  0.00    +0.000 A 
ATOM      3  C   UNL     1       1.944   7.439  19.825  0.00  0.00    +0.000 A 
ATOM      4  C   UNL     1       2.472   7.533  18.517  0.00  0.00    +0.000 A 
ATOM      5  C   UNL     1       2.286   8.666  17.741  0.00  0.00    +0.000 A 
ATOM      6  C   UNL     1       1.516   9.711  18.230  0.00  0.00    +0.000 A 
ATOM      7  C   UNL     1       0.916   9.635  19.496  0.00  0.00    +0.000 A 
ENDROOT
BRANCH   3   8
ATOM      8  C   UNL     1       2.288   6.175  20.597  0.00  0.00    +0.000 C 
BRANCH   8   9
ATOM      9  S   UNL     1       1.802   4.617  19.798  0.00  0.00    +0.000 S 
BRANCH   9  10
ATOM     10  C   UNL     1       3.235   4.307  18.831  0.00  0.00    +0.000 A 
ATOM     11  N   UNL     1       4.439   4.595  19.266  0.00  0.00    +0.000 NA
ATOM     12  C   UNL     1       5.350   4.466  18.231  0.00  0.00    +0.000 A 
ATOM     13  C   UNL     1       6.720   4.799  18.291  0.00  0.00    +0.000 A 
ATOM     14  C   UNL     1       7.507   4.709  17.138  0.00  0.00    +0.000 A 
ATOM     15  C   UNL     1       6.957   4.257  15.943  0.00  0.00    +0.000 A 
ATOM     16  C   UNL     1       5.614   3.874  15.869  0.00  0.00    +0.000 A 
ATOM     17  C   UNL     1       4.823   4.003  17.024  0.00  0.00    +0.000 A 
ATOM     18  S   UNL     1       3.143   3.686  17.238  0.00  0.00    +0.000 S 
ENDBRANCH   9  10
ENDBRANCH   8   9
ENDBRANCH   3   8
BRANCH   7  19
ATOM     19  O   UNL     1       0.043  10.603  19.955  0.00  0.00    +0.000 OA
BRANCH  19  20
ATOM     20  C   UNL     1       0.681  11.830  20.360  0.00  0.00    +0.000 C 
BRANCH  20  21
ATOM     21  C   UNL     1      -0.191  12.721  21.254  0.00  0.00    +0.000 C 
ATOM     22  C   UNL     1      -0.727  11.958  22.461  0.00  0.00    +0.000 C 
ATOM     23  C   UNL     1       0.537  13.990  21.685  0.00  0.00    +0.000 C 
ENDBRANCH  20  21
ENDBRANCH  19  20
ENDBRANCH   7  19
TORSDOF 6
ENDMDL
