MODEL 1
REMARK VINA RESULT:      -8.7      0.000      0.000
REMARK  Name = 
REMARK  4 active torsions:
REMARK  status: ('A' for Active; 'I' for Inactive)
REMARK    1  A    between atoms: C_2  and  C_3
REMARK    2  A    between atoms: C_3  and  S_4
REMARK    3  A    between atoms: S_4  and  C_5
REMARK    4  A    between atoms: N_8  and  C_9
REMARK                            x       y       z     vdW  Elec       q    Type
REMARK                         _______ _______ _______ _____ _____    ______ ____
ROOT
ATOM      1  C   UNL     1       6.955   5.617  16.899  0.00  0.00    +0.000 A 
ATOM      2  N   UNL     1       5.853   4.902  17.143  0.00  0.00    +0.000 NA
ATOM      3  C   UNL     1       5.338   4.197  16.108  0.00  0.00    +0.000 A 
ATOM      4  N   UNL     1       4.201   3.366  16.338  0.00  0.00    +0.000 N 
ATOM      5  C   UNL     1       5.898   4.234  14.816  0.00  0.00    +0.000 A 
ATOM      6  C   UNL     1       5.380   3.571  13.670  0.00  0.00    +0.000 A 
ATOM      7  C   UNL     1       6.030   3.653  12.439  0.00  0.00    +0.000 A 
ATOM      8  C   UNL     1       7.198   4.395  12.337  0.00  0.00    +0.000 A 
ATOM      9  C   UNL     1       7.688   5.070  13.457  0.00  0.00    +0.000 A 
ATOM     10  C   UNL     1       7.055   5.008  14.694  0.00  0.00    +0.000 A 
ATOM     11  N   UNL     1       7.578   5.692  15.716  0.00  0.00    +0.000 NA
ATOM     12  H   UNL     1       4.437   2.413  16.073  0.00  0.00    +0.000 HD
ENDROOT
BRANCH   4  13
ATOM     13  C   UNL     1       3.389   3.413  17.493  0.00  0.00    +0.000 A 
ATOM     14  C   UNL     1       2.159   4.109  17.471  0.00  0.00    +0.000 A 
ATOM     15  C   UNL     1       1.363   4.218  18.614  0.00  0.00    +0.000 A 
ATOM     16  C   UNL     1       1.824   3.627  19.767  0.00  0.00    +0.000 A 
ATOM     17  C   UNL     1       3.005   2.922  19.796  0.00  0.00    +0.000 A 
ATOM     18  C   UNL     1       3.800   2.781  18.677  0.00  0.00    +0.000 A 
ATOM     19  O   UNL     1       3.277   2.426  21.035  0.00  0.00    +0.000 OA
ATOM     20  C   UNL     1       2.173   2.965  21.792  0.00  0.00    +0.000 C 
ATOM     21  O   UNL     1       1.210   3.666  20.978  0.00  0.00    +0.000 OA
ENDBRANCH   4  13
BRANCH   1  22
ATOM     22  S   UNL     1       7.653   6.595  18.214  0.00  0.00    +0.000 S 
BRANCH  22  23
ATOM     23  C   UNL     1       7.588   8.262  17.472  0.00  0.00    +0.000 C 
BRANCH  23  25
ATOM     24  N   UNL     1       9.129  10.111  18.864  0.00  0.00    +0.000 NA
ATOM     25  C   UNL     1       8.431   9.272  18.232  0.00  0.00    +0.000 C 
ENDBRANCH  23  25
ENDBRANCH  22  23
ENDBRANCH   1  22
TORSDOF 4
ENDMDL
MODEL 2
REMARK VINA RESULT:      -8.2      4.128      5.958
REMARK  Name = 
REMARK  4 active torsions:
REMARK  status: ('A' for Active; 'I' for Inactive)
REMARK    1  A    between atoms: C_2  and  C_3
REMARK    2  A    between atoms: C_3  and  S_4
REMARK    3  A    between atoms: S_4  and  C_5
REMARK    4  A    between atoms: N_8  and  C_9
REMARK                            x       y       z     vdW  Elec       q    Type
REMARK                         _______ _______ _______ _____ _____    ______ ____
ROOT
ATOM      1  C   UNL     1       2.393   4.118  17.940  0.00  0.00    +0.000 A 
ATOM      2  N   UNL     1       2.257   5.434  18.125  0.00  0.00    +0.000 NA
ATOM      3  C   UNL     1       3.270   6.221  17.689  0.00  0.00    +0.000 A 
ATOM      4  N   UNL     1       3.140   7.637  17.803  0.00  0.00    +0.000 N 
ATOM      5  C   UNL     1       4.437   5.695  17.102  0.00  0.00    +0.000 A 
ATOM      6  C   UNL     1       5.563   6.451  16.676  0.00  0.00    +0.000 A 
ATOM      7  C   UNL     1       6.661   5.830  16.081  0.00  0.00    +0.000 A 
ATOM      8  C   UNL     1       6.649   4.454  15.906  0.00  0.00    +0.000 A 
ATOM      9  C   UNL     1       5.554   3.710  16.353  0.00  0.00    +0.000 A 
ATOM     10  C   UNL     1       4.450   4.305  16.955  0.00  0.00    +0.000 A 
ATOM     11  N   UNL     1       3.447   3.525  17.368  0.00  0.00    +0.000 NA
ATOM     12  H   UNL     1       3.236   8.048  16.878  0.00  0.00    +0.000 HD
ENDROOT
BRANCH   4  13
ATOM     13  C   UNL     1       2.160   8.297  18.579  0.00  0.00    +0.000 A 
ATOM     14  C   UNL     1       1.320   9.268  17.989  0.00  0.00    +0.000 A 
ATOM     15  C   UNL     1       0.380   9.974  18.745  0.00  0.00    +0.000 A 
ATOM     16  C   UNL     1       0.307   9.694  20.089  0.00  0.00    +0.000 A 
ATOM     17  C   UNL     1       1.099   8.731  20.671  0.00  0.00    +0.000 A 
ATOM     18  C   UNL     1       2.020   8.004  19.944  0.00  0.00    +0.000 A 
ATOM     19  O   UNL     1       0.872   8.618  22.009  0.00  0.00    +0.000 OA
ATOM     20  C   UNL     1      -0.095   9.671  22.210  0.00  0.00    +0.000 C 
ATOM     21  O   UNL     1      -0.510  10.308  20.984  0.00  0.00    +0.000 OA
ENDBRANCH   4  13
BRANCH   1  22
ATOM     22  S   UNL     1       1.110   3.031  18.531  0.00  0.00    +0.000 S 
BRANCH  22  23
ATOM     23  C   UNL     1       0.812   3.727  20.192  0.00  0.00    +0.000 C 
BRANCH  23  25
ATOM     24  N   UNL     1       2.501   2.650  22.122  0.00  0.00    +0.000 NA
ATOM     25  C   UNL     1       1.735   3.138  21.246  0.00  0.00    +0.000 C 
ENDBRANCH  23  25
ENDBRANCH  22  23
ENDBRANCH   1  22
TORSDOF 4
ENDMDL
MODEL 3
REMARK VINA RESULT:      -8.0      4.258      6.159
REMARK  Name = 
REMARK  4 active torsions:
REMARK  status: ('A' for Active; 'I' for Inactive)
REMARK    1  A    between atoms: C_2  and  C_3
REMARK    2  A    between atoms: C_3  and  S_4
REMARK    3  A    between atoms: S_4  and  C_5
REMARK    4  A    between atoms: N_8  and  C_9
REMARK                            x       y       z     vdW  Elec       q    Type
REMARK                         _______ _______ _______ _____ _____    ______ ____
ROOT
ATOM      1  C   UNL     1       2.497   4.036  17.889  0.00  0.00    +0.000 A 
ATOM      2  N   UNL     1       2.387   5.351  18.098  0.00  0.00    +0.000 NA
ATOM      3  C   UNL     1       3.383   6.133  17.619  0.00  0.00    +0.000 A 
ATOM      4  N   UNL     1       3.276   7.549  17.759  0.00  0.00    +0.000 N 
ATOM      5  C   UNL     1       4.511   5.603  16.963  0.00  0.00    +0.000 A 
ATOM      6  C   UNL     1       5.621   6.353  16.488  0.00  0.00    +0.000 A 
ATOM      7  C   UNL     1       6.679   5.729  15.826  0.00  0.00    +0.000 A 
ATOM      8  C   UNL     1       6.642   4.355  15.633  0.00  0.00    +0.000 A 
ATOM      9  C   UNL     1       5.564   3.616  16.128  0.00  0.00    +0.000 A 
ATOM     10  C   UNL     1       4.501   4.215  16.796  0.00  0.00    +0.000 A 
ATOM     11  N   UNL     1       3.513   3.440  17.253  0.00  0.00    +0.000 NA
ATOM     12  H   UNL     1       3.327   7.971  16.836  0.00  0.00    +0.000 HD
ENDROOT
BRANCH   4  13
ATOM     13  C   UNL     1       2.347   8.208  18.596  0.00  0.00    +0.000 A 
ATOM     14  C   UNL     1       2.110   7.735  19.907  0.00  0.00    +0.000 A 
ATOM     15  C   UNL     1       1.158   8.333  20.736  0.00  0.00    +0.000 A 
ATOM     16  C   UNL     1       0.454   9.398  20.228  0.00  0.00    +0.000 A 
ATOM     17  C   UNL     1       0.693   9.887  18.964  0.00  0.00    +0.000 A 
ATOM     18  C   UNL     1       1.643   9.329  18.132  0.00  0.00    +0.000 A 
ATOM     19  O   UNL     1      -0.117  10.938  18.657  0.00  0.00    +0.000 OA
ATOM     20  C   UNL     1      -0.941  11.000  19.840  0.00  0.00    +0.000 C 
ATOM     21  O   UNL     1      -0.536  10.073  20.868  0.00  0.00    +0.000 OA
ENDBRANCH   4  13
BRANCH   1  22
ATOM     22  S   UNL     1       1.236   2.955  18.533  0.00  0.00    +0.000 S 
BRANCH  22  23
ATOM     23  C   UNL     1       0.855   3.780  20.116  0.00  0.00    +0.000 C 
BRANCH  23  25
ATOM     24  N   UNL     1       2.401   2.820  22.219  0.00  0.00    +0.000 NA
ATOM     25  C   UNL     1       1.700   3.256  21.265  0.00  0.00    +0.000 C 
ENDBRANCH  23  25
ENDBRANCH  22  23
ENDBRANCH   1  22
TORSDOF 4
ENDMDL
MODEL 4
REMARK VINA RESULT:      -7.9      0.837      1.261
REMARK  Name = 
REMARK  4 active torsions:
REMARK  status: ('A' for Active; 'I' for Inactive)
REMARK    1  A    between atoms: C_2  and  C_3
REMARK    2  A    between atoms: C_3  and  S_4
REMARK    3  A    between atoms: S_4  and  C_5
REMARK    4  A    between atoms: N_8  and  C_9
REMARK                            x       y       z     vdW  Elec       q    Type
REMARK                         _______ _______ _______ _____ _____    ______ ____
ROOT
ATOM      1  C   UNL     1       7.022   5.582  16.809  0.00  0.00    +0.000 A 
ATOM      2  N   UNL     1       5.968   4.796  17.044  0.00  0.00    +0.000 NA
ATOM      3  C   UNL     1       5.480   4.094  15.993  0.00  0.00    +0.000 A 
ATOM      4  N   UNL     1       4.398   3.191  16.210  0.00  0.00    +0.000 N 
ATOM      5  C   UNL     1       6.019   4.205  14.696  0.00  0.00    +0.000 A 
ATOM      6  C   UNL     1       5.524   3.549  13.536  0.00  0.00    +0.000 A 
ATOM      7  C   UNL     1       6.151   3.707  12.300  0.00  0.00    +0.000 A 
ATOM      8  C   UNL     1       7.272   4.520  12.208  0.00  0.00    +0.000 A 
ATOM      9  C   UNL     1       7.737   5.187  13.343  0.00  0.00    +0.000 A 
ATOM     10  C   UNL     1       7.126   5.050  14.586  0.00  0.00    +0.000 A 
ATOM     11  N   UNL     1       7.622   5.731  15.622  0.00  0.00    +0.000 NA
ATOM     12  H   UNL     1       4.685   2.262  15.913  0.00  0.00    +0.000 HD
ENDROOT
BRANCH   4  13
ATOM     13  C   UNL     1       3.601   3.153  17.377  0.00  0.00    +0.000 A 
ATOM     14  C   UNL     1       3.232   1.913  17.948  0.00  0.00    +0.000 A 
ATOM     15  C   UNL     1       2.401   1.846  19.069  0.00  0.00    +0.000 A 
ATOM     16  C   UNL     1       1.947   3.032  19.594  0.00  0.00    +0.000 A 
ATOM     17  C   UNL     1       2.320   4.247  19.067  0.00  0.00    +0.000 A 
ATOM     18  C   UNL     1       3.158   4.343  17.973  0.00  0.00    +0.000 A 
ATOM     19  O   UNL     1       1.754   5.292  19.731  0.00  0.00    +0.000 OA
ATOM     20  C   UNL     1       0.926   4.592  20.683  0.00  0.00    +0.000 C 
ATOM     21  O   UNL     1       1.100   3.160  20.648  0.00  0.00    +0.000 OA
ENDBRANCH   4  13
BRANCH   1  22
ATOM     22  S   UNL     1       7.680   6.559  18.146  0.00  0.00    +0.000 S 
BRANCH  22  23
ATOM     23  C   UNL     1       7.582   8.233  17.427  0.00  0.00    +0.000 C 
BRANCH  23  25
ATOM     24  N   UNL     1       9.070  10.098  18.856  0.00  0.00    +0.000 NA
ATOM     25  C   UNL     1       8.395   9.252  18.208  0.00  0.00    +0.000 C 
ENDBRANCH  23  25
ENDBRANCH  22  23
ENDBRANCH   1  22
TORSDOF 4
ENDMDL
MODEL 5
REMARK VINA RESULT:      -7.9      1.640      1.861
REMARK  Name = 
REMARK  4 active torsions:
REMARK  status: ('A' for Active; 'I' for Inactive)
REMARK    1  A    between atoms: C_2  and  C_3
REMARK    2  A    between atoms: C_3  and  S_4
REMARK    3  A    between atoms: S_4  and  C_5
REMARK    4  A    between atoms: N_8  and  C_9
REMARK                            x       y       z     vdW  Elec       q    Type
REMARK                         _______ _______ _______ _____ _____    ______ ____
ROOT
ATOM      1  C   UNL     1       6.883   5.942  16.400  0.00  0.00    +0.000 A 
ATOM      2  N   UNL     1       5.791   5.254  16.742  0.00  0.00    +0.000 NA
ATOM      3  C   UNL     1       5.287   4.404  15.815  0.00  0.00    +0.000 A 
ATOM      4  N   UNL     1       4.162   3.597  16.159  0.00  0.00    +0.000 N 
ATOM      5  C   UNL     1       5.849   4.268  14.530  0.00  0.00    +0.000 A 
ATOM      6  C   UNL     1       5.342   3.445  13.489  0.00  0.00    +0.000 A 
ATOM      7  C   UNL     1       5.993   3.363  12.258  0.00  0.00    +0.000 A 
ATOM      8  C   UNL     1       7.150   4.099  12.053  0.00  0.00    +0.000 A 
ATOM      9  C   UNL     1       7.630   4.931  13.068  0.00  0.00    +0.000 A 
ATOM     10  C   UNL     1       6.995   5.034  14.302  0.00  0.00    +0.000 A 
ATOM     11  N   UNL     1       7.506   5.861  15.218  0.00  0.00    +0.000 NA
ATOM     12  H   UNL     1       4.411   2.620  16.030  0.00  0.00    +0.000 HD
ENDROOT
BRANCH   4  13
ATOM     13  C   UNL     1       3.347   3.793  17.297  0.00  0.00    +0.000 A 
ATOM     14  C   UNL     1       2.881   5.087  17.624  0.00  0.00    +0.000 A 
ATOM     15  C   UNL     1       2.120   5.319  18.773  0.00  0.00    +0.000 A 
ATOM     16  C   UNL     1       1.845   4.240  19.580  0.00  0.00    +0.000 A 
ATOM     17  C   UNL     1       2.268   2.971  19.260  0.00  0.00    +0.000 A 
ATOM     18  C   UNL     1       3.003   2.711  18.120  0.00  0.00    +0.000 A 
ATOM     19  O   UNL     1       1.896   2.053  20.194  0.00  0.00    +0.000 OA
ATOM     20  C   UNL     1       1.261   2.904  21.172  0.00  0.00    +0.000 C 
ATOM     21  O   UNL     1       1.162   4.281  20.753  0.00  0.00    +0.000 OA
ENDBRANCH   4  13
BRANCH   1  22
ATOM     22  S   UNL     1       7.565   7.104  17.566  0.00  0.00    +0.000 S 
BRANCH  22  23
ATOM     23  C   UNL     1       7.930   6.002  18.974  0.00  0.00    +0.000 C 
BRANCH  23  25
ATOM     24  N   UNL     1       5.665   4.694  19.919  0.00  0.00    +0.000 NA
ATOM     25  C   UNL     1       6.693   5.287  19.491  0.00  0.00    +0.000 C 
ENDBRANCH  23  25
ENDBRANCH  22  23
ENDBRANCH   1  22
TORSDOF 4
ENDMDL
MODEL 6
REMARK VINA RESULT:      -7.5      3.977      7.054
REMARK  Name = 
REMARK  4 active torsions:
REMARK  status: ('A' for Active; 'I' for Inactive)
REMARK    1  A    between atoms: C_2  and  C_3
REMARK    2  A    between atoms: C_3  and  S_4
REMARK    3  A    between atoms: S_4  and  C_5
REMARK    4  A    between atoms: N_8  and  C_9
REMARK                            x       y       z     vdW  Elec       q    Type
REMARK                         _______ _______ _______ _____ _____    ______ ____
ROOT
ATOM      1  C   UNL     1       2.869   6.543  18.377  0.00  0.00    +0.000 A 
ATOM      2  N   UNL     1       3.729   5.788  17.687  0.00  0.00    +0.000 NA
ATOM      3  C   UNL     1       3.979   4.548  18.170  0.00  0.00    +0.000 A 
ATOM      4  N   UNL     1       4.838   3.680  17.431  0.00  0.00    +0.000 N 
ATOM      5  C   UNL     1       3.401   4.071  19.363  0.00  0.00    +0.000 A 
ATOM      6  C   UNL     1       3.662   2.808  19.961  0.00  0.00    +0.000 A 
ATOM      7  C   UNL     1       3.013   2.423  21.135  0.00  0.00    +0.000 A 
ATOM      8  C   UNL     1       2.104   3.290  21.723  0.00  0.00    +0.000 A 
ATOM      9  C   UNL     1       1.873   4.543  21.149  0.00  0.00    +0.000 A 
ATOM     10  C   UNL     1       2.511   4.952  19.982  0.00  0.00    +0.000 A 
ATOM     11  N   UNL     1       2.248   6.171  19.502  0.00  0.00    +0.000 NA
ATOM     12  H   UNL     1       4.329   2.829  17.212  0.00  0.00    +0.000 HD
ENDROOT
BRANCH   4  13
ATOM     13  C   UNL     1       5.675   4.089  16.368  0.00  0.00    +0.000 A 
ATOM     14  C   UNL     1       6.680   5.060  16.586  0.00  0.00    +0.000 A 
ATOM     15  C   UNL     1       7.485   5.522  15.542  0.00  0.00    +0.000 A 
ATOM     16  C   UNL     1       7.260   5.002  14.290  0.00  0.00    +0.000 A 
ATOM     17  C   UNL     1       6.305   4.037  14.067  0.00  0.00    +0.000 A 
ATOM     18  C   UNL     1       5.510   3.547  15.085  0.00  0.00    +0.000 A 
ATOM     19  O   UNL     1       6.242   3.667  12.759  0.00  0.00    +0.000 OA
ATOM     20  C   UNL     1       7.210   4.565  12.176  0.00  0.00    +0.000 C 
ATOM     21  O   UNL     1       7.910   5.362  13.153  0.00  0.00    +0.000 OA
ENDBRANCH   4  13
BRANCH   1  22
ATOM     22  S   UNL     1       2.534   8.199  17.810  0.00  0.00    +0.000 S 
BRANCH  22  23
ATOM     23  C   UNL     1       1.527   8.836  19.191  0.00  0.00    +0.000 C 
BRANCH  23  25
ATOM     24  N   UNL     1       0.772  11.488  18.830  0.00  0.00    +0.000 NA
ATOM     25  C   UNL     1       1.115  10.285  18.994  0.00  0.00    +0.000 C 
ENDBRANCH  23  25
ENDBRANCH  22  23
ENDBRANCH   1  22
TORSDOF 4
ENDMDL
MODEL 7
REMARK VINA RESULT:      -7.3      4.747      6.974
REMARK  Name = 
REMARK  4 active torsions:
REMARK  status: ('A' for Active; 'I' for Inactive)
REMARK    1  A    between atoms: C_2  and  C_3
REMARK    2  A    between atoms: C_3  and  S_4
REMARK    3  A    between atoms: S_4  and  C_5
REMARK    4  A    between atoms: N_8  and  C_9
REMARK                            x       y       z     vdW  Elec       q    Type
REMARK                         _______ _______ _______ _____ _____    ______ ____
ROOT
ATOM      1  C   UNL     1       3.953   6.022  18.070  0.00  0.00    +0.000 A 
ATOM      2  N   UNL     1       3.187   6.877  18.754  0.00  0.00    +0.000 NA
ATOM      3  C   UNL     1       2.410   6.356  19.733  0.00  0.00    +0.000 A 
ATOM      4  N   UNL     1       1.626   7.238  20.535  0.00  0.00    +0.000 N 
ATOM      5  C   UNL     1       2.364   4.974  20.006  0.00  0.00    +0.000 A 
ATOM      6  C   UNL     1       1.531   4.349  20.973  0.00  0.00    +0.000 A 
ATOM      7  C   UNL     1       1.584   2.971  21.182  0.00  0.00    +0.000 A 
ATOM      8  C   UNL     1       2.463   2.204  20.431  0.00  0.00    +0.000 A 
ATOM      9  C   UNL     1       3.259   2.818  19.460  0.00  0.00    +0.000 A 
ATOM     10  C   UNL     1       3.220   4.189  19.229  0.00  0.00    +0.000 A 
ATOM     11  N   UNL     1       4.002   4.700  18.274  0.00  0.00    +0.000 NA
ATOM     12  H   UNL     1       1.883   7.105  21.510  0.00  0.00    +0.000 HD
ENDROOT
BRANCH   4  13
ATOM     13  C   UNL     1       1.376   8.595  20.231  0.00  0.00    +0.000 A 
ATOM     14  C   UNL     1       1.465   9.054  18.897  0.00  0.00    +0.000 A 
ATOM     15  C   UNL     1       1.276  10.400  18.575  0.00  0.00    +0.000 A 
ATOM     16  C   UNL     1       1.007  11.267  19.607  0.00  0.00    +0.000 A 
ATOM     17  C   UNL     1       0.889  10.831  20.907  0.00  0.00    +0.000 A 
ATOM     18  C   UNL     1       1.050   9.503  21.249  0.00  0.00    +0.000 A 
ATOM     19  O   UNL     1       0.628  11.851  21.770  0.00  0.00    +0.000 OA
ATOM     20  C   UNL     1       0.671  12.982  20.875  0.00  0.00    +0.000 C 
ATOM     21  O   UNL     1       0.839  12.611  19.491  0.00  0.00    +0.000 OA
ENDBRANCH   4  13
BRANCH   1  22
ATOM     22  S   UNL     1       4.965   6.648  16.745  0.00  0.00    +0.000 S 
BRANCH  22  23
ATOM     23  C   UNL     1       5.582   5.090  16.021  0.00  0.00    +0.000 C 
BRANCH  23  25
ATOM     24  N   UNL     1       8.011   4.293  17.115  0.00  0.00    +0.000 NA
ATOM     25  C   UNL     1       6.909   4.654  16.619  0.00  0.00    +0.000 C 
ENDBRANCH  23  25
ENDBRANCH  22  23
ENDBRANCH   1  22
TORSDOF 4
ENDMDL
MODEL 8
REMARK VINA RESULT:      -7.2      4.636      6.877
REMARK  Name = 
REMARK  4 active torsions:
REMARK  status: ('A' for Active; 'I' for Inactive)
REMARK    1  A    between atoms: C_2  and  C_3
REMARK    2  A    between atoms: C_3  and  S_4
REMARK    3  A    between atoms: S_4  and  C_5
REMARK    4  A    between atoms: N_8  and  C_9
REMARK                            x       y       z     vdW  Elec       q    Type
REMARK                         _______ _______ _______ _____ _____    ______ ____
ROOT
ATOM      1  C   UNL     1       3.756   6.054  18.117  0.00  0.00    +0.000 A 
ATOM      2  N   UNL     1       3.036   6.796  18.963  0.00  0.00    +0.000 NA
ATOM      3  C   UNL     1       2.230   6.133  19.826  0.00  0.00    +0.000 A 
ATOM      4  N   UNL     1       1.493   6.879  20.794  0.00  0.00    +0.000 N 
ATOM      5  C   UNL     1       2.110   4.729  19.822  0.00  0.00    +0.000 A 
ATOM      6  C   UNL     1       1.243   3.969  20.653  0.00  0.00    +0.000 A 
ATOM      7  C   UNL     1       1.222   2.576  20.586  0.00  0.00    +0.000 A 
ATOM      8  C   UNL     1       2.061   1.929  19.690  0.00  0.00    +0.000 A 
ATOM      9  C   UNL     1       2.890   2.679  18.853  0.00  0.00    +0.000 A 
ATOM     10  C   UNL     1       2.925   4.069  18.898  0.00  0.00    +0.000 A 
ATOM     11  N   UNL     1       3.734   4.717  18.055  0.00  0.00    +0.000 NA
ATOM     12  H   UNL     1       1.740   6.542  21.721  0.00  0.00    +0.000 HD
ENDROOT
BRANCH   4  13
ATOM     13  C   UNL     1       1.316   8.281  20.766  0.00  0.00    +0.000 A 
ATOM     14  C   UNL     1       1.188   9.006  21.972  0.00  0.00    +0.000 A 
ATOM     15  C   UNL     1       0.958  10.385  21.973  0.00  0.00    +0.000 A 
ATOM     16  C   UNL     1       0.853  11.010  20.754  0.00  0.00    +0.000 A 
ATOM     17  C   UNL     1       1.003  10.322  19.572  0.00  0.00    +0.000 A 
ATOM     18  C   UNL     1       1.253   8.965  19.543  0.00  0.00    +0.000 A 
ATOM     19  O   UNL     1       0.855  11.128  18.484  0.00  0.00    +0.000 OA
ATOM     20  C   UNL     1       0.519  12.381  19.119  0.00  0.00    +0.000 C 
ATOM     21  O   UNL     1       0.587  12.329  20.559  0.00  0.00    +0.000 OA
ENDBRANCH   4  13
BRANCH   1  22
ATOM     22  S   UNL     1       4.803   6.875  16.933  0.00  0.00    +0.000 S 
BRANCH  22  23
ATOM     23  C   UNL     1       5.370   5.456  15.935  0.00  0.00    +0.000 C 
BRANCH  23  25
ATOM     24  N   UNL     1       7.849   4.497  16.754  0.00  0.00    +0.000 NA
ATOM     25  C   UNL     1       6.725   4.932  16.382  0.00  0.00    +0.000 C 
ENDBRANCH  23  25
ENDBRANCH  22  23
ENDBRANCH   1  22
TORSDOF 4
ENDMDL
MODEL 9
REMARK VINA RESULT:      -7.2      4.535      6.657
REMARK  Name = 
REMARK  4 active torsions:
REMARK  status: ('A' for Active; 'I' for Inactive)
REMARK    1  A    between atoms: C_2  and  C_3
REMARK    2  A    between atoms: C_3  and  S_4
REMARK    3  A    between atoms: S_4  and  C_5
REMARK    4  A    between atoms: N_8  and  C_9
REMARK                            x       y       z     vdW  Elec       q    Type
REMARK                         _______ _______ _______ _____ _____    ______ ____
ROOT
ATOM      1  C   UNL     1       4.393   5.669  18.034  0.00  0.00    +0.000 A 
ATOM      2  N   UNL     1       3.570   6.558  18.598  0.00  0.00    +0.000 NA
ATOM      3  C   UNL     1       2.841   6.132  19.657  0.00  0.00    +0.000 A 
ATOM      4  N   UNL     1       1.998   7.064  20.333  0.00  0.00    +0.000 N 
ATOM      5  C   UNL     1       2.902   4.807  20.132  0.00  0.00    +0.000 A 
ATOM      6  C   UNL     1       2.125   4.273  21.196  0.00  0.00    +0.000 A 
ATOM      7  C   UNL     1       2.283   2.949  21.606  0.00  0.00    +0.000 A 
ATOM      8  C   UNL     1       3.213   2.146  20.960  0.00  0.00    +0.000 A 
ATOM      9  C   UNL     1       3.953   2.666  19.895  0.00  0.00    +0.000 A 
ATOM     10  C   UNL     1       3.809   3.980  19.464  0.00  0.00    +0.000 A 
ATOM     11  N   UNL     1       4.544   4.400  18.430  0.00  0.00    +0.000 NA
ATOM     12  H   UNL     1       2.271   7.096  21.312  0.00  0.00    +0.000 HD
ENDROOT
BRANCH   4  13
ATOM     13  C   UNL     1       1.644   8.338  19.836  0.00  0.00    +0.000 A 
ATOM     14  C   UNL     1       1.902   8.673  18.487  0.00  0.00    +0.000 A 
ATOM     15  C   UNL     1       1.612   9.944  17.983  0.00  0.00    +0.000 A 
ATOM     16  C   UNL     1       1.071  10.862  18.852  0.00  0.00    +0.000 A 
ATOM     17  C   UNL     1       0.789  10.542  20.160  0.00  0.00    +0.000 A 
ATOM     18  C   UNL     1       1.045   9.288  20.677  0.00  0.00    +0.000 A 
ATOM     19  O   UNL     1       0.267  11.596  20.846  0.00  0.00    +0.000 OA
ATOM     20  C   UNL     1       0.326  12.630  19.841  0.00  0.00    +0.000 C 
ATOM     21  O   UNL     1       0.768  12.152  18.554  0.00  0.00    +0.000 OA
ENDBRANCH   4  13
BRANCH   1  22
ATOM     22  S   UNL     1       5.347   6.164  16.612  0.00  0.00    +0.000 S 
BRANCH  22  23
ATOM     23  C   UNL     1       6.757   6.996  17.419  0.00  0.00    +0.000 C 
BRANCH  23  25
ATOM     24  N   UNL     1       7.961   5.413  19.363  0.00  0.00    +0.000 NA
ATOM     25  C   UNL     1       7.415   6.131  18.481  0.00  0.00    +0.000 C 
ENDBRANCH  23  25
ENDBRANCH  22  23
ENDBRANCH   1  22
TORSDOF 4
ENDMDL
