MODEL 1
REMARK VINA RESULT:      -6.9      0.000      0.000
REMARK  Name = 
REMARK  17 active torsions:
REMARK  status: ('A' for Active; 'I' for Inactive)
REMARK    1  A    between atoms: C_1  and  C_2
REMARK    2  A    between atoms: C_2  and  C_3
REMARK    3  A    between atoms: C_3  and  C_4
REMARK    4  A    between atoms: C_4  and  C_5
REMARK    5  A    between atoms: C_5  and  C_6
REMARK    6  A    between atoms: C_6  and  C_7
REMARK    7  A    between atoms: C_7  and  N_8
REMARK    8  A    between atoms: C_7  and  C_9
REMARK    9  A    between atoms: N_11  and  C_12
REMARK   10  A    between atoms: N_11  and  O_18
REMARK   11  A    between atoms: C_12  and  C_13
REMARK   12  A    between atoms: C_13  and  C_14
REMARK   13  A    between atoms: C_14  and  N_15
REMARK   14  A    between atoms: N_15  and  C_16
REMARK   15  A    between atoms: N_15  and  C_17
REMARK   16  A    between atoms: O_18  and  C_19
REMARK   17  A    between atoms: C_19  and  C_20
REMARK                            x       y       z     vdW  Elec       q    Type
REMARK                         _______ _______ _______ _____ _____    ______ ____
ROOT
ATOM      1  C   UNL     1       5.614   5.459  16.839  0.00  0.00    +0.000 C 
ATOM      2  O   UNL     1       5.892   6.488  16.236  0.00  0.00    +0.000 OA
ATOM      3  N   UNL     1       4.768   5.440  17.955  0.00  0.00    +0.000 N 
ENDROOT
BRANCH   1   4
ATOM      4  C   UNL     1       6.335   4.252  16.286  0.00  0.00    +0.000 C 
BRANCH   4   5
ATOM      5  N   UNL     1       7.722   4.665  16.028  0.00  0.00    +0.000 NA
ATOM      6  H   UNL     1       7.984   5.484  16.627  0.00  0.00    +0.000 HD
ATOM      7  H   UNL     1       7.882   4.900  15.025  0.00  0.00    +0.000 HD
ENDBRANCH   4   5
BRANCH   4   8
ATOM      8  C   UNL     1       5.627   3.771  14.995  0.00  0.00    +0.000 C 
BRANCH   8   9
ATOM      9  C   UNL     1       6.455   4.143  13.774  0.00  0.00    +0.000 C 
BRANCH   9  10
ATOM     10  C   UNL     1       6.095   3.350  12.525  0.00  0.00    +0.000 C 
BRANCH  10  11
ATOM     11  C   UNL     1       4.653   3.712  12.169  0.00  0.00    +0.000 C 
BRANCH  11  13
ATOM     12  C   UNL     1       3.209   3.775  10.146  0.00  0.00    +0.000 C 
ATOM     13  C   UNL     1       4.115   2.897  11.004  0.00  0.00    +0.000 C 
ENDBRANCH  11  13
ENDBRANCH  10  11
ENDBRANCH   9  10
ENDBRANCH   8   9
ENDBRANCH   4   8
ENDBRANCH   1   4
BRANCH   3  14
ATOM     14  C   UNL     1       4.504   4.143  18.600  0.00  0.00    +0.000 C 
BRANCH  14  15
ATOM     15  C   UNL     1       3.279   3.351  18.085  0.00  0.00    +0.000 C 
BRANCH  15  16
ATOM     16  C   UNL     1       2.998   1.981  18.743  0.00  0.00    +0.000 C 
BRANCH  16  17
ATOM     17  N   UNL     1       1.742   2.000  19.540  0.00  0.00    +0.000 NA
ATOM     18  C   UNL     1       1.907   2.657  20.850  0.00  0.00    +0.000 C 
ATOM     19  C   UNL     1       0.673   2.676  18.786  0.00  0.00    +0.000 C 
ENDBRANCH  16  17
ENDBRANCH  15  16
ENDBRANCH  14  15
ENDBRANCH   3  14
BRANCH   3  20
ATOM     20  O   UNL     1       4.200   6.548  18.555  0.00  0.00    +0.000 OA
BRANCH  20  21
ATOM     21  C   UNL     1       3.068   7.035  17.871  0.00  0.00    +0.000 C 
BRANCH  21  22
ATOM     22  C   UNL     1       2.190   7.894  18.709  0.00  0.00    +0.000 A 
ATOM     23  C   UNL     1       1.978   7.589  20.060  0.00  0.00    +0.000 A 
ATOM     24  C   UNL     1       1.229   8.458  20.859  0.00  0.00    +0.000 A 
ATOM     25  C   UNL     1       0.697   9.629  20.311  0.00  0.00    +0.000 A 
ATOM     26  C   UNL     1       0.902   9.932  18.962  0.00  0.00    +0.000 A 
ATOM     27  C   UNL     1       1.645   9.067  18.163  0.00  0.00    +0.000 A 
ENDBRANCH  21  22
ENDBRANCH  20  21
ENDBRANCH   3  20
TORSDOF 14
ENDMDL
MODEL 2
REMARK VINA RESULT:      -6.8      1.103      1.316
REMARK  Name = 
REMARK  17 active torsions:
REMARK  status: ('A' for Active; 'I' for Inactive)
REMARK    1  A    between atoms: C_1  and  C_2
REMARK    2  A    between atoms: C_2  and  C_3
REMARK    3  A    between atoms: C_3  and  C_4
REMARK    4  A    between atoms: C_4  and  C_5
REMARK    5  A    between atoms: C_5  and  C_6
REMARK    6  A    between atoms: C_6  and  C_7
REMARK    7  A    between atoms: C_7  and  N_8
REMARK    8  A    between atoms: C_7  and  C_9
REMARK    9  A    between atoms: N_11  and  C_12
REMARK   10  A    between atoms: N_11  and  O_18
REMARK   11  A    between atoms: C_12  and  C_13
REMARK   12  A    between atoms: C_13  and  C_14
REMARK   13  A    between atoms: C_14  and  N_15
REMARK   14  A    between atoms: N_15  and  C_16
REMARK   15  A    between atoms: N_15  and  C_17
REMARK   16  A    between atoms: O_18  and  C_19
REMARK   17  A    between atoms: C_19  and  C_20
REMARK                            x       y       z     vdW  Elec       q    Type
REMARK                         _______ _______ _______ _____ _____    ______ ____
ROOT
ATOM      1  C   UNL     1       5.354   5.543  17.695  0.00  0.00    +0.000 C 
ATOM      2  O   UNL     1       5.898   6.539  18.155  0.00  0.00    +0.000 OA
ATOM      3  N   UNL     1       3.978   5.308  17.811  0.00  0.00    +0.000 N 
ENDROOT
BRANCH   1   4
ATOM      4  C   UNL     1       6.340   4.587  17.063  0.00  0.00    +0.000 C 
BRANCH   4   5
ATOM      5  N   UNL     1       7.322   4.240  18.100  0.00  0.00    +0.000 NA
ATOM      6  H   UNL     1       7.887   3.406  17.813  0.00  0.00    +0.000 HD
ATOM      7  H   UNL     1       6.872   4.058  19.022  0.00  0.00    +0.000 HD
ENDBRANCH   4   5
BRANCH   4   8
ATOM      8  C   UNL     1       7.007   5.264  15.840  0.00  0.00    +0.000 C 
BRANCH   8   9
ATOM      9  C   UNL     1       6.126   5.108  14.610  0.00  0.00    +0.000 C 
BRANCH   9  10
ATOM     10  C   UNL     1       5.976   3.667  14.143  0.00  0.00    +0.000 C 
BRANCH  10  11
ATOM     11  C   UNL     1       6.330   3.642  12.655  0.00  0.00    +0.000 C 
BRANCH  11  13
ATOM     12  C   UNL     1       4.221   3.323  11.379  0.00  0.00    +0.000 C 
ATOM     13  C   UNL     1       5.495   2.643  11.870  0.00  0.00    +0.000 C 
ENDBRANCH  11  13
ENDBRANCH  10  11
ENDBRANCH   9  10
ENDBRANCH   8   9
ENDBRANCH   4   8
ENDBRANCH   1   4
BRANCH   3  14
ATOM     14  C   UNL     1       3.436   4.074  17.216  0.00  0.00    +0.000 C 
BRANCH  14  15
ATOM     15  C   UNL     1       2.306   3.366  18.000  0.00  0.00    +0.000 C 
BRANCH  15  16
ATOM     16  C   UNL     1       2.671   2.768  19.376  0.00  0.00    +0.000 C 
BRANCH  16  17
ATOM     17  N   UNL     1       1.521   2.809  20.318  0.00  0.00    +0.000 NA
ATOM     18  C   UNL     1       1.905   2.473  21.702  0.00  0.00    +0.000 C 
ATOM     19  C   UNL     1       0.893   4.141  20.295  0.00  0.00    +0.000 C 
ENDBRANCH  16  17
ENDBRANCH  15  16
ENDBRANCH  14  15
ENDBRANCH   3  14
BRANCH   3  20
ATOM     20  O   UNL     1       3.080   6.104  18.495  0.00  0.00    +0.000 OA
BRANCH  20  21
ATOM     21  C   UNL     1       2.882   7.365  17.896  0.00  0.00    +0.000 C 
BRANCH  21  22
ATOM     22  C   UNL     1       1.948   8.242  18.650  0.00  0.00    +0.000 A 
ATOM     23  C   UNL     1       1.797   8.096  20.035  0.00  0.00    +0.000 A 
ATOM     24  C   UNL     1       0.990   8.989  20.744  0.00  0.00    +0.000 A 
ATOM     25  C   UNL     1       0.338  10.028  20.073  0.00  0.00    +0.000 A 
ATOM     26  C   UNL     1       0.483  10.173  18.691  0.00  0.00    +0.000 A 
ATOM     27  C   UNL     1       1.283   9.282  17.980  0.00  0.00    +0.000 A 
ENDBRANCH  21  22
ENDBRANCH  20  21
ENDBRANCH   3  20
TORSDOF 14
ENDMDL
MODEL 3
REMARK VINA RESULT:      -6.7      0.767      1.233
REMARK  Name = 
REMARK  17 active torsions:
REMARK  status: ('A' for Active; 'I' for Inactive)
REMARK    1  A    between atoms: C_1  and  C_2
REMARK    2  A    between atoms: C_2  and  C_3
REMARK    3  A    between atoms: C_3  and  C_4
REMARK    4  A    between atoms: C_4  and  C_5
REMARK    5  A    between atoms: C_5  and  C_6
REMARK    6  A    between atoms: C_6  and  C_7
REMARK    7  A    between atoms: C_7  and  N_8
REMARK    8  A    between atoms: C_7  and  C_9
REMARK    9  A    between atoms: N_11  and  C_12
REMARK   10  A    between atoms: N_11  and  O_18
REMARK   11  A    between atoms: C_12  and  C_13
REMARK   12  A    between atoms: C_13  and  C_14
REMARK   13  A    between atoms: C_14  and  N_15
REMARK   14  A    between atoms: N_15  and  C_16
REMARK   15  A    between atoms: N_15  and  C_17
REMARK   16  A    between atoms: O_18  and  C_19
REMARK   17  A    between atoms: C_19  and  C_20
REMARK                            x       y       z     vdW  Elec       q    Type
REMARK                         _______ _______ _______ _____ _____    ______ ____
ROOT
ATOM      1  C   UNL     1       4.992   5.926  16.271  0.00  0.00    +0.000 C 
ATOM      2  O   UNL     1       5.025   6.880  15.503  0.00  0.00    +0.000 OA
ATOM      3  N   UNL     1       3.981   5.756  17.226  0.00  0.00    +0.000 N 
ENDROOT
BRANCH   1   4
ATOM      4  C   UNL     1       6.186   5.014  16.111  0.00  0.00    +0.000 C 
BRANCH   4   5
ATOM      5  N   UNL     1       7.330   5.867  15.756  0.00  0.00    +0.000 NA
ATOM      6  H   UNL     1       8.230   5.340  15.851  0.00  0.00    +0.000 HD
ATOM      7  H   UNL     1       7.368   6.733  16.336  0.00  0.00    +0.000 HD
ENDBRANCH   4   5
BRANCH   4   8
ATOM      8  C   UNL     1       5.891   3.960  15.015  0.00  0.00    +0.000 C 
BRANCH   8   9
ATOM      9  C   UNL     1       6.680   4.280  13.755  0.00  0.00    +0.000 C 
BRANCH   9  10
ATOM     10  C   UNL     1       6.295   3.423  12.556  0.00  0.00    +0.000 C 
BRANCH  10  11
ATOM     11  C   UNL     1       4.861   3.799  12.183  0.00  0.00    +0.000 C 
BRANCH  11  13
ATOM     12  C   UNL     1       3.274   3.671  10.273  0.00  0.00    +0.000 C 
ATOM     13  C   UNL     1       4.276   2.888  11.115  0.00  0.00    +0.000 C 
ENDBRANCH  11  13
ENDBRANCH  10  11
ENDBRANCH   9  10
ENDBRANCH   8   9
ENDBRANCH   4   8
ENDBRANCH   1   4
BRANCH   3  14
ATOM     14  C   UNL     1       4.045   4.569  18.095  0.00  0.00    +0.000 C 
BRANCH  14  15
ATOM     15  C   UNL     1       3.224   3.337  17.645  0.00  0.00    +0.000 C 
BRANCH  15  16
ATOM     16  C   UNL     1       3.292   2.080  18.540  0.00  0.00    +0.000 C 
BRANCH  16  17
ATOM     17  N   UNL     1       2.066   1.927  19.368  0.00  0.00    +0.000 NA
ATOM     18  C   UNL     1       2.167   2.612  20.671  0.00  0.00    +0.000 C 
ATOM     19  C   UNL     1       0.893   2.436  18.638  0.00  0.00    +0.000 C 
ENDBRANCH  16  17
ENDBRANCH  15  16
ENDBRANCH  14  15
ENDBRANCH   3  14
BRANCH   3  20
ATOM     20  O   UNL     1       2.952   6.642  17.475  0.00  0.00    +0.000 OA
BRANCH  20  21
ATOM     21  C   UNL     1       3.252   7.579  18.485  0.00  0.00    +0.000 C 
BRANCH  21  22
ATOM     22  C   UNL     1       2.090   8.416  18.886  0.00  0.00    +0.000 A 
ATOM     23  C   UNL     1       1.453   9.243  17.952  0.00  0.00    +0.000 A 
ATOM     24  C   UNL     1       0.304   9.949  18.318  0.00  0.00    +0.000 A 
ATOM     25  C   UNL     1      -0.209   9.827  19.613  0.00  0.00    +0.000 A 
ATOM     26  C   UNL     1       0.428   9.007  20.548  0.00  0.00    +0.000 A 
ATOM     27  C   UNL     1       1.574   8.305  20.188  0.00  0.00    +0.000 A 
ENDBRANCH  21  22
ENDBRANCH  20  21
ENDBRANCH   3  20
TORSDOF 14
ENDMDL
MODEL 4
REMARK VINA RESULT:      -6.7      1.224      1.612
REMARK  Name = 
REMARK  17 active torsions:
REMARK  status: ('A' for Active; 'I' for Inactive)
REMARK    1  A    between atoms: C_1  and  C_2
REMARK    2  A    between atoms: C_2  and  C_3
REMARK    3  A    between atoms: C_3  and  C_4
REMARK    4  A    between atoms: C_4  and  C_5
REMARK    5  A    between atoms: C_5  and  C_6
REMARK    6  A    between atoms: C_6  and  C_7
REMARK    7  A    between atoms: C_7  and  N_8
REMARK    8  A    between atoms: C_7  and  C_9
REMARK    9  A    between atoms: N_11  and  C_12
REMARK   10  A    between atoms: N_11  and  O_18
REMARK   11  A    between atoms: C_12  and  C_13
REMARK   12  A    between atoms: C_13  and  C_14
REMARK   13  A    between atoms: C_14  and  N_15
REMARK   14  A    between atoms: N_15  and  C_16
REMARK   15  A    between atoms: N_15  and  C_17
REMARK   16  A    between atoms: O_18  and  C_19
REMARK   17  A    between atoms: C_19  and  C_20
REMARK                            x       y       z     vdW  Elec       q    Type
REMARK                         _______ _______ _______ _____ _____    ______ ____
ROOT
ATOM      1  C   UNL     1       4.981   5.429  17.523  0.00  0.00    +0.000 C 
ATOM      2  O   UNL     1       5.464   6.524  17.781  0.00  0.00    +0.000 OA
ATOM      3  N   UNL     1       3.601   5.187  17.535  0.00  0.00    +0.000 N 
ENDROOT
BRANCH   1   4
ATOM      4  C   UNL     1       6.037   4.378  17.268  0.00  0.00    +0.000 C 
BRANCH   4   5
ATOM      5  N   UNL     1       6.790   4.216  18.520  0.00  0.00    +0.000 NA
ATOM      6  H   UNL     1       7.022   3.208  18.686  0.00  0.00    +0.000 HD
ATOM      7  H   UNL     1       6.272   4.596  19.341  0.00  0.00    +0.000 HD
ENDBRANCH   4   5
BRANCH   4   8
ATOM      8  C   UNL     1       6.949   4.832  16.101  0.00  0.00    +0.000 C 
BRANCH   8   9
ATOM      9  C   UNL     1       6.111   5.136  14.869  0.00  0.00    +0.000 C 
BRANCH   9  10
ATOM     10  C   UNL     1       6.654   4.515  13.590  0.00  0.00    +0.000 C 
BRANCH  10  11
ATOM     11  C   UNL     1       5.750   3.328  13.252  0.00  0.00    +0.000 C 
BRANCH  11  13
ATOM     12  C   UNL     1       4.155   3.253  11.348  0.00  0.00    +0.000 C 
ATOM     13  C   UNL     1       5.617   3.100  11.755  0.00  0.00    +0.000 C 
ENDBRANCH  11  13
ENDBRANCH  10  11
ENDBRANCH   9  10
ENDBRANCH   8   9
ENDBRANCH   4   8
ENDBRANCH   1   4
BRANCH   3  14
ATOM     14  C   UNL     1       3.136   3.828  17.207  0.00  0.00    +0.000 C 
BRANCH  14  15
ATOM     15  C   UNL     1       1.898   3.315  17.979  0.00  0.00    +0.000 C 
BRANCH  15  16
ATOM     16  C   UNL     1       2.147   2.310  19.125  0.00  0.00    +0.000 C 
BRANCH  16  17
ATOM     17  N   UNL     1       2.983   2.901  20.204  0.00  0.00    +0.000 NA
ATOM     18  C   UNL     1       2.346   2.810  21.532  0.00  0.00    +0.000 C 
ATOM     19  C   UNL     1       4.298   2.242  20.247  0.00  0.00    +0.000 C 
ENDBRANCH  16  17
ENDBRANCH  15  16
ENDBRANCH  14  15
ENDBRANCH   3  14
BRANCH   3  20
ATOM     20  O   UNL     1       2.627   6.098  17.890  0.00  0.00    +0.000 OA
BRANCH  20  21
ATOM     21  C   UNL     1       2.717   6.519  19.232  0.00  0.00    +0.000 C 
BRANCH  21  22
ATOM     22  C   UNL     1       1.959   7.766  19.518  0.00  0.00    +0.000 A 
ATOM     23  C   UNL     1       1.481   8.026  20.809  0.00  0.00    +0.000 A 
ATOM     24  C   UNL     1       0.855   9.245  21.086  0.00  0.00    +0.000 A 
ATOM     25  C   UNL     1       0.710  10.202  20.078  0.00  0.00    +0.000 A 
ATOM     26  C   UNL     1       1.182   9.943  18.788  0.00  0.00    +0.000 A 
ATOM     27  C   UNL     1       1.803   8.729  18.508  0.00  0.00    +0.000 A 
ENDBRANCH  21  22
ENDBRANCH  20  21
ENDBRANCH   3  20
TORSDOF 14
ENDMDL
MODEL 5
REMARK VINA RESULT:      -6.7      3.578      6.600
REMARK  Name = 
REMARK  17 active torsions:
REMARK  status: ('A' for Active; 'I' for Inactive)
REMARK    1  A    between atoms: C_1  and  C_2
REMARK    2  A    between atoms: C_2  and  C_3
REMARK    3  A    between atoms: C_3  and  C_4
REMARK    4  A    between atoms: C_4  and  C_5
REMARK    5  A    between atoms: C_5  and  C_6
REMARK    6  A    between atoms: C_6  and  C_7
REMARK    7  A    between atoms: C_7  and  N_8
REMARK    8  A    between atoms: C_7  and  C_9
REMARK    9  A    between atoms: N_11  and  C_12
REMARK   10  A    between atoms: N_11  and  O_18
REMARK   11  A    between atoms: C_12  and  C_13
REMARK   12  A    between atoms: C_13  and  C_14
REMARK   13  A    between atoms: C_14  and  N_15
REMARK   14  A    between atoms: N_15  and  C_16
REMARK   15  A    between atoms: N_15  and  C_17
REMARK   16  A    between atoms: O_18  and  C_19
REMARK   17  A    between atoms: C_19  and  C_20
REMARK                            x       y       z     vdW  Elec       q    Type
REMARK                         _______ _______ _______ _____ _____    ______ ____
ROOT
ATOM      1  C   UNL     1       6.730   5.378  18.093  0.00  0.00    +0.000 C 
ATOM      2  O   UNL     1       7.621   4.920  18.798  0.00  0.00    +0.000 OA
ATOM      3  N   UNL     1       5.545   4.681  17.821  0.00  0.00    +0.000 N 
ENDROOT
BRANCH   1   4
ATOM      4  C   UNL     1       7.089   6.724  17.509  0.00  0.00    +0.000 C 
BRANCH   4   5
ATOM      5  N   UNL     1       7.631   6.476  16.165  0.00  0.00    +0.000 NA
ATOM      6  H   UNL     1       6.859   6.308  15.478  0.00  0.00    +0.000 HD
ATOM      7  H   UNL     1       8.293   5.671  16.152  0.00  0.00    +0.000 HD
ENDBRANCH   4   5
BRANCH   4   8
ATOM      8  C   UNL     1       8.120   7.428  18.426  0.00  0.00    +0.000 C 
BRANCH   8   9
ATOM      9  C   UNL     1       8.292   8.879  18.002  0.00  0.00    +0.000 C 
BRANCH   9  10
ATOM     10  C   UNL     1       9.035   9.731  19.022  0.00  0.00    +0.000 C 
BRANCH  10  11
ATOM     11  C   UNL     1       9.170  11.130  18.419  0.00  0.00    +0.000 C 
BRANCH  11  13
ATOM     12  C   UNL     1      11.208  12.553  18.389  0.00  0.00    +0.000 C 
ATOM     13  C   UNL     1      10.518  11.352  17.751  0.00  0.00    +0.000 C 
ENDBRANCH  11  13
ENDBRANCH  10  11
ENDBRANCH   9  10
ENDBRANCH   8   9
ENDBRANCH   4   8
ENDBRANCH   1   4
BRANCH   3  14
ATOM     14  C   UNL     1       4.543   5.333  16.960  0.00  0.00    +0.000 C 
BRANCH  14  15
ATOM     15  C   UNL     1       3.368   6.039  17.677  0.00  0.00    +0.000 C 
BRANCH  15  16
ATOM     16  C   UNL     1       3.361   7.584  17.664  0.00  0.00    +0.000 C 
BRANCH  16  17
ATOM     17  N   UNL     1       2.087   8.133  18.200  0.00  0.00    +0.000 NA
ATOM     18  C   UNL     1       1.935   7.908  19.650  0.00  0.00    +0.000 C 
ATOM     19  C   UNL     1       1.998   9.576  17.918  0.00  0.00    +0.000 C 
ENDBRANCH  16  17
ENDBRANCH  15  16
ENDBRANCH  14  15
ENDBRANCH   3  14
BRANCH   3  20
ATOM     20  O   UNL     1       5.251   3.398  18.239  0.00  0.00    +0.000 OA
BRANCH  20  21
ATOM     21  C   UNL     1       4.732   3.342  19.549  0.00  0.00    +0.000 C 
BRANCH  21  22
ATOM     22  C   UNL     1       3.251   3.220  19.598  0.00  0.00    +0.000 A 
ATOM     23  C   UNL     1       2.564   2.494  18.616  0.00  0.00    +0.000 A 
ATOM     24  C   UNL     1       1.184   2.306  18.728  0.00  0.00    +0.000 A 
ATOM     25  C   UNL     1       0.492   2.839  19.820  0.00  0.00    +0.000 A 
ATOM     26  C   UNL     1       1.173   3.568  20.798  0.00  0.00    +0.000 A 
ATOM     27  C   UNL     1       2.548   3.760  20.687  0.00  0.00    +0.000 A 
ENDBRANCH  21  22
ENDBRANCH  20  21
ENDBRANCH   3  20
TORSDOF 14
ENDMDL
MODEL 6
REMARK VINA RESULT:      -6.6      3.267      6.898
REMARK  Name = 
REMARK  17 active torsions:
REMARK  status: ('A' for Active; 'I' for Inactive)
REMARK    1  A    between atoms: C_1  and  C_2
REMARK    2  A    between atoms: C_2  and  C_3
REMARK    3  A    between atoms: C_3  and  C_4
REMARK    4  A    between atoms: C_4  and  C_5
REMARK    5  A    between atoms: C_5  and  C_6
REMARK    6  A    between atoms: C_6  and  C_7
REMARK    7  A    between atoms: C_7  and  N_8
REMARK    8  A    between atoms: C_7  and  C_9
REMARK    9  A    between atoms: N_11  and  C_12
REMARK   10  A    between atoms: N_11  and  O_18
REMARK   11  A    between atoms: C_12  and  C_13
REMARK   12  A    between atoms: C_13  and  C_14
REMARK   13  A    between atoms: C_14  and  N_15
REMARK   14  A    between atoms: N_15  and  C_16
REMARK   15  A    between atoms: N_15  and  C_17
REMARK   16  A    between atoms: O_18  and  C_19
REMARK   17  A    between atoms: C_19  and  C_20
REMARK                            x       y       z     vdW  Elec       q    Type
REMARK                         _______ _______ _______ _____ _____    ______ ____
ROOT
ATOM      1  C   UNL     1       5.916   5.070  18.315  0.00  0.00    +0.000 C 
ATOM      2  O   UNL     1       5.303   5.406  19.320  0.00  0.00    +0.000 OA
ATOM      3  N   UNL     1       5.302   4.422  17.234  0.00  0.00    +0.000 N 
ENDROOT
BRANCH   1   4
ATOM      4  C   UNL     1       7.394   5.368  18.412  0.00  0.00    +0.000 C 
BRANCH   4   5
ATOM      5  N   UNL     1       7.678   5.665  19.824  0.00  0.00    +0.000 NA
ATOM      6  H   UNL     1       7.518   4.820  20.421  0.00  0.00    +0.000 HD
ATOM      7  H   UNL     1       7.105   6.460  20.180  0.00  0.00    +0.000 HD
ENDBRANCH   4   5
BRANCH   4   8
ATOM      8  C   UNL     1       7.744   6.563  17.489  0.00  0.00    +0.000 C 
BRANCH   8   9
ATOM      9  C   UNL     1       7.337   7.871  18.150  0.00  0.00    +0.000 C 
BRANCH   9  10
ATOM     10  C   UNL     1       8.156   9.069  17.691  0.00  0.00    +0.000 C 
BRANCH  10  11
ATOM     11  C   UNL     1       8.959   9.550  18.900  0.00  0.00    +0.000 C 
BRANCH  11  13
ATOM     12  C   UNL     1      10.127  11.448  20.001  0.00  0.00    +0.000 C 
ATOM     13  C   UNL     1       9.603  10.908  18.674  0.00  0.00    +0.000 C 
ENDBRANCH  11  13
ENDBRANCH  10  11
ENDBRANCH   9  10
ENDBRANCH   8   9
ENDBRANCH   4   8
ENDBRANCH   1   4
BRANCH   3  14
ATOM     14  C   UNL     1       6.140   4.066  16.077  0.00  0.00    +0.000 C 
BRANCH  14  15
ATOM     15  C   UNL     1       5.473   4.158  14.685  0.00  0.00    +0.000 C 
BRANCH  15  16
ATOM     16  C   UNL     1       6.397   4.053  13.451  0.00  0.00    +0.000 C 
BRANCH  16  17
ATOM     17  N   UNL     1       5.930   3.010  12.500  0.00  0.00    +0.000 NA
ATOM     18  C   UNL     1       4.691   3.392  11.796  0.00  0.00    +0.000 C 
ATOM     19  C   UNL     1       6.982   2.717  11.512  0.00  0.00    +0.000 C 
ENDBRANCH  16  17
ENDBRANCH  15  16
ENDBRANCH  14  15
ENDBRANCH   3  14
BRANCH   3  20
ATOM     20  O   UNL     1       3.981   4.026  17.179  0.00  0.00    +0.000 OA
BRANCH  20  21
ATOM     21  C   UNL     1       3.740   2.791  17.814  0.00  0.00    +0.000 C 
BRANCH  21  22
ATOM     22  C   UNL     1       2.903   2.903  19.038  0.00  0.00    +0.000 A 
ATOM     23  C   UNL     1       1.544   3.227  18.941  0.00  0.00    +0.000 A 
ATOM     24  C   UNL     1       0.748   3.234  20.091  0.00  0.00    +0.000 A 
ATOM     25  C   UNL     1       1.307   2.914  21.331  0.00  0.00    +0.000 A 
ATOM     26  C   UNL     1       2.664   2.596  21.430  0.00  0.00    +0.000 A 
ATOM     27  C   UNL     1       3.461   2.592  20.288  0.00  0.00    +0.000 A 
ENDBRANCH  21  22
ENDBRANCH  20  21
ENDBRANCH   3  20
TORSDOF 14
ENDMDL
MODEL 7
REMARK VINA RESULT:      -6.5      3.103      6.554
REMARK  Name = 
REMARK  17 active torsions:
REMARK  status: ('A' for Active; 'I' for Inactive)
REMARK    1  A    between atoms: C_1  and  C_2
REMARK    2  A    between atoms: C_2  and  C_3
REMARK    3  A    between atoms: C_3  and  C_4
REMARK    4  A    between atoms: C_4  and  C_5
REMARK    5  A    between atoms: C_5  and  C_6
REMARK    6  A    between atoms: C_6  and  C_7
REMARK    7  A    between atoms: C_7  and  N_8
REMARK    8  A    between atoms: C_7  and  C_9
REMARK    9  A    between atoms: N_11  and  C_12
REMARK   10  A    between atoms: N_11  and  O_18
REMARK   11  A    between atoms: C_12  and  C_13
REMARK   12  A    between atoms: C_13  and  C_14
REMARK   13  A    between atoms: C_14  and  N_15
REMARK   14  A    between atoms: N_15  and  C_16
REMARK   15  A    between atoms: N_15  and  C_17
REMARK   16  A    between atoms: O_18  and  C_19
REMARK   17  A    between atoms: C_19  and  C_20
REMARK                            x       y       z     vdW  Elec       q    Type
REMARK                         _______ _______ _______ _____ _____    ______ ____
ROOT
ATOM      1  C   UNL     1       5.970   4.475  17.409  0.00  0.00    +0.000 C 
ATOM      2  O   UNL     1       5.839   4.236  18.603  0.00  0.00    +0.000 OA
ATOM      3  N   UNL     1       4.936   4.290  16.481  0.00  0.00    +0.000 N 
ENDROOT
BRANCH   1   4
ATOM      4  C   UNL     1       7.371   4.917  17.058  0.00  0.00    +0.000 C 
BRANCH   4   5
ATOM      5  N   UNL     1       8.224   4.583  18.208  0.00  0.00    +0.000 NA
ATOM      6  H   UNL     1       8.721   5.434  18.563  0.00  0.00    +0.000 HD
ATOM      7  H   UNL     1       8.920   3.841  17.978  0.00  0.00    +0.000 HD
ENDBRANCH   4   5
BRANCH   4   8
ATOM      8  C   UNL     1       7.377   6.436  16.759  0.00  0.00    +0.000 C 
BRANCH   8   9
ATOM      9  C   UNL     1       7.772   7.214  18.004  0.00  0.00    +0.000 C 
BRANCH   9  10
ATOM     10  C   UNL     1       7.750   8.725  17.816  0.00  0.00    +0.000 C 
BRANCH  10  11
ATOM     11  C   UNL     1       8.817   9.305  18.745  0.00  0.00    +0.000 C 
BRANCH  11  13
ATOM     12  C   UNL     1      10.251  11.245  19.345  0.00  0.00    +0.000 C 
ATOM     13  C   UNL     1       9.311  10.669  18.290  0.00  0.00    +0.000 C 
ENDBRANCH  11  13
ENDBRANCH  10  11
ENDBRANCH   9  10
ENDBRANCH   8   9
ENDBRANCH   4   8
ENDBRANCH   1   4
BRANCH   3  14
ATOM     14  C   UNL     1       5.209   4.612  15.070  0.00  0.00    +0.000 C 
BRANCH  14  15
ATOM     15  C   UNL     1       6.203   3.689  14.328  0.00  0.00    +0.000 C 
BRANCH  15  16
ATOM     16  C   UNL     1       6.197   3.741  12.785  0.00  0.00    +0.000 C 
BRANCH  16  17
ATOM     17  N   UNL     1       5.305   2.704  12.202  0.00  0.00    +0.000 NA
ATOM     18  C   UNL     1       4.221   3.279  11.383  0.00  0.00    +0.000 C 
ATOM     19  C   UNL     1       6.087   1.762  11.384  0.00  0.00    +0.000 C 
ENDBRANCH  16  17
ENDBRANCH  15  16
ENDBRANCH  14  15
ENDBRANCH   3  14
BRANCH   3  20
ATOM     20  O   UNL     1       3.689   3.767  16.759  0.00  0.00    +0.000 OA
BRANCH  20  21
ATOM     21  C   UNL     1       2.843   4.667  17.439  0.00  0.00    +0.000 C 
BRANCH  21  22
ATOM     22  C   UNL     1       2.274   4.116  18.697  0.00  0.00    +0.000 A 
ATOM     23  C   UNL     1       2.021   2.743  18.821  0.00  0.00    +0.000 A 
ATOM     24  C   UNL     1       1.578   2.226  20.042  0.00  0.00    +0.000 A 
ATOM     25  C   UNL     1       1.391   3.077  21.135  0.00  0.00    +0.000 A 
ATOM     26  C   UNL     1       1.637   4.447  21.013  0.00  0.00    +0.000 A 
ATOM     27  C   UNL     1       2.076   4.966  19.797  0.00  0.00    +0.000 A 
ENDBRANCH  21  22
ENDBRANCH  20  21
ENDBRANCH   3  20
TORSDOF 14
ENDMDL
MODEL 8
REMARK VINA RESULT:      -6.5      3.241      6.795
REMARK  Name = 
REMARK  17 active torsions:
REMARK  status: ('A' for Active; 'I' for Inactive)
REMARK    1  A    between atoms: C_1  and  C_2
REMARK    2  A    between atoms: C_2  and  C_3
REMARK    3  A    between atoms: C_3  and  C_4
REMARK    4  A    between atoms: C_4  and  C_5
REMARK    5  A    between atoms: C_5  and  C_6
REMARK    6  A    between atoms: C_6  and  C_7
REMARK    7  A    between atoms: C_7  and  N_8
REMARK    8  A    between atoms: C_7  and  C_9
REMARK    9  A    between atoms: N_11  and  C_12
REMARK   10  A    between atoms: N_11  and  O_18
REMARK   11  A    between atoms: C_12  and  C_13
REMARK   12  A    between atoms: C_13  and  C_14
REMARK   13  A    between atoms: C_14  and  N_15
REMARK   14  A    between atoms: N_15  and  C_16
REMARK   15  A    between atoms: N_15  and  C_17
REMARK   16  A    between atoms: O_18  and  C_19
REMARK   17  A    between atoms: C_19  and  C_20
REMARK                            x       y       z     vdW  Elec       q    Type
REMARK                         _______ _______ _______ _____ _____    ______ ____
ROOT
ATOM      1  C   UNL     1       5.945   5.620  17.667  0.00  0.00    +0.000 C 
ATOM      2  O   UNL     1       5.693   5.543  18.863  0.00  0.00    +0.000 OA
ATOM      3  N   UNL     1       4.968   5.471  16.674  0.00  0.00    +0.000 N 
ENDROOT
BRANCH   1   4
ATOM      4  C   UNL     1       7.419   5.820  17.399  0.00  0.00    +0.000 C 
BRANCH   4   5
ATOM      5  N   UNL     1       8.047   4.492  17.452  0.00  0.00    +0.000 NA
ATOM      6  H   UNL     1       7.909   4.052  18.393  0.00  0.00    +0.000 HD
ATOM      7  H   UNL     1       9.064   4.530  17.229  0.00  0.00    +0.000 HD
ENDBRANCH   4   5
BRANCH   4   8
ATOM      8  C   UNL     1       8.013   6.781  18.459  0.00  0.00    +0.000 C 
BRANCH   8   9
ATOM      9  C   UNL     1       8.041   8.203  17.919  0.00  0.00    +0.000 C 
BRANCH   9  10
ATOM     10  C   UNL     1       8.805   9.179  18.803  0.00  0.00    +0.000 C 
BRANCH  10  11
ATOM     11  C   UNL     1       8.873  10.505  18.045  0.00  0.00    +0.000 C 
BRANCH  11  13
ATOM     12  C   UNL     1       9.837  11.286  20.199  0.00  0.00    +0.000 C 
ATOM     13  C   UNL     1       9.826  11.500  18.689  0.00  0.00    +0.000 C 
ENDBRANCH  11  13
ENDBRANCH  10  11
ENDBRANCH   9  10
ENDBRANCH   8   9
ENDBRANCH   4   8
ENDBRANCH   1   4
BRANCH   3  14
ATOM     14  C   UNL     1       5.389   5.585  15.268  0.00  0.00    +0.000 C 
BRANCH  14  15
ATOM     15  C   UNL     1       5.427   4.274  14.448  0.00  0.00    +0.000 C 
BRANCH  15  16
ATOM     16  C   UNL     1       6.662   4.041  13.549  0.00  0.00    +0.000 C 
BRANCH  16  17
ATOM     17  N   UNL     1       6.272   3.684  12.159  0.00  0.00    +0.000 NA
ATOM     18  C   UNL     1       7.044   2.546  11.624  0.00  0.00    +0.000 C 
ATOM     19  C   UNL     1       4.834   3.370  12.099  0.00  0.00    +0.000 C 
ENDBRANCH  16  17
ENDBRANCH  15  16
ENDBRANCH  14  15
ENDBRANCH   3  14
BRANCH   3  20
ATOM     20  O   UNL     1       3.640   5.160  16.892  0.00  0.00    +0.000 OA
BRANCH  20  21
ATOM     21  C   UNL     1       3.435   3.823  17.288  0.00  0.00    +0.000 C 
BRANCH  21  22
ATOM     22  C   UNL     1       2.493   3.675  18.428  0.00  0.00    +0.000 A 
ATOM     23  C   UNL     1       1.516   2.672  18.417  0.00  0.00    +0.000 A 
ATOM     24  C   UNL     1       0.701   2.483  19.537  0.00  0.00    +0.000 A 
ATOM     25  C   UNL     1       0.864   3.291  20.666  0.00  0.00    +0.000 A 
ATOM     26  C   UNL     1       1.835   4.296  20.677  0.00  0.00    +0.000 A 
ATOM     27  C   UNL     1       2.646   4.490  19.562  0.00  0.00    +0.000 A 
ENDBRANCH  21  22
ENDBRANCH  20  21
ENDBRANCH   3  20
TORSDOF 14
ENDMDL
MODEL 9
REMARK VINA RESULT:      -6.5      1.017      1.663
REMARK  Name = 
REMARK  17 active torsions:
REMARK  status: ('A' for Active; 'I' for Inactive)
REMARK    1  A    between atoms: C_1  and  C_2
REMARK    2  A    between atoms: C_2  and  C_3
REMARK    3  A    between atoms: C_3  and  C_4
REMARK    4  A    between atoms: C_4  and  C_5
REMARK    5  A    between atoms: C_5  and  C_6
REMARK    6  A    between atoms: C_6  and  C_7
REMARK    7  A    between atoms: C_7  and  N_8
REMARK    8  A    between atoms: C_7  and  C_9
REMARK    9  A    between atoms: N_11  and  C_12
REMARK   10  A    between atoms: N_11  and  O_18
REMARK   11  A    between atoms: C_12  and  C_13
REMARK   12  A    between atoms: C_13  and  C_14
REMARK   13  A    between atoms: C_14  and  N_15
REMARK   14  A    between atoms: N_15  and  C_16
REMARK   15  A    between atoms: N_15  and  C_17
REMARK   16  A    between atoms: O_18  and  C_19
REMARK   17  A    between atoms: C_19  and  C_20
REMARK                            x       y       z     vdW  Elec       q    Type
REMARK                         _______ _______ _______ _____ _____    ______ ____
ROOT
ATOM      1  C   UNL     1       5.590   6.233  17.106  0.00  0.00    +0.000 C 
ATOM      2  O   UNL     1       5.781   7.049  16.213  0.00  0.00    +0.000 OA
ATOM      3  N   UNL     1       4.437   6.235  17.901  0.00  0.00    +0.000 N 
ENDROOT
BRANCH   1   4
ATOM      4  C   UNL     1       6.757   5.290  17.286  0.00  0.00    +0.000 C 
BRANCH   4   5
ATOM      5  N   UNL     1       7.892   6.101  17.752  0.00  0.00    +0.000 NA
ATOM      6  H   UNL     1       8.146   5.853  18.737  0.00  0.00    +0.000 HD
ATOM      7  H   UNL     1       7.697   7.123  17.686  0.00  0.00    +0.000 HD
ENDBRANCH   4   5
BRANCH   4   8
ATOM      8  C   UNL     1       7.066   4.584  15.942  0.00  0.00    +0.000 C 
BRANCH   8   9
ATOM      9  C   UNL     1       5.870   3.757  15.498  0.00  0.00    +0.000 C 
BRANCH   9  10
ATOM     10  C   UNL     1       5.327   4.148  14.131  0.00  0.00    +0.000 C 
BRANCH  10  11
ATOM     11  C   UNL     1       6.432   3.857  13.114  0.00  0.00    +0.000 C 
BRANCH  11  13
ATOM     12  C   UNL     1       4.500   3.268  11.665  0.00  0.00    +0.000 C 
ATOM     13  C   UNL     1       5.961   2.964  11.977  0.00  0.00    +0.000 C 
ENDBRANCH  11  13
ENDBRANCH  10  11
ENDBRANCH   9  10
ENDBRANCH   8   9
ENDBRANCH   4   8
ENDBRANCH   1   4
BRANCH   3  14
ATOM     14  C   UNL     1       4.316   5.203  18.945  0.00  0.00    +0.000 C 
BRANCH  14  15
ATOM     15  C   UNL     1       3.638   3.875  18.532  0.00  0.00    +0.000 C 
BRANCH  15  16
ATOM     16  C   UNL     1       3.359   2.848  19.651  0.00  0.00    +0.000 C 
BRANCH  16  17
ATOM     17  N   UNL     1       1.901   2.631  19.849  0.00  0.00    +0.000 NA
ATOM     18  C   UNL     1       1.236   3.780  20.493  0.00  0.00    +0.000 C 
ATOM     19  C   UNL     1       1.250   2.350  18.559  0.00  0.00    +0.000 C 
ENDBRANCH  16  17
ENDBRANCH  15  16
ENDBRANCH  14  15
ENDBRANCH   3  14
BRANCH   3  20
ATOM     20  O   UNL     1       3.417   7.164  17.839  0.00  0.00    +0.000 OA
BRANCH  20  21
ATOM     21  C   UNL     1       2.472   7.027  18.875  0.00  0.00    +0.000 C 
BRANCH  21  22
ATOM     22  C   UNL     1       1.783   8.298  19.225  0.00  0.00    +0.000 A 
ATOM     23  C   UNL     1       1.476   9.237  18.231  0.00  0.00    +0.000 A 
ATOM     24  C   UNL     1       0.743  10.381  18.559  0.00  0.00    +0.000 A 
ATOM     25  C   UNL     1       0.315  10.585  19.874  0.00  0.00    +0.000 A 
ATOM     26  C   UNL     1       0.625   9.653  20.868  0.00  0.00    +0.000 A 
ATOM     27  C   UNL     1       1.358   8.514  20.546  0.00  0.00    +0.000 A 
ENDBRANCH  21  22
ENDBRANCH  20  21
ENDBRANCH   3  20
TORSDOF 14
ENDMDL
