MODEL 1
REMARK VINA RESULT:      -6.6      0.000      0.000
REMARK  Name = 
REMARK  5 active torsions:
REMARK  status: ('A' for Active; 'I' for Inactive)
REMARK    1  A    between atoms: C_1  and  C_2
REMARK    2  A    between atoms: C_6  and  N_7
REMARK    3  A    between atoms: C_8  and  C_10
REMARK    4  A    between atoms: N_17  and  C_18
REMARK    5  A    between atoms: C_26  and  C_27
REMARK                            x       y       z     vdW  Elec       q    Type
REMARK                         _______ _______ _______ _____ _____    ______ ____
ROOT
ATOM      1  C   UNL     1      -1.832  15.403  22.698  0.00  0.00    +0.000 C 
ATOM      2  C   UNL     1      -1.895  15.008  24.197  0.00  0.00    +0.000 C 
ATOM      3  C   UNL     1      -3.113  14.171  24.633  0.00  0.00    +0.000 C 
ATOM      4  C   UNL     1      -4.410  14.582  23.938  0.00  0.00    +0.000 C 
ATOM      5  N   UNL     1      -4.176  14.706  22.509  0.00  0.00    +0.000 N 
ATOM      6  C   UNL     1      -4.217  13.492  21.796  0.00  0.00    +0.000 C 
ATOM      7  O   UNL     1      -4.429  12.435  22.386  0.00  0.00    +0.000 OA
ATOM      8  N   UNL     1      -4.005  13.601  20.443  0.00  0.00    +0.000 N 
ATOM      9  C   UNL     1      -3.233  15.787  22.199  0.00  0.00    +0.000 C 
ATOM     10  H   UNL     1      -3.884  14.530  20.071  0.00  0.00    +0.000 HD
ENDROOT
BRANCH   8  11
ATOM     11  C   UNL     1      -3.904  12.544  19.509  0.00  0.00    +0.000 A 
ATOM     12  C   UNL     1      -5.000  11.957  18.865  0.00  0.00    +0.000 A 
ATOM     13  C   UNL     1      -4.824  10.875  17.997  0.00  0.00    +0.000 A 
ATOM     14  C   UNL     1      -3.550  10.382  17.765  0.00  0.00    +0.000 A 
ATOM     15  F   UNL     1      -3.384   9.333  16.947  0.00  0.00    +0.000 F 
ATOM     16  C   UNL     1      -2.445  10.959  18.374  0.00  0.00    +0.000 A 
ATOM     17  C   UNL     1      -2.622  12.039  19.247  0.00  0.00    +0.000 A 
ENDBRANCH   8  11
BRANCH   1  19
ATOM     18  N   UNL     1      -0.613  13.323  22.137  0.00  0.00    +0.000 N 
ATOM     19  C   UNL     1      -1.195  14.467  21.644  0.00  0.00    +0.000 C 
ATOM     20  O   UNL     1      -1.194  14.815  20.467  0.00  0.00    +0.000 OA
ATOM     21  H   UNL     1      -0.611  13.219  23.133  0.00  0.00    +0.000 HD
BRANCH  18  27
ATOM     22  C   UNL     1      -0.018   8.398  21.512  0.00  0.00    +0.000 C 
ATOM     23  C   UNL     1       0.236   9.828  21.106  0.00  0.00    +0.000 A 
ATOM     24  C   UNL     1       1.027  10.072  19.977  0.00  0.00    +0.000 A 
ATOM     25  C   UNL     1       1.287  11.373  19.568  0.00  0.00    +0.000 A 
ATOM     26  C   UNL     1       0.761  12.449  20.287  0.00  0.00    +0.000 A 
ATOM     27  C   UNL     1      -0.034  12.245  21.424  0.00  0.00    +0.000 A 
ATOM     28  C   UNL     1      -0.295  10.918  21.847  0.00  0.00    +0.000 A 
ATOM     29  C   UNL     1      -1.095  10.589  23.092  0.00  0.00    +0.000 C 
ENDBRANCH  18  27
ENDBRANCH   1  19
TORSDOF 3
ENDMDL
MODEL 2
REMARK VINA RESULT:      -6.4      6.938     10.617
REMARK  Name = 
REMARK  5 active torsions:
REMARK  status: ('A' for Active; 'I' for Inactive)
REMARK    1  A    between atoms: C_1  and  C_2
REMARK    2  A    between atoms: C_6  and  N_7
REMARK    3  A    between atoms: C_8  and  C_10
REMARK    4  A    between atoms: N_17  and  C_18
REMARK    5  A    between atoms: C_26  and  C_27
REMARK                            x       y       z     vdW  Elec       q    Type
REMARK                         _______ _______ _______ _____ _____    ______ ____
ROOT
ATOM      1  C   UNL     1       5.030   6.879  16.775  0.00  0.00    +0.000 C 
ATOM      2  C   UNL     1       5.113   6.441  15.289  0.00  0.00    +0.000 C 
ATOM      3  C   UNL     1       5.335   4.938  15.030  0.00  0.00    +0.000 C 
ATOM      4  C   UNL     1       6.289   4.286  16.030  0.00  0.00    +0.000 C 
ATOM      5  N   UNL     1       5.913   4.672  17.381  0.00  0.00    +0.000 N 
ATOM      6  C   UNL     1       4.863   3.918  17.939  0.00  0.00    +0.000 C 
ATOM      7  O   UNL     1       4.334   3.018  17.289  0.00  0.00    +0.000 OA
ATOM      8  N   UNL     1       4.507   4.270  19.218  0.00  0.00    +0.000 N 
ATOM      9  C   UNL     1       6.073   6.113  17.604  0.00  0.00    +0.000 C 
ATOM     10  H   UNL     1       5.046   4.997  19.661  0.00  0.00    +0.000 HD
ENDROOT
BRANCH   8  11
ATOM     11  C   UNL     1       3.437   3.744  19.979  0.00  0.00    +0.000 A 
ATOM     12  C   UNL     1       2.121   4.219  19.917  0.00  0.00    +0.000 A 
ATOM     13  C   UNL     1       1.129   3.686  20.745  0.00  0.00    +0.000 A 
ATOM     14  C   UNL     1       1.448   2.672  21.634  0.00  0.00    +0.000 A 
ATOM     15  F   UNL     1       0.501   2.174  22.441  0.00  0.00    +0.000 F 
ATOM     16  C   UNL     1       2.740   2.170  21.701  0.00  0.00    +0.000 A 
ATOM     17  C   UNL     1       3.734   2.706  20.875  0.00  0.00    +0.000 A 
ENDBRANCH   8  11
BRANCH   1  19
ATOM     18  N   UNL     1       3.531   7.829  18.500  0.00  0.00    +0.000 N 
ATOM     19  C   UNL     1       3.693   6.848  17.551  0.00  0.00    +0.000 C 
ATOM     20  O   UNL     1       2.898   5.941  17.323  0.00  0.00    +0.000 OA
ATOM     21  H   UNL     1       4.308   8.446  18.637  0.00  0.00    +0.000 HD
BRANCH  18  27
ATOM     22  C   UNL     1      -0.576  10.554  19.344  0.00  0.00    +0.000 C 
ATOM     23  C   UNL     1       0.371   9.434  19.697  0.00  0.00    +0.000 A 
ATOM     24  C   UNL     1       0.083   8.643  20.817  0.00  0.00    +0.000 A 
ATOM     25  C   UNL     1       0.927   7.602  21.178  0.00  0.00    +0.000 A 
ATOM     26  C   UNL     1       2.075   7.340  20.426  0.00  0.00    +0.000 A 
ATOM     27  C   UNL     1       2.397   8.111  19.300  0.00  0.00    +0.000 A 
ATOM     28  C   UNL     1       1.541   9.178  18.933  0.00  0.00    +0.000 A 
ATOM     29  C   UNL     1       1.827  10.105  17.767  0.00  0.00    +0.000 C 
ENDBRANCH  18  27
ENDBRANCH   1  19
TORSDOF 3
ENDMDL
MODEL 3
REMARK VINA RESULT:      -6.4      7.582     11.214
REMARK  Name = 
REMARK  5 active torsions:
REMARK  status: ('A' for Active; 'I' for Inactive)
REMARK    1  A    between atoms: C_1  and  C_2
REMARK    2  A    between atoms: C_6  and  N_7
REMARK    3  A    between atoms: C_8  and  C_10
REMARK    4  A    between atoms: N_17  and  C_18
REMARK    5  A    between atoms: C_26  and  C_27
REMARK                            x       y       z     vdW  Elec       q    Type
REMARK                         _______ _______ _______ _____ _____    ______ ____
ROOT
ATOM      1  C   UNL     1       6.393   5.838  16.981  0.00  0.00    +0.000 C 
ATOM      2  C   UNL     1       5.979   6.349  15.577  0.00  0.00    +0.000 C 
ATOM      3  C   UNL     1       5.084   5.411  14.744  0.00  0.00    +0.000 C 
ATOM      4  C   UNL     1       5.445   3.934  14.899  0.00  0.00    +0.000 C 
ATOM      5  N   UNL     1       5.596   3.618  16.310  0.00  0.00    +0.000 N 
ATOM      6  C   UNL     1       4.389   3.360  16.989  0.00  0.00    +0.000 C 
ATOM      7  O   UNL     1       3.317   3.421  16.391  0.00  0.00    +0.000 OA
ATOM      8  N   UNL     1       4.523   3.052  18.321  0.00  0.00    +0.000 N 
ATOM      9  C   UNL     1       6.720   4.338  16.917  0.00  0.00    +0.000 C 
ATOM     10  H   UNL     1       5.460   2.992  18.687  0.00  0.00    +0.000 HD
ENDROOT
BRANCH   8  11
ATOM     11  C   UNL     1       3.482   2.839  19.255  0.00  0.00    +0.000 A 
ATOM     12  C   UNL     1       2.121   2.847  18.928  0.00  0.00    +0.000 A 
ATOM     13  C   UNL     1       1.147   2.687  19.919  0.00  0.00    +0.000 A 
ATOM     14  C   UNL     1       1.533   2.510  21.239  0.00  0.00    +0.000 A 
ATOM     15  F   UNL     1       0.599   2.375  22.190  0.00  0.00    +0.000 F 
ATOM     16  C   UNL     1       2.876   2.478  21.585  0.00  0.00    +0.000 A 
ATOM     17  C   UNL     1       3.850   2.643  20.594  0.00  0.00    +0.000 A 
ENDBRANCH   8  11
BRANCH   1  19
ATOM     18  N   UNL     1       4.291   6.685  17.978  0.00  0.00    +0.000 N 
ATOM     19  C   UNL     1       5.498   6.073  18.221  0.00  0.00    +0.000 C 
ATOM     20  O   UNL     1       5.927   5.761  19.328  0.00  0.00    +0.000 OA
ATOM     21  H   UNL     1       4.119   6.966  17.032  0.00  0.00    +0.000 HD
BRANCH  18  27
ATOM     22  C   UNL     1       0.511   9.614  19.437  0.00  0.00    +0.000 C 
ATOM     23  C   UNL     1       1.366   8.379  19.579  0.00  0.00    +0.000 A 
ATOM     24  C   UNL     1       1.066   7.473  20.605  0.00  0.00    +0.000 A 
ATOM     25  C   UNL     1       1.828   6.324  20.771  0.00  0.00    +0.000 A 
ATOM     26  C   UNL     1       2.903   6.068  19.917  0.00  0.00    +0.000 A 
ATOM     27  C   UNL     1       3.235   6.953  18.881  0.00  0.00    +0.000 A 
ATOM     28  C   UNL     1       2.463   8.130  18.713  0.00  0.00    +0.000 A 
ATOM     29  C   UNL     1       2.771   9.177  17.660  0.00  0.00    +0.000 C 
ENDBRANCH  18  27
ENDBRANCH   1  19
TORSDOF 3
ENDMDL
MODEL 4
REMARK VINA RESULT:      -6.3      7.257     10.538
REMARK  Name = 
REMARK  5 active torsions:
REMARK  status: ('A' for Active; 'I' for Inactive)
REMARK    1  A    between atoms: C_1  and  C_2
REMARK    2  A    between atoms: C_6  and  N_7
REMARK    3  A    between atoms: C_8  and  C_10
REMARK    4  A    between atoms: N_17  and  C_18
REMARK    5  A    between atoms: C_26  and  C_27
REMARK                            x       y       z     vdW  Elec       q    Type
REMARK                         _______ _______ _______ _____ _____    ______ ____
ROOT
ATOM      1  C   UNL     1       3.475   2.150  19.488  0.00  0.00    +0.000 C 
ATOM      2  C   UNL     1       2.285   1.159  19.406  0.00  0.00    +0.000 C 
ATOM      3  C   UNL     1       0.962   1.624  20.044  0.00  0.00    +0.000 C 
ATOM      4  C   UNL     1       1.157   2.412  21.338  0.00  0.00    +0.000 C 
ATOM      5  N   UNL     1       2.182   3.424  21.137  0.00  0.00    +0.000 N 
ATOM      6  C   UNL     1       1.730   4.608  20.523  0.00  0.00    +0.000 C 
ATOM      7  O   UNL     1       0.552   4.722  20.191  0.00  0.00    +0.000 OA
ATOM      8  N   UNL     1       2.690   5.573  20.338  0.00  0.00    +0.000 N 
ATOM      9  C   UNL     1       3.495   2.829  20.866  0.00  0.00    +0.000 C 
ATOM     10  H   UNL     1       3.613   5.377  20.691  0.00  0.00    +0.000 HD
ENDROOT
BRANCH   8  11
ATOM     11  C   UNL     1       2.536   6.811  19.671  0.00  0.00    +0.000 A 
ATOM     12  C   UNL     1       1.821   7.898  20.188  0.00  0.00    +0.000 A 
ATOM     13  C   UNL     1       1.663   9.070  19.442  0.00  0.00    +0.000 A 
ATOM     14  C   UNL     1       2.226   9.161  18.179  0.00  0.00    +0.000 A 
ATOM     15  F   UNL     1       2.059  10.277  17.457  0.00  0.00    +0.000 F 
ATOM     16  C   UNL     1       2.957   8.105  17.652  0.00  0.00    +0.000 A 
ATOM     17  C   UNL     1       3.111   6.931  18.397  0.00  0.00    +0.000 A 
ENDBRANCH   8  11
BRANCH   1  19
ATOM     18  N   UNL     1       4.961   3.752  18.324  0.00  0.00    +0.000 N 
ATOM     19  C   UNL     1       3.686   3.247  18.418  0.00  0.00    +0.000 C 
ATOM     20  O   UNL     1       2.718   3.634  17.770  0.00  0.00    +0.000 OA
ATOM     21  H   UNL     1       5.627   3.401  18.985  0.00  0.00    +0.000 HD
BRANCH  18  27
ATOM     22  C   UNL     1       7.891   7.685  17.355  0.00  0.00    +0.000 C 
ATOM     23  C   UNL     1       6.935   6.602  16.921  0.00  0.00    +0.000 A 
ATOM     24  C   UNL     1       6.599   6.513  15.564  0.00  0.00    +0.000 A 
ATOM     25  C   UNL     1       5.723   5.531  15.121  0.00  0.00    +0.000 A 
ATOM     26  C   UNL     1       5.167   4.628  16.031  0.00  0.00    +0.000 A 
ATOM     27  C   UNL     1       5.478   4.688  17.396  0.00  0.00    +0.000 A 
ATOM     28  C   UNL     1       6.367   5.693  17.852  0.00  0.00    +0.000 A 
ATOM     29  C   UNL     1       6.726   5.879  19.314  0.00  0.00    +0.000 C 
ENDBRANCH  18  27
ENDBRANCH   1  19
TORSDOF 3
ENDMDL
MODEL 5
REMARK VINA RESULT:      -6.3      9.349     12.534
REMARK  Name = 
REMARK  5 active torsions:
REMARK  status: ('A' for Active; 'I' for Inactive)
REMARK    1  A    between atoms: C_1  and  C_2
REMARK    2  A    between atoms: C_6  and  N_7
REMARK    3  A    between atoms: C_8  and  C_10
REMARK    4  A    between atoms: N_17  and  C_18
REMARK    5  A    between atoms: C_26  and  C_27
REMARK                            x       y       z     vdW  Elec       q    Type
REMARK                         _______ _______ _______ _____ _____    ______ ____
ROOT
ATOM      1  C   UNL     1      11.754  14.997  18.404  0.00  0.00    +0.000 C 
ATOM      2  C   UNL     1      11.698  14.474  16.944  0.00  0.00    +0.000 C 
ATOM      3  C   UNL     1      11.265  13.007  16.760  0.00  0.00    +0.000 C 
ATOM      4  C   UNL     1      11.807  12.074  17.842  0.00  0.00    +0.000 C 
ATOM      5  N   UNL     1      11.580  12.667  19.150  0.00  0.00    +0.000 N 
ATOM      6  C   UNL     1      10.287  12.468  19.672  0.00  0.00    +0.000 C 
ATOM      7  O   UNL     1       9.449  11.842  19.027  0.00  0.00    +0.000 OA
ATOM      8  N   UNL     1      10.067  13.018  20.912  0.00  0.00    +0.000 N 
ATOM      9  C   UNL     1      12.333  13.914  19.326  0.00  0.00    +0.000 C 
ATOM     10  H   UNL     1      10.847  13.472  21.358  0.00  0.00    +0.000 HD
ENDROOT
BRANCH   8  11
ATOM     11  C   UNL     1       8.846  13.047  21.625  0.00  0.00    +0.000 A 
ATOM     12  C   UNL     1       7.895  14.069  21.514  0.00  0.00    +0.000 A 
ATOM     13  C   UNL     1       6.737  14.057  22.298  0.00  0.00    +0.000 A 
ATOM     14  C   UNL     1       6.524  13.019  23.191  0.00  0.00    +0.000 A 
ATOM     15  F   UNL     1       5.423  13.017  23.955  0.00  0.00    +0.000 F 
ATOM     16  C   UNL     1       7.441  11.983  23.305  0.00  0.00    +0.000 A 
ATOM     17  C   UNL     1       8.601  11.998  22.524  0.00  0.00    +0.000 A 
ENDBRANCH   8  11
BRANCH   1  19
ATOM     18  N   UNL     1       9.391  15.727  18.300  0.00  0.00    +0.000 N 
ATOM     19  C   UNL     1      10.503  15.587  19.096  0.00  0.00    +0.000 C 
ATOM     20  O   UNL     1      10.587  15.940  20.269  0.00  0.00    +0.000 OA
ATOM     21  H   UNL     1       9.501  15.480  17.336  0.00  0.00    +0.000 HD
BRANCH  18  27
ATOM     22  C   UNL     1       4.460  14.902  18.376  0.00  0.00    +0.000 C 
ATOM     23  C   UNL     1       5.673  15.730  18.718  0.00  0.00    +0.000 A 
ATOM     24  C   UNL     1       5.491  16.914  19.444  0.00  0.00    +0.000 A 
ATOM     25  C   UNL     1       6.581  17.706  19.781  0.00  0.00    +0.000 A 
ATOM     26  C   UNL     1       7.867  17.327  19.391  0.00  0.00    +0.000 A 
ATOM     27  C   UNL     1       8.089  16.150  18.662  0.00  0.00    +0.000 A 
ATOM     28  C   UNL     1       6.978  15.343  18.312  0.00  0.00    +0.000 A 
ATOM     29  C   UNL     1       7.102  14.081  17.480  0.00  0.00    +0.000 C 
ENDBRANCH  18  27
ENDBRANCH   1  19
TORSDOF 3
ENDMDL
MODEL 6
REMARK VINA RESULT:      -6.2      9.210     12.487
REMARK  Name = 
REMARK  5 active torsions:
REMARK  status: ('A' for Active; 'I' for Inactive)
REMARK    1  A    between atoms: C_1  and  C_2
REMARK    2  A    between atoms: C_6  and  N_7
REMARK    3  A    between atoms: C_8  and  C_10
REMARK    4  A    between atoms: N_17  and  C_18
REMARK    5  A    between atoms: C_26  and  C_27
REMARK                            x       y       z     vdW  Elec       q    Type
REMARK                         _______ _______ _______ _____ _____    ______ ____
ROOT
ATOM      1  C   UNL     1      11.554  15.500  18.330  0.00  0.00    +0.000 C 
ATOM      2  C   UNL     1      11.562  14.946  16.881  0.00  0.00    +0.000 C 
ATOM      3  C   UNL     1      11.357  13.427  16.730  0.00  0.00    +0.000 C 
ATOM      4  C   UNL     1      12.049  12.610  17.820  0.00  0.00    +0.000 C 
ATOM      5  N   UNL     1      11.749  13.187  19.121  0.00  0.00    +0.000 N 
ATOM      6  C   UNL     1      10.509  12.803  19.665  0.00  0.00    +0.000 C 
ATOM      7  O   UNL     1       9.769  12.042  19.044  0.00  0.00    +0.000 OA
ATOM      8  N   UNL     1      10.221  13.337  20.898  0.00  0.00    +0.000 N 
ATOM      9  C   UNL     1      12.304  14.538  19.262  0.00  0.00    +0.000 C 
ATOM     10  H   UNL     1      10.928  13.914  21.324  0.00  0.00    +0.000 HD
ENDROOT
BRANCH   8  11
ATOM     11  C   UNL     1       9.019  13.192  21.629  0.00  0.00    +0.000 A 
ATOM     12  C   UNL     1       8.709  12.079  22.419  0.00  0.00    +0.000 A 
ATOM     13  C   UNL     1       7.472  11.983  23.066  0.00  0.00    +0.000 A 
ATOM     14  C   UNL     1       6.546  13.004  22.930  0.00  0.00    +0.000 A 
ATOM     15  F   UNL     1       5.354  12.903  23.534  0.00  0.00    +0.000 F 
ATOM     16  C   UNL     1       6.837  14.128  22.169  0.00  0.00    +0.000 A 
ATOM     17  C   UNL     1       8.072  14.222  21.518  0.00  0.00    +0.000 A 
ENDBRANCH   8  11
BRANCH   1  19
ATOM     18  N   UNL     1       9.117  15.923  18.231  0.00  0.00    +0.000 N 
ATOM     19  C   UNL     1      10.235  15.906  19.030  0.00  0.00    +0.000 C 
ATOM     20  O   UNL     1      10.270  16.235  20.212  0.00  0.00    +0.000 OA
ATOM     21  H   UNL     1       9.261  15.718  17.261  0.00  0.00    +0.000 HD
BRANCH  18  27
ATOM     22  C   UNL     1       4.352  14.412  18.362  0.00  0.00    +0.000 C 
ATOM     23  C   UNL     1       5.439  15.409  18.679  0.00  0.00    +0.000 A 
ATOM     24  C   UNL     1       5.095  16.568  19.386  0.00  0.00    +0.000 A 
ATOM     25  C   UNL     1       6.064  17.513  19.700  0.00  0.00    +0.000 A 
ATOM     26  C   UNL     1       7.389  17.311  19.307  0.00  0.00    +0.000 A 
ATOM     27  C   UNL     1       7.770  16.164  18.596  0.00  0.00    +0.000 A 
ATOM     28  C   UNL     1       6.782  15.202  18.269  0.00  0.00    +0.000 A 
ATOM     29  C   UNL     1       7.079  13.955  17.458  0.00  0.00    +0.000 C 
ENDBRANCH  18  27
ENDBRANCH   1  19
TORSDOF 3
ENDMDL
MODEL 7
REMARK VINA RESULT:      -6.2      1.865      4.734
REMARK  Name = 
REMARK  5 active torsions:
REMARK  status: ('A' for Active; 'I' for Inactive)
REMARK    1  A    between atoms: C_1  and  C_2
REMARK    2  A    between atoms: C_6  and  N_7
REMARK    3  A    between atoms: C_8  and  C_10
REMARK    4  A    between atoms: N_17  and  C_18
REMARK    5  A    between atoms: C_26  and  C_27
REMARK                            x       y       z     vdW  Elec       q    Type
REMARK                         _______ _______ _______ _____ _____    ______ ____
ROOT
ATOM      1  C   UNL     1      -4.905  14.281  21.235  0.00  0.00    +0.000 C 
ATOM      2  C   UNL     1      -4.727  15.604  20.445  0.00  0.00    +0.000 C 
ATOM      3  C   UNL     1      -3.419  16.379  20.696  0.00  0.00    +0.000 C 
ATOM      4  C   UNL     1      -2.961  16.339  22.153  0.00  0.00    +0.000 C 
ATOM      5  N   UNL     1      -3.019  14.970  22.641  0.00  0.00    +0.000 N 
ATOM      6  C   UNL     1      -1.906  14.176  22.304  0.00  0.00    +0.000 C 
ATOM      7  O   UNL     1      -0.987  14.650  21.638  0.00  0.00    +0.000 OA
ATOM      8  N   UNL     1      -1.947  12.884  22.769  0.00  0.00    +0.000 N 
ATOM      9  C   UNL     1      -4.392  14.456  22.672  0.00  0.00    +0.000 C 
ATOM     10  H   UNL     1      -2.736  12.627  23.341  0.00  0.00    +0.000 HD
ENDROOT
BRANCH   8  11
ATOM     11  C   UNL     1      -1.015  11.854  22.504  0.00  0.00    +0.000 A 
ATOM     12  C   UNL     1       0.049  11.969  21.602  0.00  0.00    +0.000 A 
ATOM     13  C   UNL     1       0.895  10.884  21.350  0.00  0.00    +0.000 A 
ATOM     14  C   UNL     1       0.683   9.683  22.007  0.00  0.00    +0.000 A 
ATOM     15  F   UNL     1       1.482   8.638  21.752  0.00  0.00    +0.000 F 
ATOM     16  C   UNL     1      -0.352   9.548  22.922  0.00  0.00    +0.000 A 
ATOM     17  C   UNL     1      -1.201  10.633  23.170  0.00  0.00    +0.000 A 
ENDBRANCH   8  11
BRANCH   1  19
ATOM     18  N   UNL     1      -3.863  12.970  19.411  0.00  0.00    +0.000 N 
ATOM     19  C   UNL     1      -4.353  12.940  20.695  0.00  0.00    +0.000 C 
ATOM     20  O   UNL     1      -4.432  11.940  21.403  0.00  0.00    +0.000 OA
ATOM     21  H   UNL     1      -3.950  13.841  18.923  0.00  0.00    +0.000 HD
BRANCH  18  27
ATOM     22  C   UNL     1      -3.688  10.010  15.386  0.00  0.00    +0.000 C 
ATOM     23  C   UNL     1      -3.126  10.506  16.695  0.00  0.00    +0.000 A 
ATOM     24  C   UNL     1      -1.925   9.955  17.159  0.00  0.00    +0.000 A 
ATOM     25  C   UNL     1      -1.373  10.383  18.358  0.00  0.00    +0.000 A 
ATOM     26  C   UNL     1      -2.018  11.366  19.113  0.00  0.00    +0.000 A 
ATOM     27  C   UNL     1      -3.222  11.940  18.682  0.00  0.00    +0.000 A 
ATOM     28  C   UNL     1      -3.791  11.500  17.461  0.00  0.00    +0.000 A 
ATOM     29  C   UNL     1      -5.116  12.016  16.933  0.00  0.00    +0.000 C 
ENDBRANCH  18  27
ENDBRANCH   1  19
TORSDOF 3
ENDMDL
MODEL 8
REMARK VINA RESULT:      -6.2      2.018      4.582
REMARK  Name = 
REMARK  5 active torsions:
REMARK  status: ('A' for Active; 'I' for Inactive)
REMARK    1  A    between atoms: C_1  and  C_2
REMARK    2  A    between atoms: C_6  and  N_7
REMARK    3  A    between atoms: C_8  and  C_10
REMARK    4  A    between atoms: N_17  and  C_18
REMARK    5  A    between atoms: C_26  and  C_27
REMARK                            x       y       z     vdW  Elec       q    Type
REMARK                         _______ _______ _______ _____ _____    ______ ____
ROOT
ATOM      1  C   UNL     1      -4.146  14.552  21.232  0.00  0.00    +0.000 C 
ATOM      2  C   UNL     1      -3.833  16.035  21.564  0.00  0.00    +0.000 C 
ATOM      3  C   UNL     1      -2.956  16.287  22.805  0.00  0.00    +0.000 C 
ATOM      4  C   UNL     1      -3.256  15.335  23.962  0.00  0.00    +0.000 C 
ATOM      5  N   UNL     1      -3.313  13.970  23.464  0.00  0.00    +0.000 N 
ATOM      6  C   UNL     1      -2.061  13.343  23.316  0.00  0.00    +0.000 C 
ATOM      7  O   UNL     1      -1.029  13.951  23.592  0.00  0.00    +0.000 OA
ATOM      8  N   UNL     1      -2.106  12.050  22.854  0.00  0.00    +0.000 N 
ATOM      9  C   UNL     1      -4.425  13.774  22.527  0.00  0.00    +0.000 C 
ATOM     10  H   UNL     1      -3.017  11.648  22.704  0.00  0.00    +0.000 HD
ENDROOT
BRANCH   8  11
ATOM     11  C   UNL     1      -1.006  11.223  22.531  0.00  0.00    +0.000 A 
ATOM     12  C   UNL     1      -0.059  11.524  21.544  0.00  0.00    +0.000 A 
ATOM     13  C   UNL     1       0.969  10.626  21.241  0.00  0.00    +0.000 A 
ATOM     14  C   UNL     1       1.058   9.427  21.930  0.00  0.00    +0.000 A 
ATOM     15  F   UNL     1       2.032   8.558  21.626  0.00  0.00    +0.000 F 
ATOM     16  C   UNL     1       0.144   9.113  22.926  0.00  0.00    +0.000 A 
ATOM     17  C   UNL     1      -0.887  10.010  23.226  0.00  0.00    +0.000 A 
ENDBRANCH   8  11
BRANCH   1  19
ATOM     18  N   UNL     1      -3.763  12.632  19.718  0.00  0.00    +0.000 N 
ATOM     19  C   UNL     1      -3.189  13.700  20.366  0.00  0.00    +0.000 C 
ATOM     20  O   UNL     1      -1.995  13.984  20.351  0.00  0.00    +0.000 OA
ATOM     21  H   UNL     1      -4.735  12.473  19.900  0.00  0.00    +0.000 HD
BRANCH  18  27
ATOM     22  C   UNL     1      -3.854  10.339  15.275  0.00  0.00    +0.000 C 
ATOM     23  C   UNL     1      -3.209  10.628  16.608  0.00  0.00    +0.000 A 
ATOM     24  C   UNL     1      -1.982  10.018  16.903  0.00  0.00    +0.000 A 
ATOM     25  C   UNL     1      -1.354  10.257  18.118  0.00  0.00    +0.000 A 
ATOM     26  C   UNL     1      -1.945  11.106  19.056  0.00  0.00    +0.000 A 
ATOM     27  C   UNL     1      -3.173  11.732  18.797  0.00  0.00    +0.000 A 
ATOM     28  C   UNL     1      -3.819  11.486  17.561  0.00  0.00    +0.000 A 
ATOM     29  C   UNL     1      -5.173  12.069  17.205  0.00  0.00    +0.000 C 
ENDBRANCH  18  27
ENDBRANCH   1  19
TORSDOF 3
ENDMDL
MODEL 9
REMARK VINA RESULT:      -6.1      1.946      3.002
REMARK  Name = 
REMARK  5 active torsions:
REMARK  status: ('A' for Active; 'I' for Inactive)
REMARK    1  A    between atoms: C_1  and  C_2
REMARK    2  A    between atoms: C_6  and  N_7
REMARK    3  A    between atoms: C_8  and  C_10
REMARK    4  A    between atoms: N_17  and  C_18
REMARK    5  A    between atoms: C_26  and  C_27
REMARK                            x       y       z     vdW  Elec       q    Type
REMARK                         _______ _______ _______ _____ _____    ______ ____
ROOT
ATOM      1  C   UNL     1      -5.907  15.698  22.354  0.00  0.00    +0.000 C 
ATOM      2  C   UNL     1      -6.309  15.267  23.789  0.00  0.00    +0.000 C 
ATOM      3  C   UNL     1      -6.967  13.881  23.928  0.00  0.00    +0.000 C 
ATOM      4  C   UNL     1      -7.917  13.543  22.780  0.00  0.00    +0.000 C 
ATOM      5  N   UNL     1      -7.268  13.839  21.513  0.00  0.00    +0.000 N 
ATOM      6  C   UNL     1      -6.399  12.834  21.046  0.00  0.00    +0.000 C 
ATOM      7  O   UNL     1      -6.229  11.809  21.703  0.00  0.00    +0.000 OA
ATOM      8  N   UNL     1      -5.788  13.101  19.845  0.00  0.00    +0.000 N 
ATOM      9  C   UNL     1      -6.995  15.272  21.357  0.00  0.00    +0.000 C 
ATOM     10  H   UNL     1      -6.042  13.959  19.382  0.00  0.00    +0.000 HD
ENDROOT
BRANCH   8  11
ATOM     11  C   UNL     1      -4.809  12.315  19.194  0.00  0.00    +0.000 A 
ATOM     12  C   UNL     1      -3.447  12.331  19.517  0.00  0.00    +0.000 A 
ATOM     13  C   UNL     1      -2.530  11.568  18.788  0.00  0.00    +0.000 A 
ATOM     14  C   UNL     1      -2.974  10.781  17.736  0.00  0.00    +0.000 A 
ATOM     15  F   UNL     1      -2.092  10.065  17.026  0.00  0.00    +0.000 F 
ATOM     16  C   UNL     1      -4.322  10.733  17.409  0.00  0.00    +0.000 A 
ATOM     17  C   UNL     1      -5.238  11.499  18.136  0.00  0.00    +0.000 A 
ENDBRANCH   8  11
BRANCH   1  19
ATOM     18  N   UNL     1      -3.675  14.655  22.598  0.00  0.00    +0.000 N 
ATOM     19  C   UNL     1      -4.536  15.312  21.751  0.00  0.00    +0.000 C 
ATOM     20  O   UNL     1      -4.279  15.653  20.600  0.00  0.00    +0.000 OA
ATOM     21  H   UNL     1      -3.991  14.527  23.540  0.00  0.00    +0.000 HD
BRANCH  18  27
ATOM     22  C   UNL     1      -0.520  10.782  22.790  0.00  0.00    +0.000 C 
ATOM     23  C   UNL     1      -0.866  12.195  22.391  0.00  0.00    +0.000 A 
ATOM     24  C   UNL     1       0.090  12.944  21.693  0.00  0.00    +0.000 A 
ATOM     25  C   UNL     1      -0.187  14.249  21.306  0.00  0.00    +0.000 A 
ATOM     26  C   UNL     1      -1.422  14.823  21.617  0.00  0.00    +0.000 A 
ATOM     27  C   UNL     1      -2.402  14.105  22.317  0.00  0.00    +0.000 A 
ATOM     28  C   UNL     1      -2.120  12.775  22.718  0.00  0.00    +0.000 A 
ATOM     29  C   UNL     1      -3.088  11.932  23.524  0.00  0.00    +0.000 C 
ENDBRANCH  18  27
ENDBRANCH   1  19
TORSDOF 3
ENDMDL
