MODEL 1
REMARK VINA RESULT:      -6.3      0.000      0.000
REMARK  Name = 
REMARK  5 active torsions:
REMARK  status: ('A' for Active; 'I' for Inactive)
REMARK    1  A    between atoms: C_1  and  C_2
REMARK    2  A    between atoms: N_7  and  C_8
REMARK    3  A    between atoms: C_8  and  C_9
REMARK    4  A    between atoms: C_9  and  S_10
REMARK    5  A    between atoms: S_10  and  C_13
REMARK                            x       y       z     vdW  Elec       q    Type
REMARK                         _______ _______ _______ _____ _____    ______ ____
ROOT
ATOM      1  C   UNL     1       5.471   6.820  17.269  0.00  0.00    +0.000 C 
ENDROOT
BRANCH   1   2
ATOM      2  S   UNL     1       6.975   5.982  16.807  0.00  0.00    +0.000 S 
ATOM      3  O   UNL     1       7.962   6.986  16.455  0.00  0.00    +0.000 OA
ATOM      4  O   UNL     1       7.268   4.976  17.809  0.00  0.00    +0.000 OA
BRANCH   2   5
ATOM      5  C   UNL     1       6.556   5.129  15.304  0.00  0.00    +0.000 A 
ATOM      6  C   UNL     1       7.437   5.182  14.218  0.00  0.00    +0.000 A 
ATOM      7  C   UNL     1       7.166   4.429  13.074  0.00  0.00    +0.000 A 
ATOM      8  C   UNL     1       6.026   3.625  13.029  0.00  0.00    +0.000 A 
ATOM      9 BR   UNL     1       5.685   2.571  11.497  0.00  0.00    +0.000 Br
ATOM     10  C   UNL     1       5.146   3.576  14.112  0.00  0.00    +0.000 A 
ATOM     11  C   UNL     1       5.412   4.328  15.259  0.00  0.00    +0.000 A 
ENDBRANCH   2   5
ENDBRANCH   1   2
BRANCH   1  12
ATOM     12  C   UNL     1       4.836   6.080  18.445  0.00  0.00    +0.000 C 
BRANCH  12  19
ATOM     13  C   UNL     1       1.155   2.624  21.579  0.00  0.00    +0.000 C 
ATOM     14  C   UNL     1       1.740   2.508  20.194  0.00  0.00    +0.000 C 
ATOM     15  O   UNL     1       1.508   1.516  19.507  0.00  0.00    +0.000 OA
ATOM     16  N   UNL     1       2.488   3.578  19.736  0.00  0.00    +0.000 N 
ATOM     17  C   UNL     1       3.000   3.560  18.363  0.00  0.00    +0.000 C 
ATOM     18  C   UNL     1       2.831   4.939  17.684  0.00  0.00    +0.000 C 
ATOM     19  N   UNL     1       3.359   6.094  18.467  0.00  0.00    +0.000 NA
ATOM     20  C   UNL     1       2.770   6.037  19.823  0.00  0.00    +0.000 C 
ATOM     21  C   UNL     1       2.961   4.695  20.555  0.00  0.00    +0.000 C 
ENDBRANCH  12  19
ENDBRANCH   1  12
TORSDOF 4
ENDMDL
MODEL 2
REMARK VINA RESULT:      -6.3      0.944      1.018
REMARK  Name = 
REMARK  5 active torsions:
REMARK  status: ('A' for Active; 'I' for Inactive)
REMARK    1  A    between atoms: C_1  and  C_2
REMARK    2  A    between atoms: N_7  and  C_8
REMARK    3  A    between atoms: C_8  and  C_9
REMARK    4  A    between atoms: C_9  and  S_10
REMARK    5  A    between atoms: S_10  and  C_13
REMARK                            x       y       z     vdW  Elec       q    Type
REMARK                         _______ _______ _______ _____ _____    ______ ____
ROOT
ATOM      1  C   UNL     1       5.716   5.606  18.773  0.00  0.00    +0.000 C 
ENDROOT
BRANCH   1   2
ATOM      2  S   UNL     1       7.234   5.525  17.841  0.00  0.00    +0.000 S 
ATOM      3  O   UNL     1       7.721   6.880  17.653  0.00  0.00    +0.000 OA
ATOM      4  O   UNL     1       8.083   4.509  18.431  0.00  0.00    +0.000 OA
BRANCH   2   5
ATOM      5  C   UNL     1       6.733   4.936  16.239  0.00  0.00    +0.000 A 
ATOM      6  C   UNL     1       7.363   5.442  15.097  0.00  0.00    +0.000 A 
ATOM      7  C   UNL     1       7.050   4.907  13.845  0.00  0.00    +0.000 A 
ATOM      8  C   UNL     1       6.122   3.869  13.749  0.00  0.00    +0.000 A 
ATOM      9 BR   UNL     1       5.735   3.116  12.059  0.00  0.00    +0.000 Br
ATOM     10  C   UNL     1       5.493   3.367  14.890  0.00  0.00    +0.000 A 
ATOM     11  C   UNL     1       5.802   3.899  16.144  0.00  0.00    +0.000 A 
ENDBRANCH   2   5
ENDBRANCH   1   2
BRANCH   1  12
ATOM     12  C   UNL     1       4.596   6.081  17.850  0.00  0.00    +0.000 C 
BRANCH  12  19
ATOM     13  C   UNL     1       1.110   2.651  21.226  0.00  0.00    +0.000 C 
ATOM     14  C   UNL     1       1.115   2.972  19.752  0.00  0.00    +0.000 C 
ATOM     15  O   UNL     1       0.305   2.434  19.001  0.00  0.00    +0.000 OA
ATOM     16  N   UNL     1       2.025   3.920  19.319  0.00  0.00    +0.000 N 
ATOM     17  C   UNL     1       2.009   4.340  17.915  0.00  0.00    +0.000 C 
ATOM     18  C   UNL     1       2.176   5.871  17.786  0.00  0.00    +0.000 C 
ATOM     19  N   UNL     1       3.336   6.441  18.532  0.00  0.00    +0.000 NA
ATOM     20  C   UNL     1       3.251   5.981  19.935  0.00  0.00    +0.000 C 
ATOM     21  C   UNL     1       3.134   4.455  20.109  0.00  0.00    +0.000 C 
ENDBRANCH  12  19
ENDBRANCH   1  12
TORSDOF 4
ENDMDL
MODEL 3
REMARK VINA RESULT:      -6.3      2.588      3.648
REMARK  Name = 
REMARK  5 active torsions:
REMARK  status: ('A' for Active; 'I' for Inactive)
REMARK    1  A    between atoms: C_1  and  C_2
REMARK    2  A    between atoms: N_7  and  C_8
REMARK    3  A    between atoms: C_8  and  C_9
REMARK    4  A    between atoms: C_9  and  S_10
REMARK    5  A    between atoms: S_10  and  C_13
REMARK                            x       y       z     vdW  Elec       q    Type
REMARK                         _______ _______ _______ _____ _____    ______ ____
ROOT
ATOM      1  C   UNL     1       4.904   4.175  18.812  0.00  0.00    +0.000 C 
ENDROOT
BRANCH   1   2
ATOM      2  S   UNL     1       6.246   5.136  18.138  0.00  0.00    +0.000 S 
ATOM      3  O   UNL     1       5.903   6.541  18.266  0.00  0.00    +0.000 OA
ATOM      4  O   UNL     1       7.492   4.627  18.676  0.00  0.00    +0.000 OA
BRANCH   2   5
ATOM      5  C   UNL     1       6.223   4.761  16.401  0.00  0.00    +0.000 A 
ATOM      6  C   UNL     1       7.285   5.186  15.595  0.00  0.00    +0.000 A 
ATOM      7  C   UNL     1       7.327   4.803  14.252  0.00  0.00    +0.000 A 
ATOM      8  C   UNL     1       6.315   3.994  13.732  0.00  0.00    +0.000 A 
ATOM      9 BR   UNL     1       6.398   3.439  11.927  0.00  0.00    +0.000 Br
ATOM     10  C   UNL     1       5.255   3.573  14.537  0.00  0.00    +0.000 A 
ATOM     11  C   UNL     1       5.209   3.954  15.880  0.00  0.00    +0.000 A 
ENDBRANCH   2   5
ENDBRANCH   1   2
BRANCH   1  12
ATOM     12  C   UNL     1       4.050   5.075  19.702  0.00  0.00    +0.000 C 
BRANCH  12  19
ATOM     13  C   UNL     1       0.943   9.852  18.017  0.00  0.00    +0.000 C 
ATOM     14  C   UNL     1       1.178   9.202  19.357  0.00  0.00    +0.000 C 
ATOM     15  O   UNL     1       0.716   9.708  20.378  0.00  0.00    +0.000 OA
ATOM     16  N   UNL     1       1.880   8.010  19.364  0.00  0.00    +0.000 N 
ATOM     17  C   UNL     1       2.055   7.287  20.626  0.00  0.00    +0.000 C 
ATOM     18  C   UNL     1       1.840   5.768  20.437  0.00  0.00    +0.000 C 
ATOM     19  N   UNL     1       2.624   5.157  19.324  0.00  0.00    +0.000 NA
ATOM     20  C   UNL     1       2.365   5.939  18.095  0.00  0.00    +0.000 C 
ATOM     21  C   UNL     1       2.616   7.453  18.228  0.00  0.00    +0.000 C 
ENDBRANCH  12  19
ENDBRANCH   1  12
TORSDOF 4
ENDMDL
MODEL 4
REMARK VINA RESULT:      -6.1      4.063      7.123
REMARK  Name = 
REMARK  5 active torsions:
REMARK  status: ('A' for Active; 'I' for Inactive)
REMARK    1  A    between atoms: C_1  and  C_2
REMARK    2  A    between atoms: N_7  and  C_8
REMARK    3  A    between atoms: C_8  and  C_9
REMARK    4  A    between atoms: C_9  and  S_10
REMARK    5  A    between atoms: S_10  and  C_13
REMARK                            x       y       z     vdW  Elec       q    Type
REMARK                         _______ _______ _______ _____ _____    ______ ____
ROOT
ATOM      1  C   UNL     1       4.223   5.413  19.690  0.00  0.00    +0.000 C 
ENDROOT
BRANCH   1   2
ATOM      2  S   UNL     1       2.468   5.463  19.379  0.00  0.00    +0.000 S 
ATOM      3  O   UNL     1       2.230   4.930  18.049  0.00  0.00    +0.000 OA
ATOM      4  O   UNL     1       1.780   4.913  20.530  0.00  0.00    +0.000 OA
BRANCH   2   5
ATOM      5  C   UNL     1       2.085   7.198  19.309  0.00  0.00    +0.000 A 
ATOM      6  C   UNL     1       2.191   7.874  18.089  0.00  0.00    +0.000 A 
ATOM      7  C   UNL     1       1.791   9.209  18.004  0.00  0.00    +0.000 A 
ATOM      8  C   UNL     1       1.280   9.851  19.134  0.00  0.00    +0.000 A 
ATOM      9 BR   UNL     1       0.694  11.644  19.005  0.00  0.00    +0.000 Br
ATOM     10  C   UNL     1       1.176   9.175  20.351  0.00  0.00    +0.000 A 
ATOM     11  C   UNL     1       1.577   7.840  20.441  0.00  0.00    +0.000 A 
ENDBRANCH   2   5
ENDBRANCH   1   2
BRANCH   1  12
ATOM     12  C   UNL     1       4.963   5.666  18.379  0.00  0.00    +0.000 C 
BRANCH  12  19
ATOM     13  C   UNL     1       7.831   4.965  13.221  0.00  0.00    +0.000 C 
ATOM     14  C   UNL     1       6.538   4.406  13.760  0.00  0.00    +0.000 C 
ATOM     15  O   UNL     1       5.836   3.685  13.054  0.00  0.00    +0.000 OA
ATOM     16  N   UNL     1       6.225   4.701  15.075  0.00  0.00    +0.000 N 
ATOM     17  C   UNL     1       5.029   4.107  15.678  0.00  0.00    +0.000 C 
ATOM     18  C   UNL     1       5.312   3.618  17.117  0.00  0.00    +0.000 C 
ATOM     19  N   UNL     1       5.950   4.630  18.009  0.00  0.00    +0.000 NA
ATOM     20  C   UNL     1       7.153   5.152  17.326  0.00  0.00    +0.000 C 
ATOM     21  C   UNL     1       6.905   5.696  15.905  0.00  0.00    +0.000 C 
ENDBRANCH  12  19
ENDBRANCH   1  12
TORSDOF 4
ENDMDL
MODEL 5
REMARK VINA RESULT:      -6.1      3.734      7.199
REMARK  Name = 
REMARK  5 active torsions:
REMARK  status: ('A' for Active; 'I' for Inactive)
REMARK    1  A    between atoms: C_1  and  C_2
REMARK    2  A    between atoms: N_7  and  C_8
REMARK    3  A    between atoms: C_8  and  C_9
REMARK    4  A    between atoms: C_9  and  S_10
REMARK    5  A    between atoms: S_10  and  C_13
REMARK                            x       y       z     vdW  Elec       q    Type
REMARK                         _______ _______ _______ _____ _____    ______ ____
ROOT
ATOM      1  C   UNL     1       4.642   5.188  19.605  0.00  0.00    +0.000 C 
ENDROOT
BRANCH   1   2
ATOM      2  S   UNL     1       2.882   4.995  19.819  0.00  0.00    +0.000 S 
ATOM      3  O   UNL     1       2.385   4.161  18.740  0.00  0.00    +0.000 OA
ATOM      4  O   UNL     1       2.622   4.648  21.202  0.00  0.00    +0.000 OA
BRANCH   2   5
ATOM      5  C   UNL     1       2.228   6.626  19.547  0.00  0.00    +0.000 A 
ATOM      6  C   UNL     1       1.658   7.322  20.619  0.00  0.00    +0.000 A 
ATOM      7  C   UNL     1       1.239   8.642  20.438  0.00  0.00    +0.000 A 
ATOM      8  C   UNL     1       1.403   9.255  19.195  0.00  0.00    +0.000 A 
ATOM      9 BR   UNL     1       0.879  11.057  18.965  0.00  0.00    +0.000 Br
ATOM     10  C   UNL     1       1.970   8.558  18.126  0.00  0.00    +0.000 A 
ATOM     11  C   UNL     1       2.389   7.237  18.302  0.00  0.00    +0.000 A 
ENDBRANCH   2   5
ENDBRANCH   1   2
BRANCH   1  12
ATOM     12  C   UNL     1       5.053   4.535  18.287  0.00  0.00    +0.000 C 
BRANCH  12  19
ATOM     13  C   UNL     1       7.015   3.974  12.706  0.00  0.00    +0.000 C 
ATOM     14  C   UNL     1       7.382   4.907  13.833  0.00  0.00    +0.000 C 
ATOM     15  O   UNL     1       8.288   5.724  13.687  0.00  0.00    +0.000 OA
ATOM     16  N   UNL     1       6.624   4.825  14.987  0.00  0.00    +0.000 N 
ATOM     17  C   UNL     1       6.876   5.771  16.078  0.00  0.00    +0.000 C 
ATOM     18  C   UNL     1       5.552   6.292  16.683  0.00  0.00    +0.000 C 
ATOM     19  N   UNL     1       4.578   5.230  17.072  0.00  0.00    +0.000 NA
ATOM     20  C   UNL     1       4.375   4.343  15.905  0.00  0.00    +0.000 C 
ATOM     21  C   UNL     1       5.669   3.763  15.302  0.00  0.00    +0.000 C 
ENDBRANCH  12  19
ENDBRANCH   1  12
TORSDOF 4
ENDMDL
MODEL 6
REMARK VINA RESULT:      -6.1      3.760      7.209
REMARK  Name = 
REMARK  5 active torsions:
REMARK  status: ('A' for Active; 'I' for Inactive)
REMARK    1  A    between atoms: C_1  and  C_2
REMARK    2  A    between atoms: N_7  and  C_8
REMARK    3  A    between atoms: C_8  and  C_9
REMARK    4  A    between atoms: C_9  and  S_10
REMARK    5  A    between atoms: S_10  and  C_13
REMARK                            x       y       z     vdW  Elec       q    Type
REMARK                         _______ _______ _______ _____ _____    ______ ____
ROOT
ATOM      1  C   UNL     1       4.959   4.688  19.129  0.00  0.00    +0.000 C 
ENDROOT
BRANCH   1   2
ATOM      2  S   UNL     1       3.194   4.562  19.348  0.00  0.00    +0.000 S 
ATOM      3  O   UNL     1       2.635   3.941  18.161  0.00  0.00    +0.000 OA
ATOM      4  O   UNL     1       2.932   4.014  20.664  0.00  0.00    +0.000 OA
BRANCH   2   5
ATOM      5  C   UNL     1       2.633   6.249  19.353  0.00  0.00    +0.000 A 
ATOM      6  C   UNL     1       2.698   6.996  18.171  0.00  0.00    +0.000 A 
ATOM      7  C   UNL     1       2.161   8.285  18.141  0.00  0.00    +0.000 A 
ATOM      8  C   UNL     1       1.559   8.810  19.285  0.00  0.00    +0.000 A 
ATOM      9 BR   UNL     1       0.791  10.537  19.228  0.00  0.00    +0.000 Br
ATOM     10  C   UNL     1       1.497   8.065  20.464  0.00  0.00    +0.000 A 
ATOM     11  C   UNL     1       2.033   6.775  20.500  0.00  0.00    +0.000 A 
ENDBRANCH   2   5
ENDBRANCH   1   2
BRANCH   1  12
ATOM     12  C   UNL     1       5.318   4.200  17.727  0.00  0.00    +0.000 C 
BRANCH  12  19
ATOM     13  C   UNL     1       7.347   4.385  12.145  0.00  0.00    +0.000 C 
ATOM     14  C   UNL     1       7.746   5.111  13.405  0.00  0.00    +0.000 C 
ATOM     15  O   UNL     1       8.699   5.886  13.395  0.00  0.00    +0.000 OA
ATOM     16  N   UNL     1       6.964   4.898  14.526  0.00  0.00    +0.000 N 
ATOM     17  C   UNL     1       7.248   5.650  15.752  0.00  0.00    +0.000 C 
ATOM     18  C   UNL     1       5.945   6.149  16.417  0.00  0.00    +0.000 C 
ATOM     19  N   UNL     1       4.906   5.099  16.629  0.00  0.00    +0.000 NA
ATOM     20  C   UNL     1       4.674   4.414  15.338  0.00  0.00    +0.000 C 
ATOM     21  C   UNL     1       5.944   3.858  14.665  0.00  0.00    +0.000 C 
ENDBRANCH  12  19
ENDBRANCH   1  12
TORSDOF 4
ENDMDL
MODEL 7
REMARK VINA RESULT:      -6.1      1.473      2.016
REMARK  Name = 
REMARK  5 active torsions:
REMARK  status: ('A' for Active; 'I' for Inactive)
REMARK    1  A    between atoms: C_1  and  C_2
REMARK    2  A    between atoms: N_7  and  C_8
REMARK    3  A    between atoms: C_8  and  C_9
REMARK    4  A    between atoms: C_9  and  S_10
REMARK    5  A    between atoms: S_10  and  C_13
REMARK                            x       y       z     vdW  Elec       q    Type
REMARK                         _______ _______ _______ _____ _____    ______ ____
ROOT
ATOM      1  C   UNL     1       5.599   5.147  17.234  0.00  0.00    +0.000 C 
ENDROOT
BRANCH   1   2
ATOM      2  S   UNL     1       6.228   6.147  15.898  0.00  0.00    +0.000 S 
ATOM      3  O   UNL     1       5.179   7.064  15.489  0.00  0.00    +0.000 OA
ATOM      4  O   UNL     1       7.539   6.641  16.270  0.00  0.00    +0.000 OA
BRANCH   2   5
ATOM      5  C   UNL     1       6.452   4.998  14.560  0.00  0.00    +0.000 A 
ATOM      6  C   UNL     1       5.523   3.967  14.380  0.00  0.00    +0.000 A 
ATOM      7  C   UNL     1       5.633   3.127  13.270  0.00  0.00    +0.000 A 
ATOM      8  C   UNL     1       6.662   3.330  12.349  0.00  0.00    +0.000 A 
ATOM      9 BR   UNL     1       6.782   2.220  10.823  0.00  0.00    +0.000 Br
ATOM     10  C   UNL     1       7.589   4.358  12.531  0.00  0.00    +0.000 A 
ATOM     11  C   UNL     1       7.484   5.200  13.640  0.00  0.00    +0.000 A 
ENDBRANCH   2   5
ENDBRANCH   1   2
BRANCH   1  12
ATOM     12  C   UNL     1       4.083   5.315  17.304  0.00  0.00    +0.000 C 
BRANCH  12  19
ATOM     13  C   UNL     1       1.145   2.849  21.843  0.00  0.00    +0.000 C 
ATOM     14  C   UNL     1       2.554   2.693  21.328  0.00  0.00    +0.000 C 
ATOM     15  O   UNL     1       3.350   1.968  21.920  0.00  0.00    +0.000 OA
ATOM     16  N   UNL     1       2.870   3.354  20.154  0.00  0.00    +0.000 N 
ATOM     17  C   UNL     1       4.195   3.162  19.558  0.00  0.00    +0.000 C 
ATOM     18  C   UNL     1       4.100   2.994  18.025  0.00  0.00    +0.000 C 
ATOM     19  N   UNL     1       3.315   4.053  17.325  0.00  0.00    +0.000 NA
ATOM     20  C   UNL     1       1.993   4.156  17.982  0.00  0.00    +0.000 C 
ATOM     21  C   UNL     1       2.045   4.373  19.506  0.00  0.00    +0.000 C 
ENDBRANCH  12  19
ENDBRANCH   1  12
TORSDOF 4
ENDMDL
MODEL 8
REMARK VINA RESULT:      -6.0      0.909      1.445
REMARK  Name = 
REMARK  5 active torsions:
REMARK  status: ('A' for Active; 'I' for Inactive)
REMARK    1  A    between atoms: C_1  and  C_2
REMARK    2  A    between atoms: N_7  and  C_8
REMARK    3  A    between atoms: C_8  and  C_9
REMARK    4  A    between atoms: C_9  and  S_10
REMARK    5  A    between atoms: S_10  and  C_13
REMARK                            x       y       z     vdW  Elec       q    Type
REMARK                         _______ _______ _______ _____ _____    ______ ____
ROOT
ATOM      1  C   UNL     1       5.840   5.130  18.145  0.00  0.00    +0.000 C 
ENDROOT
BRANCH   1   2
ATOM      2  S   UNL     1       7.278   5.198  17.093  0.00  0.00    +0.000 S 
ATOM      3  O   UNL     1       7.596   6.594  16.854  0.00  0.00    +0.000 OA
ATOM      4  O   UNL     1       8.278   4.291  17.620  0.00  0.00    +0.000 OA
BRANCH   2   5
ATOM      5  C   UNL     1       6.718   4.530  15.543  0.00  0.00    +0.000 A 
ATOM      6  C   UNL     1       5.545   3.767  15.511  0.00  0.00    +0.000 A 
ATOM      7  C   UNL     1       5.042   3.330  14.283  0.00  0.00    +0.000 A 
ATOM      8  C   UNL     1       5.708   3.667  13.103  0.00  0.00    +0.000 A 
ATOM      9 BR   UNL     1       5.000   3.113  11.440  0.00  0.00    +0.000 Br
ATOM     10  C   UNL     1       6.879   4.426  13.138  0.00  0.00    +0.000 A 
ATOM     11  C   UNL     1       7.387   4.865  14.363  0.00  0.00    +0.000 A 
ENDBRANCH   2   5
ENDBRANCH   1   2
BRANCH   1  12
ATOM     12  C   UNL     1       4.745   6.007  17.541  0.00  0.00    +0.000 C 
BRANCH  12  19
ATOM     13  C   UNL     1       1.442   2.434  20.951  0.00  0.00    +0.000 C 
ATOM     14  C   UNL     1       1.259   2.978  19.557  0.00  0.00    +0.000 C 
ATOM     15  O   UNL     1       0.285   2.640  18.886  0.00  0.00    +0.000 OA
ATOM     16  N   UNL     1       2.195   3.893  19.111  0.00  0.00    +0.000 N 
ATOM     17  C   UNL     1       2.014   4.524  17.801  0.00  0.00    +0.000 C 
ATOM     18  C   UNL     1       2.336   6.035  17.858  0.00  0.00    +0.000 C 
ATOM     19  N   UNL     1       3.655   6.373  18.469  0.00  0.00    +0.000 NA
ATOM     20  C   UNL     1       3.733   5.711  19.790  0.00  0.00    +0.000 C 
ATOM     21  C   UNL     1       3.467   4.194  19.769  0.00  0.00    +0.000 C 
ENDBRANCH  12  19
ENDBRANCH   1  12
TORSDOF 4
ENDMDL
MODEL 9
REMARK VINA RESULT:      -6.0      0.806      1.327
REMARK  Name = 
REMARK  5 active torsions:
REMARK  status: ('A' for Active; 'I' for Inactive)
REMARK    1  A    between atoms: C_1  and  C_2
REMARK    2  A    between atoms: N_7  and  C_8
REMARK    3  A    between atoms: C_8  and  C_9
REMARK    4  A    between atoms: C_9  and  S_10
REMARK    5  A    between atoms: S_10  and  C_13
REMARK                            x       y       z     vdW  Elec       q    Type
REMARK                         _______ _______ _______ _____ _____    ______ ____
ROOT
ATOM      1  C   UNL     1       4.512   7.088  17.269  0.00  0.00    +0.000 C 
ENDROOT
BRANCH   1   2
ATOM      2  S   UNL     1       6.117   6.314  17.329  0.00  0.00    +0.000 S 
ATOM      3  O   UNL     1       7.122   7.343  17.128  0.00  0.00    +0.000 OA
ATOM      4  O   UNL     1       6.167   5.448  18.491  0.00  0.00    +0.000 OA
BRANCH   2   5
ATOM      5  C   UNL     1       6.156   5.274  15.888  0.00  0.00    +0.000 A 
ATOM      6  C   UNL     1       5.082   4.413  15.636  0.00  0.00    +0.000 A 
ATOM      7  C   UNL     1       5.056   3.672  14.453  0.00  0.00    +0.000 A 
ATOM      8  C   UNL     1       6.095   3.807  13.530  0.00  0.00    +0.000 A 
ATOM      9 BR   UNL     1       6.035   2.839  11.907  0.00  0.00    +0.000 Br
ATOM     10  C   UNL     1       7.167   4.665  13.784  0.00  0.00    +0.000 A 
ATOM     11  C   UNL     1       7.198   5.407  14.967  0.00  0.00    +0.000 A 
ENDBRANCH   2   5
ENDBRANCH   1   2
BRANCH   1  12
ATOM     12  C   UNL     1       3.893   7.050  18.664  0.00  0.00    +0.000 C 
BRANCH  12  19
ATOM     13  C   UNL     1       1.495   2.478  21.607  0.00  0.00    +0.000 C 
ATOM     14  C   UNL     1       2.041   2.625  20.209  0.00  0.00    +0.000 C 
ATOM     15  O   UNL     1       2.085   1.652  19.459  0.00  0.00    +0.000 OA
ATOM     16  N   UNL     1       2.426   3.893  19.814  0.00  0.00    +0.000 N 
ATOM     17  C   UNL     1       2.874   4.111  18.436  0.00  0.00    +0.000 C 
ATOM     18  C   UNL     1       2.285   5.417  17.856  0.00  0.00    +0.000 C 
ATOM     19  N   UNL     1       2.478   6.626  18.709  0.00  0.00    +0.000 NA
ATOM     20  C   UNL     1       1.979   6.316  20.067  0.00  0.00    +0.000 C 
ATOM     21  C   UNL     1       2.580   5.047  20.701  0.00  0.00    +0.000 C 
ENDBRANCH  12  19
ENDBRANCH   1  12
TORSDOF 4
ENDMDL
