MODEL 1
REMARK VINA RESULT:      -5.9      0.000      0.000
REMARK  Name = 
REMARK  21 active torsions:
REMARK  status: ('A' for Active; 'I' for Inactive)
REMARK    1  A    between atoms: C_1  and  C_2
REMARK    2  A    between atoms: C_2  and  C_3
REMARK    3  A    between atoms: C_3  and  C_4
REMARK    4  A    between atoms: C_4  and  C_5
REMARK    5  A    between atoms: C_5  and  C_6
REMARK    6  A    between atoms: C_6  and  C_7
REMARK    7  A    between atoms: C_7  and  C_8
REMARK    8  A    between atoms: C_8  and  S_9
REMARK    9  A    between atoms: S_9  and  N_12
REMARK   10  A    between atoms: N_12  and  C_13
REMARK   11  A    between atoms: C_13  and  C_14
REMARK   12  A    between atoms: C_14  and  C_15
REMARK   13  A    between atoms: C_15  and  N_16
REMARK   14  A    between atoms: N_16  and  C_17
REMARK   15  A    between atoms: C_17  and  C_18
REMARK   16  A    between atoms: C_18  and  C_19
REMARK   17  A    between atoms: C_19  and  N_20
REMARK   18  A    between atoms: N_20  and  C_21
REMARK   19  A    between atoms: C_21  and  C_22
REMARK   20  A    between atoms: C_22  and  C_23
REMARK   21  A    between atoms: C_23  and  N_24
REMARK                            x       y       z     vdW  Elec       q    Type
REMARK                         _______ _______ _______ _____ _____    ______ ____
ROOT
ATOM      1  C   UNL     1       4.074   5.852  18.406  0.00  0.00    +0.000 C 
ENDROOT
BRANCH   1   2
ATOM      2  C   UNL     1       2.748   5.946  19.149  0.00  0.00    +0.000 C 
BRANCH   2   3
ATOM      3  N   UNL     1       2.405   7.325  19.395  0.00  0.00    +0.000 NA
ATOM      4  H   UNL     1       3.094   7.785  19.991  0.00  0.00    +0.000 HD
BRANCH   3   5
ATOM      5  C   UNL     1       2.285   8.042  18.125  0.00  0.00    +0.000 C 
BRANCH   5   6
ATOM      6  C   UNL     1       1.928   9.507  18.361  0.00  0.00    +0.000 C 
BRANCH   6   7
ATOM      7  C   UNL     1       0.464   9.744  17.996  0.00  0.00    +0.000 C 
BRANCH   7   8
ATOM      8  N   UNL     1      -0.305  10.086  19.189  0.00  0.00    +0.000 NA
ATOM      9  H   UNL     1      -0.747   9.251  19.573  0.00  0.00    +0.000 HD
BRANCH   8  10
ATOM     10  C   UNL     1       0.557  10.696  20.198  0.00  0.00    +0.000 C 
BRANCH  10  11
ATOM     11  C   UNL     1      -0.189  10.804  21.526  0.00  0.00    +0.000 C 
BRANCH  11  12
ATOM     12  C   UNL     1      -0.149   9.467  22.259  0.00  0.00    +0.000 C 
BRANCH  12  13
ATOM     13  N   UNL     1       0.280   9.654  23.640  0.00  0.00    +0.000 NA
ATOM     14  H   UNL     1       0.734   8.802  23.970  0.00  0.00    +0.000 HD
ATOM     15  H   UNL     1      -0.538   9.792  24.231  0.00  0.00    +0.000 HD
ENDBRANCH  12  13
ENDBRANCH  11  12
ENDBRANCH  10  11
ENDBRANCH   8  10
ENDBRANCH   7   8
ENDBRANCH   6   7
ENDBRANCH   5   6
ENDBRANCH   3   5
ENDBRANCH   2   3
ENDBRANCH   1   2
BRANCH   1  16
ATOM     16  C   UNL     1       5.104   5.109  19.245  0.00  0.00    +0.000 C 
BRANCH  16  17
ATOM     17  N   UNL     1       5.963   4.262  18.392  0.00  0.00    +0.000 NA
ATOM     18  H   UNL     1       6.172   3.329  18.739  0.00  0.00    +0.000 HD
BRANCH  17  19
ATOM     19  S   UNL     1       7.346   5.029  17.776  0.00  0.00    +0.000 S 
ATOM     20  O   UNL     1       8.432   4.069  17.790  0.00  0.00    +0.000 OA
ATOM     21  O   UNL     1       7.453   6.315  18.423  0.00  0.00    +0.000 OA
BRANCH  19  22
ATOM     22  C   UNL     1       6.878   5.320  16.064  0.00  0.00    +0.000 C 
BRANCH  22  23
ATOM     23  C   UNL     1       6.053   4.141  15.560  0.00  0.00    +0.000 C 
BRANCH  23  24
ATOM     24  C   UNL     1       5.499   4.355  14.156  0.00  0.00    +0.000 C 
BRANCH  24  25
ATOM     25  C   UNL     1       6.380   3.632  13.134  0.00  0.00    +0.000 C 
BRANCH  25  26
ATOM     26  C   UNL     1       5.546   2.949  12.053  0.00  0.00    +0.000 C 
BRANCH  26  27
ATOM     27  C   UNL     1       4.448   3.879  11.538  0.00  0.00    +0.000 C 
BRANCH  27  29
ATOM     28  C   UNL     1       2.841   4.036   9.609  0.00  0.00    +0.000 C 
ATOM     29  C   UNL     1       3.453   3.125  10.660  0.00  0.00    +0.000 C 
ENDBRANCH  27  29
ENDBRANCH  26  27
ENDBRANCH  25  26
ENDBRANCH  24  25
ENDBRANCH  23  24
ENDBRANCH  22  23
ENDBRANCH  19  22
ENDBRANCH  17  19
ENDBRANCH  16  17
ENDBRANCH   1  16
TORSDOF 20
ENDMDL
MODEL 2
REMARK VINA RESULT:      -5.7      1.966      3.424
REMARK  Name = 
REMARK  21 active torsions:
REMARK  status: ('A' for Active; 'I' for Inactive)
REMARK    1  A    between atoms: C_1  and  C_2
REMARK    2  A    between atoms: C_2  and  C_3
REMARK    3  A    between atoms: C_3  and  C_4
REMARK    4  A    between atoms: C_4  and  C_5
REMARK    5  A    between atoms: C_5  and  C_6
REMARK    6  A    between atoms: C_6  and  C_7
REMARK    7  A    between atoms: C_7  and  C_8
REMARK    8  A    between atoms: C_8  and  S_9
REMARK    9  A    between atoms: S_9  and  N_12
REMARK   10  A    between atoms: N_12  and  C_13
REMARK   11  A    between atoms: C_13  and  C_14
REMARK   12  A    between atoms: C_14  and  C_15
REMARK   13  A    between atoms: C_15  and  N_16
REMARK   14  A    between atoms: N_16  and  C_17
REMARK   15  A    between atoms: C_17  and  C_18
REMARK   16  A    between atoms: C_18  and  C_19
REMARK   17  A    between atoms: C_19  and  N_20
REMARK   18  A    between atoms: N_20  and  C_21
REMARK   19  A    between atoms: C_21  and  C_22
REMARK   20  A    between atoms: C_22  and  C_23
REMARK   21  A    between atoms: C_23  and  N_24
REMARK                            x       y       z     vdW  Elec       q    Type
REMARK                         _______ _______ _______ _____ _____    ______ ____
ROOT
ATOM      1  C   UNL     1       3.589   4.444  17.059  0.00  0.00    +0.000 C 
ENDROOT
BRANCH   1   2
ATOM      2  C   UNL     1       3.202   3.059  17.563  0.00  0.00    +0.000 C 
BRANCH   2   3
ATOM      3  N   UNL     1       3.190   3.034  19.006  0.00  0.00    +0.000 NA
ATOM      4  H   UNL     1       3.265   3.972  19.400  0.00  0.00    +0.000 HD
BRANCH   3   5
ATOM      5  C   UNL     1       1.967   2.386  19.482  0.00  0.00    +0.000 C 
BRANCH   5   6
ATOM      6  C   UNL     1       1.419   3.101  20.713  0.00  0.00    +0.000 C 
BRANCH   6   7
ATOM      7  C   UNL     1       1.067   4.544  20.355  0.00  0.00    +0.000 C 
BRANCH   7   8
ATOM      8  N   UNL     1       2.033   5.463  20.949  0.00  0.00    +0.000 NA
ATOM      9  H   UNL     1       2.879   4.958  21.214  0.00  0.00    +0.000 HD
BRANCH   8  10
ATOM     10  C   UNL     1       2.368   6.532  20.013  0.00  0.00    +0.000 C 
BRANCH  10  11
ATOM     11  C   UNL     1       1.599   7.801  20.374  0.00  0.00    +0.000 C 
BRANCH  11  12
ATOM     12  C   UNL     1       1.653   8.794  19.218  0.00  0.00    +0.000 C 
BRANCH  12  13
ATOM     13  N   UNL     1       2.007   8.115  17.977  0.00  0.00    +0.000 NA
ATOM     14  H   UNL     1       3.009   8.215  17.812  0.00  0.00    +0.000 HD
ATOM     15  H   UNL     1       1.540   8.574  17.197  0.00  0.00    +0.000 HD
ENDBRANCH  12  13
ENDBRANCH  11  12
ENDBRANCH  10  11
ENDBRANCH   8  10
ENDBRANCH   7   8
ENDBRANCH   6   7
ENDBRANCH   5   6
ENDBRANCH   3   5
ENDBRANCH   2   3
ENDBRANCH   1   2
BRANCH   1  16
ATOM     16  C   UNL     1       4.646   5.064  17.961  0.00  0.00    +0.000 C 
BRANCH  16  17
ATOM     17  N   UNL     1       5.837   4.193  18.049  0.00  0.00    +0.000 NA
ATOM     18  H   UNL     1       6.157   3.954  18.984  0.00  0.00    +0.000 HD
BRANCH  17  19
ATOM     19  S   UNL     1       7.125   4.630  17.034  0.00  0.00    +0.000 S 
ATOM     20  O   UNL     1       8.345   4.102  17.611  0.00  0.00    +0.000 OA
ATOM     21  O   UNL     1       6.971   6.030  16.716  0.00  0.00    +0.000 OA
BRANCH  19  22
ATOM     22  C   UNL     1       6.758   3.691  15.544  0.00  0.00    +0.000 C 
BRANCH  22  23
ATOM     23  C   UNL     1       6.380   4.653  14.423  0.00  0.00    +0.000 C 
BRANCH  23  24
ATOM     24  C   UNL     1       7.107   4.361  13.115  0.00  0.00    +0.000 C 
BRANCH  24  25
ATOM     25  C   UNL     1       6.250   3.448  12.235  0.00  0.00    +0.000 C 
BRANCH  25  26
ATOM     26  C   UNL     1       4.765   3.781  12.353  0.00  0.00    +0.000 C 
BRANCH  26  27
ATOM     27  C   UNL     1       3.951   3.036  11.296  0.00  0.00    +0.000 C 
BRANCH  27  29
ATOM     28  C   UNL     1       2.756   4.374   9.532  0.00  0.00    +0.000 C 
ATOM     29  C   UNL     1       4.065   3.714   9.933  0.00  0.00    +0.000 C 
ENDBRANCH  27  29
ENDBRANCH  26  27
ENDBRANCH  25  26
ENDBRANCH  24  25
ENDBRANCH  23  24
ENDBRANCH  22  23
ENDBRANCH  19  22
ENDBRANCH  17  19
ENDBRANCH  16  17
ENDBRANCH   1  16
TORSDOF 20
ENDMDL
MODEL 3
REMARK VINA RESULT:      -5.6      2.262      3.710
REMARK  Name = 
REMARK  21 active torsions:
REMARK  status: ('A' for Active; 'I' for Inactive)
REMARK    1  A    between atoms: C_1  and  C_2
REMARK    2  A    between atoms: C_2  and  C_3
REMARK    3  A    between atoms: C_3  and  C_4
REMARK    4  A    between atoms: C_4  and  C_5
REMARK    5  A    between atoms: C_5  and  C_6
REMARK    6  A    between atoms: C_6  and  C_7
REMARK    7  A    between atoms: C_7  and  C_8
REMARK    8  A    between atoms: C_8  and  S_9
REMARK    9  A    between atoms: S_9  and  N_12
REMARK   10  A    between atoms: N_12  and  C_13
REMARK   11  A    between atoms: C_13  and  C_14
REMARK   12  A    between atoms: C_14  and  C_15
REMARK   13  A    between atoms: C_15  and  N_16
REMARK   14  A    between atoms: N_16  and  C_17
REMARK   15  A    between atoms: C_17  and  C_18
REMARK   16  A    between atoms: C_18  and  C_19
REMARK   17  A    between atoms: C_19  and  N_20
REMARK   18  A    between atoms: N_20  and  C_21
REMARK   19  A    between atoms: C_21  and  C_22
REMARK   20  A    between atoms: C_22  and  C_23
REMARK   21  A    between atoms: C_23  and  N_24
REMARK                            x       y       z     vdW  Elec       q    Type
REMARK                         _______ _______ _______ _____ _____    ______ ____
ROOT
ATOM      1  C   UNL     1       4.194   2.997  19.659  0.00  0.00    +0.000 C 
ENDROOT
BRANCH   1   2
ATOM      2  C   UNL     1       3.455   3.030  18.327  0.00  0.00    +0.000 C 
BRANCH   2   3
ATOM      3  N   UNL     1       2.029   3.012  18.541  0.00  0.00    +0.000 NA
ATOM      4  H   UNL     1       1.532   2.628  17.736  0.00  0.00    +0.000 HD
BRANCH   3   5
ATOM      5  C   UNL     1       1.716   2.234  19.740  0.00  0.00    +0.000 C 
BRANCH   5   6
ATOM      6  C   UNL     1       1.158   3.133  20.839  0.00  0.00    +0.000 C 
BRANCH   6   7
ATOM      7  C   UNL     1       1.019   4.560  20.314  0.00  0.00    +0.000 C 
BRANCH   7   8
ATOM      8  N   UNL     1       2.121   5.386  20.796  0.00  0.00    +0.000 NA
ATOM      9  H   UNL     1       2.950   4.811  20.948  0.00  0.00    +0.000 HD
BRANCH   8  10
ATOM     10  C   UNL     1       2.426   6.446  19.838  0.00  0.00    +0.000 C 
BRANCH  10  11
ATOM     11  C   UNL     1       1.676   7.721  20.216  0.00  0.00    +0.000 C 
BRANCH  11  12
ATOM     12  C   UNL     1       1.756   8.734  19.078  0.00  0.00    +0.000 C 
BRANCH  12  13
ATOM     13  N   UNL     1       1.958   8.055  17.804  0.00  0.00    +0.000 NA
ATOM     14  H   UNL     1       1.260   8.380  17.135  0.00  0.00    +0.000 HD
ATOM     15  H   UNL     1       1.798   7.057  17.925  0.00  0.00    +0.000 HD
ENDBRANCH  12  13
ENDBRANCH  11  12
ENDBRANCH  10  11
ENDBRANCH   8  10
ENDBRANCH   7   8
ENDBRANCH   6   7
ENDBRANCH   5   6
ENDBRANCH   3   5
ENDBRANCH   2   3
ENDBRANCH   1   2
BRANCH   1  16
ATOM     16  C   UNL     1       5.458   3.843  19.589  0.00  0.00    +0.000 C 
BRANCH  16  17
ATOM     17  N   UNL     1       6.036   3.812  18.230  0.00  0.00    +0.000 NA
ATOM     18  H   UNL     1       6.193   2.894  17.822  0.00  0.00    +0.000 HD
BRANCH  17  19
ATOM     19  S   UNL     1       7.361   4.845  17.988  0.00  0.00    +0.000 S 
ATOM     20  O   UNL     1       8.235   4.226  17.011  0.00  0.00    +0.000 OA
ATOM     21  O   UNL     1       7.834   5.255  19.288  0.00  0.00    +0.000 OA
BRANCH  19  22
ATOM     22  C   UNL     1       6.583   6.272  17.217  0.00  0.00    +0.000 C 
BRANCH  22  23
ATOM     23  C   UNL     1       5.320   5.826  16.489  0.00  0.00    +0.000 C 
BRANCH  23  24
ATOM     24  C   UNL     1       5.501   5.732  14.978  0.00  0.00    +0.000 C 
BRANCH  24  25
ATOM     25  C   UNL     1       5.692   4.271  14.567  0.00  0.00    +0.000 C 
BRANCH  25  26
ATOM     26  C   UNL     1       5.133   3.999  13.173  0.00  0.00    +0.000 C 
BRANCH  26  27
ATOM     27  C   UNL     1       6.174   3.311  12.290  0.00  0.00    +0.000 C 
BRANCH  27  29
ATOM     28  C   UNL     1       6.670   1.228  10.968  0.00  0.00    +0.000 C 
ATOM     29  C   UNL     1       5.584   2.086  11.596  0.00  0.00    +0.000 C 
ENDBRANCH  27  29
ENDBRANCH  26  27
ENDBRANCH  25  26
ENDBRANCH  24  25
ENDBRANCH  23  24
ENDBRANCH  22  23
ENDBRANCH  19  22
ENDBRANCH  17  19
ENDBRANCH  16  17
ENDBRANCH   1  16
TORSDOF 20
ENDMDL
MODEL 4
REMARK VINA RESULT:      -5.6      1.273      1.450
REMARK  Name = 
REMARK  21 active torsions:
REMARK  status: ('A' for Active; 'I' for Inactive)
REMARK    1  A    between atoms: C_1  and  C_2
REMARK    2  A    between atoms: C_2  and  C_3
REMARK    3  A    between atoms: C_3  and  C_4
REMARK    4  A    between atoms: C_4  and  C_5
REMARK    5  A    between atoms: C_5  and  C_6
REMARK    6  A    between atoms: C_6  and  C_7
REMARK    7  A    between atoms: C_7  and  C_8
REMARK    8  A    between atoms: C_8  and  S_9
REMARK    9  A    between atoms: S_9  and  N_12
REMARK   10  A    between atoms: N_12  and  C_13
REMARK   11  A    between atoms: C_13  and  C_14
REMARK   12  A    between atoms: C_14  and  C_15
REMARK   13  A    between atoms: C_15  and  N_16
REMARK   14  A    between atoms: N_16  and  C_17
REMARK   15  A    between atoms: C_17  and  C_18
REMARK   16  A    between atoms: C_18  and  C_19
REMARK   17  A    between atoms: C_19  and  N_20
REMARK   18  A    between atoms: N_20  and  C_21
REMARK   19  A    between atoms: C_21  and  C_22
REMARK   20  A    between atoms: C_22  and  C_23
REMARK   21  A    between atoms: C_23  and  N_24
REMARK                            x       y       z     vdW  Elec       q    Type
REMARK                         _______ _______ _______ _____ _____    ______ ____
ROOT
ATOM      1  C   UNL     1       2.564   5.457  18.522  0.00  0.00    +0.000 C 
ENDROOT
BRANCH   1   2
ATOM      2  C   UNL     1       2.825   6.764  19.258  0.00  0.00    +0.000 C 
BRANCH   2   3
ATOM      3  N   UNL     1       1.747   7.695  19.031  0.00  0.00    +0.000 NA
ATOM      4  H   UNL     1       1.528   8.231  19.872  0.00  0.00    +0.000 HD
BRANCH   3   5
ATOM      5  C   UNL     1       2.095   8.602  17.937  0.00  0.00    +0.000 C 
BRANCH   5   6
ATOM      6  C   UNL     1       1.768  10.046  18.304  0.00  0.00    +0.000 C 
BRANCH   6   7
ATOM      7  C   UNL     1       0.253  10.219  18.404  0.00  0.00    +0.000 C 
BRANCH   7   8
ATOM      8  N   UNL     1      -0.218   9.796  19.720  0.00  0.00    +0.000 NA
ATOM      9  H   UNL     1       0.103   8.849  19.919  0.00  0.00    +0.000 HD
BRANCH   8  10
ATOM     10  C   UNL     1       0.261  10.709  20.754  0.00  0.00    +0.000 C 
BRANCH  10  11
ATOM     11  C   UNL     1      -0.350  10.335  22.103  0.00  0.00    +0.000 C 
BRANCH  11  12
ATOM     12  C   UNL     1       0.609   9.443  22.885  0.00  0.00    +0.000 C 
BRANCH  12  13
ATOM     13  N   UNL     1       1.485   8.714  21.976  0.00  0.00    +0.000 NA
ATOM     14  H   UNL     1       2.383   9.194  21.916  0.00  0.00    +0.000 HD
ATOM     15  H   UNL     1       1.087   8.732  21.038  0.00  0.00    +0.000 HD
ENDBRANCH  12  13
ENDBRANCH  11  12
ENDBRANCH  10  11
ENDBRANCH   8  10
ENDBRANCH   7   8
ENDBRANCH   6   7
ENDBRANCH   5   6
ENDBRANCH   3   5
ENDBRANCH   2   3
ENDBRANCH   1   2
BRANCH   1  16
ATOM     16  C   UNL     1       3.687   5.164  17.537  0.00  0.00    +0.000 C 
BRANCH  16  17
ATOM     17  N   UNL     1       4.941   5.819  17.963  0.00  0.00    +0.000 NA
ATOM     18  H   UNL     1       5.365   6.466  17.302  0.00  0.00    +0.000 HD
BRANCH  17  19
ATOM     19  S   UNL     1       6.093   4.784  18.659  0.00  0.00    +0.000 S 
ATOM     20  O   UNL     1       5.469   3.491  18.855  0.00  0.00    +0.000 OA
ATOM     21  O   UNL     1       6.724   5.503  19.740  0.00  0.00    +0.000 OA
BRANCH  19  22
ATOM     22  C   UNL     1       7.300   4.627  17.333  0.00  0.00    +0.000 C 
BRANCH  22  23
ATOM     23  C   UNL     1       6.645   3.953  16.133  0.00  0.00    +0.000 C 
BRANCH  23  24
ATOM     24  C   UNL     1       6.585   4.850  14.902  0.00  0.00    +0.000 C 
BRANCH  24  25
ATOM     25  C   UNL     1       5.669   4.226  13.847  0.00  0.00    +0.000 C 
BRANCH  25  26
ATOM     26  C   UNL     1       6.465   3.641  12.683  0.00  0.00    +0.000 C 
BRANCH  26  27
ATOM     27  C   UNL     1       5.549   2.891  11.715  0.00  0.00    +0.000 C 
BRANCH  27  29
ATOM     28  C   UNL     1       3.386   3.069  10.443  0.00  0.00    +0.000 C 
ATOM     29  C   UNL     1       4.160   3.522  11.670  0.00  0.00    +0.000 C 
ENDBRANCH  27  29
ENDBRANCH  26  27
ENDBRANCH  25  26
ENDBRANCH  24  25
ENDBRANCH  23  24
ENDBRANCH  22  23
ENDBRANCH  19  22
ENDBRANCH  17  19
ENDBRANCH  16  17
ENDBRANCH   1  16
TORSDOF 20
ENDMDL
MODEL 5
REMARK VINA RESULT:      -5.5      3.611      6.377
REMARK  Name = 
REMARK  21 active torsions:
REMARK  status: ('A' for Active; 'I' for Inactive)
REMARK    1  A    between atoms: C_1  and  C_2
REMARK    2  A    between atoms: C_2  and  C_3
REMARK    3  A    between atoms: C_3  and  C_4
REMARK    4  A    between atoms: C_4  and  C_5
REMARK    5  A    between atoms: C_5  and  C_6
REMARK    6  A    between atoms: C_6  and  C_7
REMARK    7  A    between atoms: C_7  and  C_8
REMARK    8  A    between atoms: C_8  and  S_9
REMARK    9  A    between atoms: S_9  and  N_12
REMARK   10  A    between atoms: N_12  and  C_13
REMARK   11  A    between atoms: C_13  and  C_14
REMARK   12  A    between atoms: C_14  and  C_15
REMARK   13  A    between atoms: C_15  and  N_16
REMARK   14  A    between atoms: N_16  and  C_17
REMARK   15  A    between atoms: C_17  and  C_18
REMARK   16  A    between atoms: C_18  and  C_19
REMARK   17  A    between atoms: C_19  and  N_20
REMARK   18  A    between atoms: N_20  and  C_21
REMARK   19  A    between atoms: C_21  and  C_22
REMARK   20  A    between atoms: C_22  and  C_23
REMARK   21  A    between atoms: C_23  and  N_24
REMARK                            x       y       z     vdW  Elec       q    Type
REMARK                         _______ _______ _______ _____ _____    ______ ____
ROOT
ATOM      1  C   UNL     1       5.859   4.826  19.581  0.00  0.00    +0.000 C 
ENDROOT
BRANCH   1   2
ATOM      2  C   UNL     1       4.949   3.823  18.884  0.00  0.00    +0.000 C 
BRANCH   2   3
ATOM      3  N   UNL     1       4.958   2.562  19.585  0.00  0.00    +0.000 NA
ATOM      4  H   UNL     1       4.502   2.633  20.495  0.00  0.00    +0.000 HD
BRANCH   3   5
ATOM      5  C   UNL     1       4.299   1.538  18.774  0.00  0.00    +0.000 C 
BRANCH   5   6
ATOM      6  C   UNL     1       2.782   1.636  18.904  0.00  0.00    +0.000 C 
BRANCH   6   7
ATOM      7  C   UNL     1       2.224   2.493  17.768  0.00  0.00    +0.000 C 
BRANCH   7   8
ATOM      8  N   UNL     1       1.003   3.167  18.197  0.00  0.00    +0.000 NA
ATOM      9  H   UNL     1       0.197   2.779  17.707  0.00  0.00    +0.000 HD
BRANCH   8  10
ATOM     10  C   UNL     1       0.818   3.027  19.639  0.00  0.00    +0.000 C 
BRANCH  10  11
ATOM     11  C   UNL     1       1.018   4.377  20.324  0.00  0.00    +0.000 C 
BRANCH  11  12
ATOM     12  C   UNL     1       2.202   4.308  21.284  0.00  0.00    +0.000 C 
BRANCH  12  13
ATOM     13  N   UNL     1       2.131   3.099  22.095  0.00  0.00    +0.000 NA
ATOM     14  H   UNL     1       2.407   2.296  21.529  0.00  0.00    +0.000 HD
ATOM     15  H   UNL     1       1.165   2.935  22.372  0.00  0.00    +0.000 HD
ENDBRANCH  12  13
ENDBRANCH  11  12
ENDBRANCH  10  11
ENDBRANCH   8  10
ENDBRANCH   7   8
ENDBRANCH   6   7
ENDBRANCH   5   6
ENDBRANCH   3   5
ENDBRANCH   2   3
ENDBRANCH   1   2
BRANCH   1  16
ATOM     16  C   UNL     1       7.100   5.094  18.742  0.00  0.00    +0.000 C 
BRANCH  16  17
ATOM     17  N   UNL     1       7.019   4.390  17.445  0.00  0.00    +0.000 NA
ATOM     18  H   UNL     1       7.638   3.593  17.320  0.00  0.00    +0.000 HD
BRANCH  17  19
ATOM     19  S   UNL     1       7.002   5.397  16.079  0.00  0.00    +0.000 S 
ATOM     20  O   UNL     1       7.574   4.656  14.972  0.00  0.00    +0.000 OA
ATOM     21  O   UNL     1       7.514   6.685  16.484  0.00  0.00    +0.000 OA
BRANCH  19  22
ATOM     22  C   UNL     1       5.239   5.584  15.777  0.00  0.00    +0.000 C 
BRANCH  22  23
ATOM     23  C   UNL     1       4.804   6.988  16.183  0.00  0.00    +0.000 C 
BRANCH  23  24
ATOM     24  C   UNL     1       4.208   7.049  17.584  0.00  0.00    +0.000 C 
BRANCH  24  25
ATOM     25  C   UNL     1       2.697   7.273  17.497  0.00  0.00    +0.000 C 
BRANCH  25  26
ATOM     26  C   UNL     1       2.219   8.303  18.518  0.00  0.00    +0.000 C 
BRANCH  26  27
ATOM     27  C   UNL     1       1.318   9.348  17.861  0.00  0.00    +0.000 C 
BRANCH  27  29
ATOM     28  C   UNL     1      -0.697  10.268  19.054  0.00  0.00    +0.000 C 
ATOM     29  C   UNL     1       0.810  10.360  18.885  0.00  0.00    +0.000 C 
ENDBRANCH  27  29
ENDBRANCH  26  27
ENDBRANCH  25  26
ENDBRANCH  24  25
ENDBRANCH  23  24
ENDBRANCH  22  23
ENDBRANCH  19  22
ENDBRANCH  17  19
ENDBRANCH  16  17
ENDBRANCH   1  16
TORSDOF 20
ENDMDL
MODEL 6
REMARK VINA RESULT:      -5.5      3.384      5.630
REMARK  Name = 
REMARK  21 active torsions:
REMARK  status: ('A' for Active; 'I' for Inactive)
REMARK    1  A    between atoms: C_1  and  C_2
REMARK    2  A    between atoms: C_2  and  C_3
REMARK    3  A    between atoms: C_3  and  C_4
REMARK    4  A    between atoms: C_4  and  C_5
REMARK    5  A    between atoms: C_5  and  C_6
REMARK    6  A    between atoms: C_6  and  C_7
REMARK    7  A    between atoms: C_7  and  C_8
REMARK    8  A    between atoms: C_8  and  S_9
REMARK    9  A    between atoms: S_9  and  N_12
REMARK   10  A    between atoms: N_12  and  C_13
REMARK   11  A    between atoms: C_13  and  C_14
REMARK   12  A    between atoms: C_14  and  C_15
REMARK   13  A    between atoms: C_15  and  N_16
REMARK   14  A    between atoms: N_16  and  C_17
REMARK   15  A    between atoms: C_17  and  C_18
REMARK   16  A    between atoms: C_18  and  C_19
REMARK   17  A    between atoms: C_19  and  N_20
REMARK   18  A    between atoms: N_20  and  C_21
REMARK   19  A    between atoms: C_21  and  C_22
REMARK   20  A    between atoms: C_22  and  C_23
REMARK   21  A    between atoms: C_23  and  N_24
REMARK                            x       y       z     vdW  Elec       q    Type
REMARK                         _______ _______ _______ _____ _____    ______ ____
ROOT
ATOM      1  C   UNL     1       2.267   8.097  18.210  0.00  0.00    +0.000 C 
ENDROOT
BRANCH   1   2
ATOM      2  C   UNL     1       1.924   9.579  18.136  0.00  0.00    +0.000 C 
BRANCH   2   3
ATOM      3  N   UNL     1       0.503   9.760  17.960  0.00  0.00    +0.000 NA
ATOM      4  H   UNL     1      -0.027   8.974  18.341  0.00  0.00    +0.000 HD
BRANCH   3   5
ATOM      5  C   UNL     1       0.077  11.006  18.597  0.00  0.00    +0.000 C 
BRANCH   5   6
ATOM      6  C   UNL     1      -0.989  10.738  19.654  0.00  0.00    +0.000 C 
BRANCH   6   7
ATOM      7  C   UNL     1      -1.856  11.983  19.837  0.00  0.00    +0.000 C 
BRANCH   7   8
ATOM      8  N   UNL     1      -2.566  12.290  18.599  0.00  0.00    +0.000 NA
ATOM      9  H   UNL     1      -2.054  11.916  17.800  0.00  0.00    +0.000 HD
BRANCH   8  10
ATOM     10  C   UNL     1      -3.914  11.731  18.628  0.00  0.00    +0.000 C 
BRANCH  10  11
ATOM     11  C   UNL     1      -4.022  10.577  17.634  0.00  0.00    +0.000 C 
BRANCH  11  12
ATOM     12  C   UNL     1      -3.886  11.100  16.207  0.00  0.00    +0.000 C 
BRANCH  12  13
ATOM     13  N   UNL     1      -2.481  11.198  15.831  0.00  0.00    +0.000 NA
ATOM     14  H   UNL     1      -1.943  10.503  16.349  0.00  0.00    +0.000 HD
ATOM     15  H   UNL     1      -2.120  12.108  16.113  0.00  0.00    +0.000 HD
ENDBRANCH  12  13
ENDBRANCH  11  12
ENDBRANCH  10  11
ENDBRANCH   8  10
ENDBRANCH   7   8
ENDBRANCH   6   7
ENDBRANCH   5   6
ENDBRANCH   3   5
ENDBRANCH   2   3
ENDBRANCH   1   2
BRANCH   1  16
ATOM     16  C   UNL     1       3.260   7.724  17.119  0.00  0.00    +0.000 C 
BRANCH  16  17
ATOM     17  N   UNL     1       4.379   6.936  17.675  0.00  0.00    +0.000 NA
ATOM     18  H   UNL     1       4.735   7.227  18.581  0.00  0.00    +0.000 HD
BRANCH  17  19
ATOM     19  S   UNL     1       5.634   6.599  16.582  0.00  0.00    +0.000 S 
ATOM     20  O   UNL     1       6.818   7.302  17.034  0.00  0.00    +0.000 OA
ATOM     21  O   UNL     1       5.105   6.765  15.250  0.00  0.00    +0.000 OA
BRANCH  19  22
ATOM     22  C   UNL     1       5.894   4.838  16.848  0.00  0.00    +0.000 C 
BRANCH  22  23
ATOM     23  C   UNL     1       4.590   4.092  16.586  0.00  0.00    +0.000 C 
BRANCH  23  24
ATOM     24  C   UNL     1       4.044   3.390  17.825  0.00  0.00    +0.000 C 
BRANCH  24  25
ATOM     25  C   UNL     1       2.568   3.746  18.016  0.00  0.00    +0.000 C 
BRANCH  25  26
ATOM     26  C   UNL     1       1.715   2.504  18.259  0.00  0.00    +0.000 C 
BRANCH  26  27
ATOM     27  C   UNL     1       0.623   2.782  19.293  0.00  0.00    +0.000 C 
BRANCH  27  29
ATOM     28  C   UNL     1       1.643   2.749  21.593  0.00  0.00    +0.000 C 
ATOM     29  C   UNL     1       1.160   3.624  20.448  0.00  0.00    +0.000 C 
ENDBRANCH  27  29
ENDBRANCH  26  27
ENDBRANCH  25  26
ENDBRANCH  24  25
ENDBRANCH  23  24
ENDBRANCH  22  23
ENDBRANCH  19  22
ENDBRANCH  17  19
ENDBRANCH  16  17
ENDBRANCH   1  16
TORSDOF 20
ENDMDL
MODEL 7
REMARK VINA RESULT:      -5.5      4.203      8.363
REMARK  Name = 
REMARK  21 active torsions:
REMARK  status: ('A' for Active; 'I' for Inactive)
REMARK    1  A    between atoms: C_1  and  C_2
REMARK    2  A    between atoms: C_2  and  C_3
REMARK    3  A    between atoms: C_3  and  C_4
REMARK    4  A    between atoms: C_4  and  C_5
REMARK    5  A    between atoms: C_5  and  C_6
REMARK    6  A    between atoms: C_6  and  C_7
REMARK    7  A    between atoms: C_7  and  C_8
REMARK    8  A    between atoms: C_8  and  S_9
REMARK    9  A    between atoms: S_9  and  N_12
REMARK   10  A    between atoms: N_12  and  C_13
REMARK   11  A    between atoms: C_13  and  C_14
REMARK   12  A    between atoms: C_14  and  C_15
REMARK   13  A    between atoms: C_15  and  N_16
REMARK   14  A    between atoms: N_16  and  C_17
REMARK   15  A    between atoms: C_17  and  C_18
REMARK   16  A    between atoms: C_18  and  C_19
REMARK   17  A    between atoms: C_19  and  N_20
REMARK   18  A    between atoms: N_20  and  C_21
REMARK   19  A    between atoms: C_21  and  C_22
REMARK   20  A    between atoms: C_22  and  C_23
REMARK   21  A    between atoms: C_23  and  N_24
REMARK                            x       y       z     vdW  Elec       q    Type
REMARK                         _______ _______ _______ _____ _____    ______ ____
ROOT
ATOM      1  C   UNL     1       1.652   3.682  17.808  0.00  0.00    +0.000 C 
ENDROOT
BRANCH   1   2
ATOM      2  C   UNL     1       3.034   3.213  17.371  0.00  0.00    +0.000 C 
BRANCH   2   3
ATOM      3  N   UNL     1       3.841   4.336  16.960  0.00  0.00    +0.000 NA
ATOM      4  H   UNL     1       3.821   4.464  15.948  0.00  0.00    +0.000 HD
BRANCH   3   5
ATOM      5  C   UNL     1       3.376   5.553  17.627  0.00  0.00    +0.000 C 
BRANCH   5   6
ATOM      6  C   UNL     1       4.334   6.711  17.370  0.00  0.00    +0.000 C 
BRANCH   6   7
ATOM      7  C   UNL     1       4.960   6.563  15.984  0.00  0.00    +0.000 C 
BRANCH   7   8
ATOM      8  N   UNL     1       6.411   6.443  16.095  0.00  0.00    +0.000 NA
ATOM      9  H   UNL     1       6.678   6.309  17.070  0.00  0.00    +0.000 HD
BRANCH   8  10
ATOM     10  C   UNL     1       6.896   5.324  15.292  0.00  0.00    +0.000 C 
BRANCH  10  11
ATOM     11  C   UNL     1       7.215   4.134  16.194  0.00  0.00    +0.000 C 
BRANCH  11  12
ATOM     12  C   UNL     1       7.590   4.620  17.590  0.00  0.00    +0.000 C 
BRANCH  12  13
ATOM     13  N   UNL     1       6.595   4.192  18.565  0.00  0.00    +0.000 NA
ATOM     14  H   UNL     1       7.051   3.642  19.294  0.00  0.00    +0.000 HD
ATOM     15  H   UNL     1       5.926   3.570  18.113  0.00  0.00    +0.000 HD
ENDBRANCH  12  13
ENDBRANCH  11  12
ENDBRANCH  10  11
ENDBRANCH   8  10
ENDBRANCH   7   8
ENDBRANCH   6   7
ENDBRANCH   5   6
ENDBRANCH   3   5
ENDBRANCH   2   3
ENDBRANCH   1   2
BRANCH   1  16
ATOM     16  C   UNL     1       0.967   2.613  18.648  0.00  0.00    +0.000 C 
BRANCH  16  17
ATOM     17  N   UNL     1       0.651   3.127  19.996  0.00  0.00    +0.000 NA
ATOM     18  H   UNL     1       0.215   4.045  20.044  0.00  0.00    +0.000 HD
BRANCH  17  19
ATOM     19  S   UNL     1       1.895   2.960  21.139  0.00  0.00    +0.000 S 
ATOM     20  O   UNL     1       2.958   2.186  20.530  0.00  0.00    +0.000 OA
ATOM     21  O   UNL     1       1.286   2.574  22.390  0.00  0.00    +0.000 OA
BRANCH  19  22
ATOM     22  C   UNL     1       2.468   4.657  21.316  0.00  0.00    +0.000 C 
BRANCH  22  23
ATOM     23  C   UNL     1       1.371   5.609  20.852  0.00  0.00    +0.000 C 
BRANCH  23  24
ATOM     24  C   UNL     1       1.908   6.806  20.075  0.00  0.00    +0.000 C 
BRANCH  24  25
ATOM     25  C   UNL     1       1.693   8.088  20.882  0.00  0.00    +0.000 C 
BRANCH  25  26
ATOM     26  C   UNL     1       0.289   8.154  21.476  0.00  0.00    +0.000 C 
BRANCH  26  27
ATOM     27  C   UNL     1      -0.400   9.469  21.111  0.00  0.00    +0.000 C 
BRANCH  27  29
ATOM     28  C   UNL     1       0.815  11.652  20.814  0.00  0.00    +0.000 C 
ATOM     29  C   UNL     1       0.475  10.310  20.185  0.00  0.00    +0.000 C 
ENDBRANCH  27  29
ENDBRANCH  26  27
ENDBRANCH  25  26
ENDBRANCH  24  25
ENDBRANCH  23  24
ENDBRANCH  22  23
ENDBRANCH  19  22
ENDBRANCH  17  19
ENDBRANCH  16  17
ENDBRANCH   1  16
TORSDOF 20
ENDMDL
MODEL 8
REMARK VINA RESULT:      -5.5      5.795      8.270
REMARK  Name = 
REMARK  21 active torsions:
REMARK  status: ('A' for Active; 'I' for Inactive)
REMARK    1  A    between atoms: C_1  and  C_2
REMARK    2  A    between atoms: C_2  and  C_3
REMARK    3  A    between atoms: C_3  and  C_4
REMARK    4  A    between atoms: C_4  and  C_5
REMARK    5  A    between atoms: C_5  and  C_6
REMARK    6  A    between atoms: C_6  and  C_7
REMARK    7  A    between atoms: C_7  and  C_8
REMARK    8  A    between atoms: C_8  and  S_9
REMARK    9  A    between atoms: S_9  and  N_12
REMARK   10  A    between atoms: N_12  and  C_13
REMARK   11  A    between atoms: C_13  and  C_14
REMARK   12  A    between atoms: C_14  and  C_15
REMARK   13  A    between atoms: C_15  and  N_16
REMARK   14  A    between atoms: N_16  and  C_17
REMARK   15  A    between atoms: C_17  and  C_18
REMARK   16  A    between atoms: C_18  and  C_19
REMARK   17  A    between atoms: C_19  and  N_20
REMARK   18  A    between atoms: N_20  and  C_21
REMARK   19  A    between atoms: C_21  and  C_22
REMARK   20  A    between atoms: C_22  and  C_23
REMARK   21  A    between atoms: C_23  and  N_24
REMARK                            x       y       z     vdW  Elec       q    Type
REMARK                         _______ _______ _______ _____ _____    ______ ____
ROOT
ATOM      1  C   UNL     1       7.440   6.594  17.792  0.00  0.00    +0.000 C 
ENDROOT
BRANCH   1   2
ATOM      2  C   UNL     1       7.672   8.065  17.474  0.00  0.00    +0.000 C 
BRANCH   2   3
ATOM      3  N   UNL     1       8.519   8.669  18.474  0.00  0.00    +0.000 NA
ATOM      4  H   UNL     1       9.466   8.290  18.445  0.00  0.00    +0.000 HD
BRANCH   3   5
ATOM      5  C   UNL     1       8.555  10.120  18.285  0.00  0.00    +0.000 C 
BRANCH   5   6
ATOM      6  C   UNL     1       9.900  10.690  18.723  0.00  0.00    +0.000 C 
BRANCH   6   7
ATOM      7  C   UNL     1       9.678  11.794  19.755  0.00  0.00    +0.000 C 
BRANCH   7   8
ATOM      8  N   UNL     1      10.905  12.036  20.508  0.00  0.00    +0.000 NA
ATOM      9  H   UNL     1      11.349  11.150  20.748  0.00  0.00    +0.000 HD
BRANCH   8  10
ATOM     10  C   UNL     1      11.830  12.859  19.733  0.00  0.00    +0.000 C 
BRANCH  10  11
ATOM     11  C   UNL     1      11.096  14.070  19.163  0.00  0.00    +0.000 C 
BRANCH  11  12
ATOM     12  C   UNL     1      11.542  14.324  17.726  0.00  0.00    +0.000 C 
BRANCH  12  13
ATOM     13  N   UNL     1      10.597  13.733  16.786  0.00  0.00    +0.000 NA
ATOM     14  H   UNL     1       9.647  13.863  17.136  0.00  0.00    +0.000 HD
ATOM     15  H   UNL     1      10.751  12.728  16.740  0.00  0.00    +0.000 HD
ENDBRANCH  12  13
ENDBRANCH  11  12
ENDBRANCH  10  11
ENDBRANCH   8  10
ENDBRANCH   7   8
ENDBRANCH   6   7
ENDBRANCH   5   6
ENDBRANCH   3   5
ENDBRANCH   2   3
ENDBRANCH   1   2
BRANCH   1  16
ATOM     16  C   UNL     1       6.480   5.975  16.786  0.00  0.00    +0.000 C 
BRANCH  16  17
ATOM     17  N   UNL     1       6.102   4.607  17.194  0.00  0.00    +0.000 NA
ATOM     18  H   UNL     1       5.979   3.926  16.448  0.00  0.00    +0.000 HD
BRANCH  17  19
ATOM     19  S   UNL     1       4.854   4.517  18.342  0.00  0.00    +0.000 S 
ATOM     20  O   UNL     1       4.360   5.861  18.568  0.00  0.00    +0.000 OA
ATOM     21  O   UNL     1       5.318   3.679  19.422  0.00  0.00    +0.000 OA
BRANCH  19  22
ATOM     22  C   UNL     1       3.592   3.599  17.446  0.00  0.00    +0.000 C 
BRANCH  22  23
ATOM     23  C   UNL     1       3.625   2.139  17.884  0.00  0.00    +0.000 C 
BRANCH  23  24
ATOM     24  C   UNL     1       2.531   1.790  18.886  0.00  0.00    +0.000 C 
BRANCH  24  25
ATOM     25  C   UNL     1       1.249   2.553  18.544  0.00  0.00    +0.000 C 
BRANCH  25  26
ATOM     26  C   UNL     1       0.661   3.248  19.768  0.00  0.00    +0.000 C 
BRANCH  26  27
ATOM     27  C   UNL     1       1.579   3.091  20.981  0.00  0.00    +0.000 C 
BRANCH  27  29
ATOM     28  C   UNL     1       1.616   5.591  20.701  0.00  0.00    +0.000 C 
ATOM     29  C   UNL     1       2.343   4.381  21.265  0.00  0.00    +0.000 C 
ENDBRANCH  27  29
ENDBRANCH  26  27
ENDBRANCH  25  26
ENDBRANCH  24  25
ENDBRANCH  23  24
ENDBRANCH  22  23
ENDBRANCH  19  22
ENDBRANCH  17  19
ENDBRANCH  16  17
ENDBRANCH   1  16
TORSDOF 20
ENDMDL
MODEL 9
REMARK VINA RESULT:      -5.4      2.279      3.359
REMARK  Name = 
REMARK  21 active torsions:
REMARK  status: ('A' for Active; 'I' for Inactive)
REMARK    1  A    between atoms: C_1  and  C_2
REMARK    2  A    between atoms: C_2  and  C_3
REMARK    3  A    between atoms: C_3  and  C_4
REMARK    4  A    between atoms: C_4  and  C_5
REMARK    5  A    between atoms: C_5  and  C_6
REMARK    6  A    between atoms: C_6  and  C_7
REMARK    7  A    between atoms: C_7  and  C_8
REMARK    8  A    between atoms: C_8  and  S_9
REMARK    9  A    between atoms: S_9  and  N_12
REMARK   10  A    between atoms: N_12  and  C_13
REMARK   11  A    between atoms: C_13  and  C_14
REMARK   12  A    between atoms: C_14  and  C_15
REMARK   13  A    between atoms: C_15  and  N_16
REMARK   14  A    between atoms: N_16  and  C_17
REMARK   15  A    between atoms: C_17  and  C_18
REMARK   16  A    between atoms: C_18  and  C_19
REMARK   17  A    between atoms: C_19  and  N_20
REMARK   18  A    between atoms: N_20  and  C_21
REMARK   19  A    between atoms: C_21  and  C_22
REMARK   20  A    between atoms: C_22  and  C_23
REMARK   21  A    between atoms: C_23  and  N_24
REMARK                            x       y       z     vdW  Elec       q    Type
REMARK                         _______ _______ _______ _____ _____    ______ ____
ROOT
ATOM      1  C   UNL     1       2.666   2.773  17.541  0.00  0.00    +0.000 C 
ENDROOT
BRANCH   1   2
ATOM      2  C   UNL     1       2.157   2.295  18.894  0.00  0.00    +0.000 C 
BRANCH   2   3
ATOM      3  N   UNL     1       1.230   3.250  19.450  0.00  0.00    +0.000 NA
ATOM      4  H   UNL     1       0.262   2.961  19.310  0.00  0.00    +0.000 HD
BRANCH   3   5
ATOM      5  C   UNL     1       1.497   3.431  20.877  0.00  0.00    +0.000 C 
BRANCH   5   6
ATOM      6  C   UNL     1       2.258   4.729  21.127  0.00  0.00    +0.000 C 
BRANCH   6   7
ATOM      7  C   UNL     1       1.459   5.907  20.572  0.00  0.00    +0.000 C 
BRANCH   7   8
ATOM      8  N   UNL     1       1.749   7.118  21.335  0.00  0.00    +0.000 NA
ATOM      9  H   UNL     1       2.556   7.597  20.937  0.00  0.00    +0.000 HD
BRANCH   8  10
ATOM     10  C   UNL     1       0.594   8.013  21.336  0.00  0.00    +0.000 C 
BRANCH  10  11
ATOM     11  C   UNL     1       1.061   9.466  21.383  0.00  0.00    +0.000 C 
BRANCH  11  12
ATOM     12  C   UNL     1       0.946  10.099  20.000  0.00  0.00    +0.000 C 
BRANCH  12  13
ATOM     13  N   UNL     1       1.352   9.151  18.969  0.00  0.00    +0.000 NA
ATOM     14  H   UNL     1       0.640   9.120  18.240  0.00  0.00    +0.000 HD
ATOM     15  H   UNL     1       1.394   8.215  19.369  0.00  0.00    +0.000 HD
ENDBRANCH  12  13
ENDBRANCH  11  12
ENDBRANCH  10  11
ENDBRANCH   8  10
ENDBRANCH   7   8
ENDBRANCH   6   7
ENDBRANCH   5   6
ENDBRANCH   3   5
ENDBRANCH   2   3
ENDBRANCH   1   2
BRANCH   1  16
ATOM     16  C   UNL     1       4.187   2.833  17.533  0.00  0.00    +0.000 C 
BRANCH  16  17
ATOM     17  N   UNL     1       4.700   3.299  18.838  0.00  0.00    +0.000 NA
ATOM     18  H   UNL     1       4.092   3.165  19.641  0.00  0.00    +0.000 HD
BRANCH  17  19
ATOM     19  S   UNL     1       5.397   4.847  18.826  0.00  0.00    +0.000 S 
ATOM     20  O   UNL     1       6.396   4.894  19.874  0.00  0.00    +0.000 OA
ATOM     21  O   UNL     1       4.320   5.806  18.750  0.00  0.00    +0.000 OA
BRANCH  19  22
ATOM     22  C   UNL     1       6.247   4.859  17.240  0.00  0.00    +0.000 C 
BRANCH  22  23
ATOM     23  C   UNL     1       5.685   5.982  16.376  0.00  0.00    +0.000 C 
BRANCH  23  24
ATOM     24  C   UNL     1       5.470   5.569  14.924  0.00  0.00    +0.000 C 
BRANCH  24  25
ATOM     25  C   UNL     1       6.686   4.789  14.419  0.00  0.00    +0.000 C 
BRANCH  25  26
ATOM     26  C   UNL     1       6.281   3.464  13.780  0.00  0.00    +0.000 C 
BRANCH  26  27
ATOM     27  C   UNL     1       6.298   3.563  12.255  0.00  0.00    +0.000 C 
BRANCH  27  29
ATOM     28  C   UNL     1       6.676   1.409  11.011  0.00  0.00    +0.000 C 
ATOM     29  C   UNL     1       5.640   2.343  11.615  0.00  0.00    +0.000 C 
ENDBRANCH  27  29
ENDBRANCH  26  27
ENDBRANCH  25  26
ENDBRANCH  24  25
ENDBRANCH  23  24
ENDBRANCH  22  23
ENDBRANCH  19  22
ENDBRANCH  17  19
ENDBRANCH  16  17
ENDBRANCH   1  16
TORSDOF 20
ENDMDL
