MODEL 1
REMARK VINA RESULT:      -7.0      0.000      0.000
REMARK  Name = 
REMARK  11 active torsions:
REMARK  status: ('A' for Active; 'I' for Inactive)
REMARK    1  A    between atoms: C_1  and  C_2
REMARK    2  A    between atoms: C_2  and  O_3
REMARK    3  A    between atoms: O_3  and  C_4
REMARK    4  A    between atoms: C_4  and  C_6
REMARK    5  A    between atoms: C_7  and  C_8
REMARK    6  A    between atoms: C_8  and  O_10
REMARK    7  A    between atoms: O_10  and  C_11
REMARK    8  A    between atoms: C_11  and  C_12
REMARK    9  A    between atoms: C_15  and  C_16
REMARK   10  A    between atoms: C_20  and  C_21
REMARK   11  A    between atoms: C_21  and  C_23
REMARK                            x       y       z     vdW  Elec       q    Type
REMARK                         _______ _______ _______ _____ _____    ______ ____
ROOT
ATOM      1  C   UNL     1       4.627   6.055  17.821  0.00  0.00    +0.000 A 
ATOM      2  C   UNL     1       3.524   6.184  18.717  0.00  0.00    +0.000 A 
ATOM      3  C   UNL     1       3.343   4.943  19.290  0.00  0.00    +0.000 A 
ATOM      4  C   UNL     1       2.382   4.453  20.229  0.00  0.00    +0.000 A 
ATOM      5  C   UNL     1       2.322   3.147  20.533  0.00  0.00    +0.000 A 
ATOM      6  C   UNL     1       1.327   2.594  21.510  0.00  0.00    +0.000 C 
ATOM      7  C   UNL     1       3.224   2.208  19.881  0.00  0.00    +0.000 A 
ATOM      8  C   UNL     1       4.140   2.666  19.003  0.00  0.00    +0.000 A 
ATOM      9  N   UNL     1       4.246   4.035  18.728  0.00  0.00    +0.000 N 
ATOM     10  C   UNL     1       5.148   4.750  17.930  0.00  0.00    +0.000 A 
ENDROOT
BRANCH   1  11
ATOM     11  C   UNL     1       5.161   7.120  16.969  0.00  0.00    +0.000 C 
ATOM     12  O   UNL     1       4.859   7.253  15.794  0.00  0.00    +0.000 OA
BRANCH  11  13
ATOM     13  O   UNL     1       5.992   7.949  17.665  0.00  0.00    +0.000 OA
BRANCH  13  15
ATOM     14  C   UNL     1       8.222   8.939  17.968  0.00  0.00    +0.000 C 
ATOM     15  C   UNL     1       7.391   7.808  17.384  0.00  0.00    +0.000 C 
ENDBRANCH  13  15
ENDBRANCH  11  13
ENDBRANCH   1  11
BRANCH   2  16
ATOM     16  C   UNL     1       2.662   7.338  18.948  0.00  0.00    +0.000 C 
ATOM     17  O   UNL     1       2.293   7.692  20.064  0.00  0.00    +0.000 OA
BRANCH  16  18
ATOM     18  O   UNL     1       2.201   7.871  17.784  0.00  0.00    +0.000 OA
BRANCH  18  19
ATOM     19  C   UNL     1       2.085   9.299  17.776  0.00  0.00    +0.000 C 
ATOM     20  C   UNL     1       0.620   9.646  17.978  0.00  0.00    +0.000 C 
ENDBRANCH  18  19
ENDBRANCH  16  18
ENDBRANCH   2  16
BRANCH  10  21
ATOM     21  C   UNL     1       6.422   4.348  17.331  0.00  0.00    +0.000 C 
ATOM     22  O   UNL     1       7.479   4.406  17.951  0.00  0.00    +0.000 OA
BRANCH  21  23
ATOM     23  C   UNL     1       6.490   3.754  15.958  0.00  0.00    +0.000 C 
ATOM     24  C   UNL     1       5.486   4.166  14.899  0.00  0.00    +0.000 C 
ATOM     25  C   UNL     1       6.895   4.663  14.804  0.00  0.00    +0.000 C 
ENDBRANCH  21  23
ENDBRANCH  10  21
TORSDOF 8
ENDMDL
MODEL 2
REMARK VINA RESULT:      -7.0      0.980      1.263
REMARK  Name = 
REMARK  11 active torsions:
REMARK  status: ('A' for Active; 'I' for Inactive)
REMARK    1  A    between atoms: C_1  and  C_2
REMARK    2  A    between atoms: C_2  and  O_3
REMARK    3  A    between atoms: O_3  and  C_4
REMARK    4  A    between atoms: C_4  and  C_6
REMARK    5  A    between atoms: C_7  and  C_8
REMARK    6  A    between atoms: C_8  and  O_10
REMARK    7  A    between atoms: O_10  and  C_11
REMARK    8  A    between atoms: C_11  and  C_12
REMARK    9  A    between atoms: C_15  and  C_16
REMARK   10  A    between atoms: C_20  and  C_21
REMARK   11  A    between atoms: C_21  and  C_23
REMARK                            x       y       z     vdW  Elec       q    Type
REMARK                         _______ _______ _______ _____ _____    ______ ____
ROOT
ATOM      1  C   UNL     1       4.599   6.059  17.290  0.00  0.00    +0.000 A 
ATOM      2  C   UNL     1       3.465   6.224  18.141  0.00  0.00    +0.000 A 
ATOM      3  C   UNL     1       3.154   4.968  18.617  0.00  0.00    +0.000 A 
ATOM      4  C   UNL     1       2.109   4.501  19.475  0.00  0.00    +0.000 A 
ATOM      5  C   UNL     1       1.927   3.188  19.685  0.00  0.00    +0.000 A 
ATOM      6  C   UNL     1       0.841   2.659  20.575  0.00  0.00    +0.000 C 
ATOM      7  C   UNL     1       2.782   2.220  19.013  0.00  0.00    +0.000 A 
ATOM      8  C   UNL     1       3.776   2.654  18.211  0.00  0.00    +0.000 A 
ATOM      9  N   UNL     1       4.008   4.025  18.037  0.00  0.00    +0.000 N 
ATOM     10  C   UNL     1       5.005   4.710  17.332  0.00  0.00    +0.000 A 
ENDROOT
BRANCH   1  11
ATOM     11  C   UNL     1       5.262   7.128  16.539  0.00  0.00    +0.000 C 
ATOM     12  O   UNL     1       5.121   7.290  15.337  0.00  0.00    +0.000 OA
BRANCH  11  13
ATOM     13  O   UNL     1       6.009   7.926  17.356  0.00  0.00    +0.000 OA
BRANCH  13  15
ATOM     14  C   UNL     1       8.214   8.813  17.984  0.00  0.00    +0.000 C 
ATOM     15  C   UNL     1       7.423   7.690  17.333  0.00  0.00    +0.000 C 
ENDBRANCH  13  15
ENDBRANCH  11  13
ENDBRANCH   1  11
BRANCH   2  16
ATOM     16  C   UNL     1       2.690   7.429  18.411  0.00  0.00    +0.000 C 
ATOM     17  O   UNL     1       2.464   8.289  17.566  0.00  0.00    +0.000 OA
BRANCH  16  18
ATOM     18  O   UNL     1       2.383   7.552  19.732  0.00  0.00    +0.000 OA
BRANCH  18  19
ATOM     19  C   UNL     1       1.411   8.559  20.036  0.00  0.00    +0.000 C 
ATOM     20  C   UNL     1       1.155   8.520  21.532  0.00  0.00    +0.000 C 
ENDBRANCH  18  19
ENDBRANCH  16  18
ENDBRANCH   2  16
BRANCH  10  21
ATOM     21  C   UNL     1       6.272   4.241  16.766  0.00  0.00    +0.000 C 
ATOM     22  O   UNL     1       7.315   4.252  17.410  0.00  0.00    +0.000 OA
BRANCH  21  23
ATOM     23  C   UNL     1       6.341   3.634  15.399  0.00  0.00    +0.000 C 
ATOM     24  C   UNL     1       5.407   4.111  14.304  0.00  0.00    +0.000 C 
ATOM     25  C   UNL     1       6.852   4.501  14.255  0.00  0.00    +0.000 C 
ENDBRANCH  21  23
ENDBRANCH  10  21
TORSDOF 8
ENDMDL
MODEL 3
REMARK VINA RESULT:      -6.7      2.136      4.909
REMARK  Name = 
REMARK  11 active torsions:
REMARK  status: ('A' for Active; 'I' for Inactive)
REMARK    1  A    between atoms: C_1  and  C_2
REMARK    2  A    between atoms: C_2  and  O_3
REMARK    3  A    between atoms: O_3  and  C_4
REMARK    4  A    between atoms: C_4  and  C_6
REMARK    5  A    between atoms: C_7  and  C_8
REMARK    6  A    between atoms: C_8  and  O_10
REMARK    7  A    between atoms: O_10  and  C_11
REMARK    8  A    between atoms: C_11  and  C_12
REMARK    9  A    between atoms: C_15  and  C_16
REMARK   10  A    between atoms: C_20  and  C_21
REMARK   11  A    between atoms: C_21  and  C_23
REMARK                            x       y       z     vdW  Elec       q    Type
REMARK                         _______ _______ _______ _____ _____    ______ ____
ROOT
ATOM      1  C   UNL     1       3.843   3.743  18.373  0.00  0.00    +0.000 A 
ATOM      2  C   UNL     1       2.556   4.344  18.510  0.00  0.00    +0.000 A 
ATOM      3  C   UNL     1       2.699   5.659  18.120  0.00  0.00    +0.000 A 
ATOM      4  C   UNL     1       1.776   6.750  18.074  0.00  0.00    +0.000 A 
ATOM      5  C   UNL     1       2.194   7.993  17.786  0.00  0.00    +0.000 A 
ATOM      6  C   UNL     1       1.257   9.163  17.731  0.00  0.00    +0.000 C 
ATOM      7  C   UNL     1       3.607   8.245  17.544  0.00  0.00    +0.000 A 
ATOM      8  C   UNL     1       4.482   7.218  17.575  0.00  0.00    +0.000 A 
ATOM      9  N   UNL     1       4.041   5.910  17.815  0.00  0.00    +0.000 N 
ATOM     10  C   UNL     1       4.728   4.690  17.821  0.00  0.00    +0.000 A 
ENDROOT
BRANCH   1  11
ATOM     11  C   UNL     1       4.173   2.355  18.702  0.00  0.00    +0.000 C 
ATOM     12  O   UNL     1       3.744   1.397  18.078  0.00  0.00    +0.000 OA
BRANCH  11  13
ATOM     13  O   UNL     1       5.040   2.282  19.754  0.00  0.00    +0.000 OA
BRANCH  13  15
ATOM     14  C   UNL     1       5.676   0.720  21.542  0.00  0.00    +0.000 C 
ATOM     15  C   UNL     1       4.577   1.545  20.893  0.00  0.00    +0.000 C 
ENDBRANCH  13  15
ENDBRANCH  11  13
ENDBRANCH   1  11
BRANCH   2  16
ATOM     16  C   UNL     1       1.327   3.767  19.043  0.00  0.00    +0.000 C 
ATOM     17  O   UNL     1       0.618   2.990  18.412  0.00  0.00    +0.000 OA
BRANCH  16  18
ATOM     18  O   UNL     1       0.992   4.306  20.247  0.00  0.00    +0.000 OA
BRANCH  18  19
ATOM     19  C   UNL     1       1.851   3.942  21.334  0.00  0.00    +0.000 C 
ATOM     20  C   UNL     1       1.444   2.556  21.804  0.00  0.00    +0.000 C 
ENDBRANCH  18  19
ENDBRANCH  16  18
ENDBRANCH   2  16
BRANCH  10  21
ATOM     21  C   UNL     1       6.063   4.342  17.329  0.00  0.00    +0.000 C 
ATOM     22  O   UNL     1       7.041   4.314  18.070  0.00  0.00    +0.000 OA
BRANCH  21  23
ATOM     23  C   UNL     1       6.290   3.911  15.914  0.00  0.00    +0.000 C 
ATOM     24  C   UNL     1       5.435   4.479  14.797  0.00  0.00    +0.000 C 
ATOM     25  C   UNL     1       6.856   4.932  14.935  0.00  0.00    +0.000 C 
ENDBRANCH  21  23
ENDBRANCH  10  21
TORSDOF 8
ENDMDL
MODEL 4
REMARK VINA RESULT:      -6.4      2.107      5.295
REMARK  Name = 
REMARK  11 active torsions:
REMARK  status: ('A' for Active; 'I' for Inactive)
REMARK    1  A    between atoms: C_1  and  C_2
REMARK    2  A    between atoms: C_2  and  O_3
REMARK    3  A    between atoms: O_3  and  C_4
REMARK    4  A    between atoms: C_4  and  C_6
REMARK    5  A    between atoms: C_7  and  C_8
REMARK    6  A    between atoms: C_8  and  O_10
REMARK    7  A    between atoms: O_10  and  C_11
REMARK    8  A    between atoms: C_11  and  C_12
REMARK    9  A    between atoms: C_15  and  C_16
REMARK   10  A    between atoms: C_20  and  C_21
REMARK   11  A    between atoms: C_21  and  C_23
REMARK                            x       y       z     vdW  Elec       q    Type
REMARK                         _______ _______ _______ _____ _____    ______ ____
ROOT
ATOM      1  C   UNL     1       4.683   4.915  18.131  0.00  0.00    +0.000 A 
ATOM      2  C   UNL     1       4.054   4.166  17.090  0.00  0.00    +0.000 A 
ATOM      3  C   UNL     1       4.940   4.154  16.034  0.00  0.00    +0.000 A 
ATOM      4  C   UNL     1       4.855   3.595  14.720  0.00  0.00    +0.000 A 
ATOM      5  C   UNL     1       5.807   3.839  13.806  0.00  0.00    +0.000 A 
ATOM      6  C   UNL     1       5.752   3.274  12.417  0.00  0.00    +0.000 C 
ATOM      7  C   UNL     1       6.928   4.706  14.140  0.00  0.00    +0.000 A 
ATOM      8  C   UNL     1       7.020   5.228  15.381  0.00  0.00    +0.000 A 
ATOM      9  N   UNL     1       6.060   4.926  16.356  0.00  0.00    +0.000 N 
ATOM     10  C   UNL     1       5.979   5.274  17.710  0.00  0.00    +0.000 A 
ENDROOT
BRANCH   1  11
ATOM     11  C   UNL     1       4.095   5.213  19.438  0.00  0.00    +0.000 C 
ATOM     12  O   UNL     1       3.958   4.377  20.319  0.00  0.00    +0.000 OA
BRANCH  11  13
ATOM     13  O   UNL     1       3.765   6.532  19.550  0.00  0.00    +0.000 OA
BRANCH  13  15
ATOM     14  C   UNL     1       2.389   7.927  18.066  0.00  0.00    +0.000 C 
ATOM     15  C   UNL     1       2.428   6.876  19.163  0.00  0.00    +0.000 C 
ENDBRANCH  13  15
ENDBRANCH  11  13
ENDBRANCH   1  11
BRANCH   2  16
ATOM     16  C   UNL     1       2.713   3.594  17.055  0.00  0.00    +0.000 C 
ATOM     17  O   UNL     1       1.690   4.271  17.065  0.00  0.00    +0.000 OA
BRANCH  16  18
ATOM     18  O   UNL     1       2.736   2.237  17.163  0.00  0.00    +0.000 OA
BRANCH  18  19
ATOM     19  C   UNL     1       2.998   1.739  18.480  0.00  0.00    +0.000 C 
ATOM     20  C   UNL     1       1.724   1.889  19.295  0.00  0.00    +0.000 C 
ENDBRANCH  18  19
ENDBRANCH  16  18
ENDBRANCH   2  16
BRANCH  10  21
ATOM     21  C   UNL     1       6.982   5.841  18.614  0.00  0.00    +0.000 C 
ATOM     22  O   UNL     1       7.034   5.533  19.801  0.00  0.00    +0.000 OA
BRANCH  21  23
ATOM     23  C   UNL     1       8.056   6.757  18.117  0.00  0.00    +0.000 C 
ATOM     24  C   UNL     1       7.692   8.077  17.466  0.00  0.00    +0.000 C 
ATOM     25  C   UNL     1       8.268   8.077  18.848  0.00  0.00    +0.000 C 
ENDBRANCH  21  23
ENDBRANCH  10  21
TORSDOF 8
ENDMDL
MODEL 5
REMARK VINA RESULT:      -6.3      1.955      4.352
REMARK  Name = 
REMARK  11 active torsions:
REMARK  status: ('A' for Active; 'I' for Inactive)
REMARK    1  A    between atoms: C_1  and  C_2
REMARK    2  A    between atoms: C_2  and  O_3
REMARK    3  A    between atoms: O_3  and  C_4
REMARK    4  A    between atoms: C_4  and  C_6
REMARK    5  A    between atoms: C_7  and  C_8
REMARK    6  A    between atoms: C_8  and  O_10
REMARK    7  A    between atoms: O_10  and  C_11
REMARK    8  A    between atoms: C_11  and  C_12
REMARK    9  A    between atoms: C_15  and  C_16
REMARK   10  A    between atoms: C_20  and  C_21
REMARK   11  A    between atoms: C_21  and  C_23
REMARK                            x       y       z     vdW  Elec       q    Type
REMARK                         _______ _______ _______ _____ _____    ______ ____
ROOT
ATOM      1  C   UNL     1       3.848   5.112  18.562  0.00  0.00    +0.000 A 
ATOM      2  C   UNL     1       2.770   5.527  19.401  0.00  0.00    +0.000 A 
ATOM      3  C   UNL     1       2.411   6.788  18.974  0.00  0.00    +0.000 A 
ATOM      4  C   UNL     1       1.429   7.714  19.445  0.00  0.00    +0.000 A 
ATOM      5  C   UNL     1       1.362   8.959  18.946  0.00  0.00    +0.000 A 
ATOM      6  C   UNL     1       0.348   9.960  19.416  0.00  0.00    +0.000 C 
ATOM      7  C   UNL     1       2.317   9.386  17.934  0.00  0.00    +0.000 A 
ATOM      8  C   UNL     1       3.239   8.514  17.477  0.00  0.00    +0.000 A 
ATOM      9  N   UNL     1       3.273   7.196  17.951  0.00  0.00    +0.000 N 
ATOM     10  C   UNL     1       4.068   6.103  17.584  0.00  0.00    +0.000 A 
ENDROOT
BRANCH   1  11
ATOM     11  C   UNL     1       4.569   3.842  18.669  0.00  0.00    +0.000 C 
ATOM     12  O   UNL     1       4.131   2.784  18.242  0.00  0.00    +0.000 OA
BRANCH  11  13
ATOM     13  O   UNL     1       5.787   4.005  19.260  0.00  0.00    +0.000 OA
BRANCH  13  15
ATOM     14  C   UNL     1       7.638   5.591  18.938  0.00  0.00    +0.000 C 
ATOM     15  C   UNL     1       6.219   5.361  19.432  0.00  0.00    +0.000 C 
ENDBRANCH  13  15
ENDBRANCH  11  13
ENDBRANCH   1  11
BRANCH   2  16
ATOM     16  C   UNL     1       2.190   4.845  20.552  0.00  0.00    +0.000 C 
ATOM     17  O   UNL     1       2.776   4.711  21.622  0.00  0.00    +0.000 OA
BRANCH  16  18
ATOM     18  O   UNL     1       1.003   4.253  20.249  0.00  0.00    +0.000 OA
BRANCH  18  19
ATOM     19  C   UNL     1       1.037   2.822  20.189  0.00  0.00    +0.000 C 
ATOM     20  C   UNL     1       0.744   2.410  18.757  0.00  0.00    +0.000 C 
ENDBRANCH  18  19
ENDBRANCH  16  18
ENDBRANCH   2  16
BRANCH  10  21
ATOM     21  C   UNL     1       4.937   5.899  16.424  0.00  0.00    +0.000 C 
ATOM     22  O   UNL     1       5.798   6.713  16.106  0.00  0.00    +0.000 OA
BRANCH  21  23
ATOM     23  C   UNL     1       4.884   4.639  15.617  0.00  0.00    +0.000 C 
ATOM     24  C   UNL     1       5.658   4.532  14.318  0.00  0.00    +0.000 C 
ATOM     25  C   UNL     1       6.148   3.793  15.525  0.00  0.00    +0.000 C 
ENDBRANCH  21  23
ENDBRANCH  10  21
TORSDOF 8
ENDMDL
MODEL 6
REMARK VINA RESULT:      -6.3      2.277      5.097
REMARK  Name = 
REMARK  11 active torsions:
REMARK  status: ('A' for Active; 'I' for Inactive)
REMARK    1  A    between atoms: C_1  and  C_2
REMARK    2  A    between atoms: C_2  and  O_3
REMARK    3  A    between atoms: O_3  and  C_4
REMARK    4  A    between atoms: C_4  and  C_6
REMARK    5  A    between atoms: C_7  and  C_8
REMARK    6  A    between atoms: C_8  and  O_10
REMARK    7  A    between atoms: O_10  and  C_11
REMARK    8  A    between atoms: C_11  and  C_12
REMARK    9  A    between atoms: C_15  and  C_16
REMARK   10  A    between atoms: C_20  and  C_21
REMARK   11  A    between atoms: C_21  and  C_23
REMARK                            x       y       z     vdW  Elec       q    Type
REMARK                         _______ _______ _______ _____ _____    ______ ____
ROOT
ATOM      1  C   UNL     1       3.746   3.772  18.339  0.00  0.00    +0.000 A 
ATOM      2  C   UNL     1       2.485   4.389  18.598  0.00  0.00    +0.000 A 
ATOM      3  C   UNL     1       2.603   5.699  18.185  0.00  0.00    +0.000 A 
ATOM      4  C   UNL     1       1.691   6.799  18.222  0.00  0.00    +0.000 A 
ATOM      5  C   UNL     1       2.090   8.035  17.884  0.00  0.00    +0.000 A 
ATOM      6  C   UNL     1       1.164   9.216  17.913  0.00  0.00    +0.000 C 
ATOM      7  C   UNL     1       3.475   8.271  17.501  0.00  0.00    +0.000 A 
ATOM      8  C   UNL     1       4.338   7.235  17.453  0.00  0.00    +0.000 A 
ATOM      9  N   UNL     1       3.910   5.933  17.747  0.00  0.00    +0.000 N 
ATOM     10  C   UNL     1       4.582   4.706  17.694  0.00  0.00    +0.000 A 
ENDROOT
BRANCH   1  11
ATOM     11  C   UNL     1       4.094   2.383  18.645  0.00  0.00    +0.000 C 
ATOM     12  O   UNL     1       3.785   1.441  17.931  0.00  0.00    +0.000 OA
BRANCH  11  13
ATOM     13  O   UNL     1       4.828   2.291  19.791  0.00  0.00    +0.000 OA
BRANCH  13  15
ATOM     14  C   UNL     1       5.581   0.971  21.723  0.00  0.00    +0.000 C 
ATOM     15  C   UNL     1       4.991   0.970  20.323  0.00  0.00    +0.000 C 
ENDBRANCH  13  15
ENDBRANCH  11  13
ENDBRANCH   1  11
BRANCH   2  16
ATOM     16  C   UNL     1       1.310   3.828  19.255  0.00  0.00    +0.000 C 
ATOM     17  O   UNL     1       0.520   3.074  18.696  0.00  0.00    +0.000 OA
BRANCH  16  18
ATOM     18  O   UNL     1       1.118   4.357  20.494  0.00  0.00    +0.000 OA
BRANCH  18  19
ATOM     19  C   UNL     1       2.088   3.968  21.475  0.00  0.00    +0.000 C 
ATOM     20  C   UNL     1       1.852   2.504  21.805  0.00  0.00    +0.000 C 
ENDBRANCH  18  19
ENDBRANCH  16  18
ENDBRANCH   2  16
BRANCH  10  21
ATOM     21  C   UNL     1       5.858   4.340  17.076  0.00  0.00    +0.000 C 
ATOM     22  O   UNL     1       5.916   3.811  15.970  0.00  0.00    +0.000 OA
BRANCH  21  23
ATOM     23  C   UNL     1       7.167   4.678  17.720  0.00  0.00    +0.000 C 
ATOM     24  C   UNL     1       7.566   6.127  17.921  0.00  0.00    +0.000 C 
ATOM     25  C   UNL     1       7.141   5.314  19.104  0.00  0.00    +0.000 C 
ENDBRANCH  21  23
ENDBRANCH  10  21
TORSDOF 8
ENDMDL
MODEL 7
REMARK VINA RESULT:      -6.2      1.658      4.446
REMARK  Name = 
REMARK  11 active torsions:
REMARK  status: ('A' for Active; 'I' for Inactive)
REMARK    1  A    between atoms: C_1  and  C_2
REMARK    2  A    between atoms: C_2  and  O_3
REMARK    3  A    between atoms: O_3  and  C_4
REMARK    4  A    between atoms: C_4  and  C_6
REMARK    5  A    between atoms: C_7  and  C_8
REMARK    6  A    between atoms: C_8  and  O_10
REMARK    7  A    between atoms: O_10  and  C_11
REMARK    8  A    between atoms: C_11  and  C_12
REMARK    9  A    between atoms: C_15  and  C_16
REMARK   10  A    between atoms: C_20  and  C_21
REMARK   11  A    between atoms: C_21  and  C_23
REMARK                            x       y       z     vdW  Elec       q    Type
REMARK                         _______ _______ _______ _____ _____    ______ ____
ROOT
ATOM      1  C   UNL     1       4.954   4.802  17.795  0.00  0.00    +0.000 A 
ATOM      2  C   UNL     1       4.683   6.204  17.761  0.00  0.00    +0.000 A 
ATOM      3  C   UNL     1       3.680   6.427  18.680  0.00  0.00    +0.000 A 
ATOM      4  C   UNL     1       2.978   7.612  19.061  0.00  0.00    +0.000 A 
ATOM      5  C   UNL     1       1.926   7.551  19.893  0.00  0.00    +0.000 A 
ATOM      6  C   UNL     1       1.161   8.772  20.314  0.00  0.00    +0.000 C 
ATOM      7  C   UNL     1       1.472   6.262  20.395  0.00  0.00    +0.000 A 
ATOM      8  C   UNL     1       2.138   5.141  20.048  0.00  0.00    +0.000 A 
ATOM      9  N   UNL     1       3.272   5.207  19.229  0.00  0.00    +0.000 N 
ATOM     10  C   UNL     1       4.161   4.213  18.800  0.00  0.00    +0.000 A 
ENDROOT
BRANCH   1  11
ATOM     11  C   UNL     1       5.934   4.104  16.959  0.00  0.00    +0.000 C 
ATOM     12  O   UNL     1       7.134   4.109  17.187  0.00  0.00    +0.000 OA
BRANCH  11  13
ATOM     13  O   UNL     1       5.331   3.429  15.938  0.00  0.00    +0.000 OA
BRANCH  13  15
ATOM     14  C   UNL     1       6.382   3.983  13.786  0.00  0.00    +0.000 C 
ATOM     15  C   UNL     1       5.187   4.155  14.711  0.00  0.00    +0.000 C 
ENDBRANCH  13  15
ENDBRANCH  11  13
ENDBRANCH   1  11
BRANCH   2  16
ATOM     16  C   UNL     1       5.247   7.224  16.885  0.00  0.00    +0.000 C 
ATOM     17  O   UNL     1       5.066   7.246  15.671  0.00  0.00    +0.000 OA
BRANCH  16  18
ATOM     18  O   UNL     1       6.108   8.045  17.546  0.00  0.00    +0.000 OA
BRANCH  18  19
ATOM     19  C   UNL     1       7.485   7.658  17.480  0.00  0.00    +0.000 C 
ATOM     20  C   UNL     1       8.317   8.803  18.032  0.00  0.00    +0.000 C 
ENDBRANCH  18  19
ENDBRANCH  16  18
ENDBRANCH   2  16
BRANCH  10  21
ATOM     21  C   UNL     1       4.355   2.838  19.265  0.00  0.00    +0.000 C 
ATOM     22  O   UNL     1       5.190   2.552  20.117  0.00  0.00    +0.000 OA
BRANCH  21  23
ATOM     23  C   UNL     1       3.479   1.720  18.792  0.00  0.00    +0.000 C 
ATOM     24  C   UNL     1       1.981   1.778  19.015  0.00  0.00    +0.000 C 
ATOM     25  C   UNL     1       2.525   1.997  17.637  0.00  0.00    +0.000 C 
ENDBRANCH  21  23
ENDBRANCH  10  21
TORSDOF 8
ENDMDL
MODEL 8
REMARK VINA RESULT:      -6.2      2.505      5.866
REMARK  Name = 
REMARK  11 active torsions:
REMARK  status: ('A' for Active; 'I' for Inactive)
REMARK    1  A    between atoms: C_1  and  C_2
REMARK    2  A    between atoms: C_2  and  O_3
REMARK    3  A    between atoms: O_3  and  C_4
REMARK    4  A    between atoms: C_4  and  C_6
REMARK    5  A    between atoms: C_7  and  C_8
REMARK    6  A    between atoms: C_8  and  O_10
REMARK    7  A    between atoms: O_10  and  C_11
REMARK    8  A    between atoms: C_11  and  C_12
REMARK    9  A    between atoms: C_15  and  C_16
REMARK   10  A    between atoms: C_20  and  C_21
REMARK   11  A    between atoms: C_21  and  C_23
REMARK                            x       y       z     vdW  Elec       q    Type
REMARK                         _______ _______ _______ _____ _____    ______ ____
ROOT
ATOM      1  C   UNL     1       5.084   4.334  18.180  0.00  0.00    +0.000 A 
ATOM      2  C   UNL     1       6.282   4.943  17.698  0.00  0.00    +0.000 A 
ATOM      3  C   UNL     1       6.253   4.819  16.325  0.00  0.00    +0.000 A 
ATOM      4  C   UNL     1       7.182   5.204  15.309  0.00  0.00    +0.000 A 
ATOM      5  C   UNL     1       6.992   4.844  14.030  0.00  0.00    +0.000 A 
ATOM      6  C   UNL     1       7.946   5.226  12.936  0.00  0.00    +0.000 C 
ATOM      7  C   UNL     1       5.842   4.027  13.670  0.00  0.00    +0.000 A 
ATOM      8  C   UNL     1       4.955   3.669  14.622  0.00  0.00    +0.000 A 
ATOM      9  N   UNL     1       5.118   4.094  15.947  0.00  0.00    +0.000 N 
ATOM     10  C   UNL     1       4.309   3.923  17.077  0.00  0.00    +0.000 A 
ENDROOT
BRANCH   1  11
ATOM     11  C   UNL     1       4.702   4.207  19.589  0.00  0.00    +0.000 C 
ATOM     12  O   UNL     1       5.179   3.369  20.339  0.00  0.00    +0.000 OA
BRANCH  11  13
ATOM     13  O   UNL     1       3.792   5.157  19.949  0.00  0.00    +0.000 OA
BRANCH  13  15
ATOM     14  C   UNL     1       1.376   5.027  20.386  0.00  0.00    +0.000 C 
ATOM     15  C   UNL     1       2.785   4.734  20.877  0.00  0.00    +0.000 C 
ENDBRANCH  13  15
ENDBRANCH  11  13
ENDBRANCH   1  11
BRANCH   2  16
ATOM     16  C   UNL     1       7.393   5.507  18.456  0.00  0.00    +0.000 C 
ATOM     17  O   UNL     1       7.634   5.208  19.621  0.00  0.00    +0.000 OA
BRANCH  16  18
ATOM     18  O   UNL     1       8.023   6.501  17.772  0.00  0.00    +0.000 OA
BRANCH  18  19
ATOM     19  C   UNL     1       8.329   7.667  18.546  0.00  0.00    +0.000 C 
ATOM     20  C   UNL     1       7.869   8.881  17.756  0.00  0.00    +0.000 C 
ENDBRANCH  18  19
ENDBRANCH  16  18
ENDBRANCH   2  16
BRANCH  10  21
ATOM     21  C   UNL     1       2.920   3.477  17.201  0.00  0.00    +0.000 C 
ATOM     22  O   UNL     1       1.974   4.229  16.990  0.00  0.00    +0.000 OA
BRANCH  21  23
ATOM     23  C   UNL     1       2.580   2.050  17.502  0.00  0.00    +0.000 C 
ATOM     24  C   UNL     1       3.477   1.226  18.404  0.00  0.00    +0.000 C 
ATOM     25  C   UNL     1       2.155   1.699  18.923  0.00  0.00    +0.000 C 
ENDBRANCH  21  23
ENDBRANCH  10  21
TORSDOF 8
ENDMDL
MODEL 9
REMARK VINA RESULT:      -6.1      1.950      4.817
REMARK  Name = 
REMARK  11 active torsions:
REMARK  status: ('A' for Active; 'I' for Inactive)
REMARK    1  A    between atoms: C_1  and  C_2
REMARK    2  A    between atoms: C_2  and  O_3
REMARK    3  A    between atoms: O_3  and  C_4
REMARK    4  A    between atoms: C_4  and  C_6
REMARK    5  A    between atoms: C_7  and  C_8
REMARK    6  A    between atoms: C_8  and  O_10
REMARK    7  A    between atoms: O_10  and  C_11
REMARK    8  A    between atoms: C_11  and  C_12
REMARK    9  A    between atoms: C_15  and  C_16
REMARK   10  A    between atoms: C_20  and  C_21
REMARK   11  A    between atoms: C_21  and  C_23
REMARK                            x       y       z     vdW  Elec       q    Type
REMARK                         _______ _______ _______ _____ _____    ______ ____
ROOT
ATOM      1  C   UNL     1       4.008   5.386  18.686  0.00  0.00    +0.000 A 
ATOM      2  C   UNL     1       2.812   5.724  19.388  0.00  0.00    +0.000 A 
ATOM      3  C   UNL     1       2.422   6.959  18.914  0.00  0.00    +0.000 A 
ATOM      4  C   UNL     1       1.329   7.815  19.258  0.00  0.00    +0.000 A 
ATOM      5  C   UNL     1       1.237   9.052  18.747  0.00  0.00    +0.000 A 
ATOM      6  C   UNL     1       0.109   9.981  19.087  0.00  0.00    +0.000 C 
ATOM      7  C   UNL     1       2.275   9.547  17.853  0.00  0.00    +0.000 A 
ATOM      8  C   UNL     1       3.303   8.741  17.516  0.00  0.00    +0.000 A 
ATOM      9  N   UNL     1       3.370   7.427  17.999  0.00  0.00    +0.000 N 
ATOM     10  C   UNL     1       4.276   6.392  17.736  0.00  0.00    +0.000 A 
ENDROOT
BRANCH   1  11
ATOM     11  C   UNL     1       4.797   4.168  18.886  0.00  0.00    +0.000 C 
ATOM     12  O   UNL     1       5.950   4.174  19.289  0.00  0.00    +0.000 OA
BRANCH  11  13
ATOM     13  O   UNL     1       4.068   3.048  18.607  0.00  0.00    +0.000 OA
BRANCH  13  15
ATOM     14  C   UNL     1       4.314   1.949  20.792  0.00  0.00    +0.000 C 
ATOM     15  C   UNL     1       4.478   1.853  19.284  0.00  0.00    +0.000 C 
ENDBRANCH  13  15
ENDBRANCH  11  13
ENDBRANCH   1  11
BRANCH   2  16
ATOM     16  C   UNL     1       2.147   5.002  20.466  0.00  0.00    +0.000 C 
ATOM     17  O   UNL     1       2.652   4.821  21.569  0.00  0.00    +0.000 OA
BRANCH  16  18
ATOM     18  O   UNL     1       0.982   4.432  20.054  0.00  0.00    +0.000 OA
BRANCH  18  19
ATOM     19  C   UNL     1       0.925   3.007  20.188  0.00  0.00    +0.000 C 
ATOM     20  C   UNL     1       0.766   2.415  18.798  0.00  0.00    +0.000 C 
ENDBRANCH  18  19
ENDBRANCH  16  18
ENDBRANCH   2  16
BRANCH  10  21
ATOM     21  C   UNL     1       5.289   6.250  16.689  0.00  0.00    +0.000 C 
ATOM     22  O   UNL     1       6.363   6.842  16.740  0.00  0.00    +0.000 OA
BRANCH  21  23
ATOM     23  C   UNL     1       5.107   5.301  15.545  0.00  0.00    +0.000 C 
ATOM     24  C   UNL     1       6.282   4.947  14.655  0.00  0.00    +0.000 C 
ATOM     25  C   UNL     1       5.775   3.935  15.635  0.00  0.00    +0.000 C 
ENDBRANCH  21  23
ENDBRANCH  10  21
TORSDOF 8
ENDMDL
