MODEL 1
REMARK VINA RESULT:      -7.2      0.000      0.000
REMARK  Name = 
REMARK  8 active torsions:
REMARK  status: ('A' for Active; 'I' for Inactive)
REMARK    1  A    between atoms: C_1  and  O_2
REMARK    2  A    between atoms: O_2  and  C_3
REMARK    3  A    between atoms: C_6  and  C_7
REMARK    4  A    between atoms: C_7  and  C_9
REMARK    5  A    between atoms: C_10  and  C_11
REMARK    6  A    between atoms: C_14  and  O_15
REMARK    7  A    between atoms: C_16  and  O_17
REMARK    8  A    between atoms: O_17  and  C_18
REMARK                            x       y       z     vdW  Elec       q    Type
REMARK                         _______ _______ _______ _____ _____    ______ ____
ROOT
ATOM      1  C   UNL     1       8.029   7.924  18.036  0.00  0.00    +0.000 C 
ATOM      2  C   UNL     1       7.998   9.220  17.672  0.00  0.00    +0.000 C 
ENDROOT
BRANCH   2   3
ATOM      3  C   UNL     1       8.803  10.237  18.368  0.00  0.00    +0.000 A 
ATOM      4  C   UNL     1       9.225  10.030  19.686  0.00  0.00    +0.000 A 
ATOM      5  C   UNL     1       9.968  11.009  20.350  0.00  0.00    +0.000 A 
ATOM      6  C   UNL     1      10.283  12.203  19.699  0.00  0.00    +0.000 A 
ATOM      7  C   UNL     1       9.854  12.443  18.390  0.00  0.00    +0.000 A 
ATOM      8  C   UNL     1       9.110  11.456  17.741  0.00  0.00    +0.000 A 
BRANCH   6   9
ATOM      9  O   UNL     1      11.016  13.161  20.344  0.00  0.00    +0.000 OA
ATOM     10  H   UNL     1      11.903  13.201  19.955  0.00  0.00    +0.000 HD
ENDBRANCH   6   9
BRANCH   7  11
ATOM     11  O   UNL     1      10.196  13.648  17.837  0.00  0.00    +0.000 OA
ATOM     12  C   UNL     1      11.262  13.651  16.893  0.00  0.00    +0.000 C 
ENDBRANCH   7  11
ENDBRANCH   2   3
BRANCH   1  13
ATOM     13  C   UNL     1       7.283   6.884  17.281  0.00  0.00    +0.000 C 
ATOM     14  O   UNL     1       7.747   6.396  16.245  0.00  0.00    +0.000 OA
BRANCH  13  18
ATOM     15  C   UNL     1       3.556   5.327  18.802  0.00  0.00    +0.000 A 
ATOM     16  C   UNL     1       4.779   4.898  19.311  0.00  0.00    +0.000 A 
ATOM     17  C   UNL     1       5.978   5.436  18.825  0.00  0.00    +0.000 A 
ATOM     18  C   UNL     1       5.971   6.404  17.810  0.00  0.00    +0.000 A 
ATOM     19  C   UNL     1       4.736   6.847  17.318  0.00  0.00    +0.000 A 
ATOM     20  C   UNL     1       3.537   6.305  17.806  0.00  0.00    +0.000 A 
BRANCH  15  22
ATOM     21  C   UNL     1       2.342   4.835  20.753  0.00  0.00    +0.000 C 
ATOM     22  O   UNL     1       2.438   4.747  19.335  0.00  0.00    +0.000 OA
ENDBRANCH  15  22
ENDBRANCH  13  18
ENDBRANCH   1  13
TORSDOF 6
ENDMDL
MODEL 2
REMARK VINA RESULT:      -7.2      0.487      1.157
REMARK  Name = 
REMARK  8 active torsions:
REMARK  status: ('A' for Active; 'I' for Inactive)
REMARK    1  A    between atoms: C_1  and  O_2
REMARK    2  A    between atoms: O_2  and  C_3
REMARK    3  A    between atoms: C_6  and  C_7
REMARK    4  A    between atoms: C_7  and  C_9
REMARK    5  A    between atoms: C_10  and  C_11
REMARK    6  A    between atoms: C_14  and  O_15
REMARK    7  A    between atoms: C_16  and  O_17
REMARK    8  A    between atoms: O_17  and  C_18
REMARK                            x       y       z     vdW  Elec       q    Type
REMARK                         _______ _______ _______ _____ _____    ______ ____
ROOT
ATOM      1  C   UNL     1       8.004   7.950  18.055  0.00  0.00    +0.000 C 
ATOM      2  C   UNL     1       8.029   9.235  17.655  0.00  0.00    +0.000 C 
ENDROOT
BRANCH   2   3
ATOM      3  C   UNL     1       8.830  10.248  18.361  0.00  0.00    +0.000 A 
ATOM      4  C   UNL     1       9.207  10.053  19.695  0.00  0.00    +0.000 A 
ATOM      5  C   UNL     1       9.946  11.029  20.368  0.00  0.00    +0.000 A 
ATOM      6  C   UNL     1      10.302  12.208  19.710  0.00  0.00    +0.000 A 
ATOM      7  C   UNL     1       9.919  12.436  18.385  0.00  0.00    +0.000 A 
ATOM      8  C   UNL     1       9.178  11.452  17.727  0.00  0.00    +0.000 A 
BRANCH   6   9
ATOM      9  O   UNL     1      11.032  13.162  20.365  0.00  0.00    +0.000 OA
ATOM     10  H   UNL     1      10.998  13.991  19.864  0.00  0.00    +0.000 HD
ENDBRANCH   6   9
BRANCH   7  11
ATOM     11  O   UNL     1      10.300  13.627  17.826  0.00  0.00    +0.000 OA
ATOM     12  C   UNL     1      11.317  13.582  16.832  0.00  0.00    +0.000 C 
ENDBRANCH   7  11
ENDBRANCH   2   3
BRANCH   1  13
ATOM     13  C   UNL     1       7.264   6.911  17.293  0.00  0.00    +0.000 C 
ATOM     14  O   UNL     1       7.720   6.452  16.239  0.00  0.00    +0.000 OA
BRANCH  13  18
ATOM     15  C   UNL     1       3.467   5.596  18.867  0.00  0.00    +0.000 A 
ATOM     16  C   UNL     1       3.537   6.523  17.829  0.00  0.00    +0.000 A 
ATOM     17  C   UNL     1       4.778   6.915  17.311  0.00  0.00    +0.000 A 
ATOM     18  C   UNL     1       5.971   6.396  17.835  0.00  0.00    +0.000 A 
ATOM     19  C   UNL     1       5.892   5.449  18.863  0.00  0.00    +0.000 A 
ATOM     20  C   UNL     1       4.647   5.058  19.380  0.00  0.00    +0.000 A 
BRANCH  15  22
ATOM     21  C   UNL     1       1.765   3.976  18.926  0.00  0.00    +0.000 C 
ATOM     22  O   UNL     1       2.214   5.272  19.308  0.00  0.00    +0.000 OA
ENDBRANCH  15  22
ENDBRANCH  13  18
ENDBRANCH   1  13
TORSDOF 6
ENDMDL
MODEL 3
REMARK VINA RESULT:      -7.0      6.520      9.169
REMARK  Name = 
REMARK  8 active torsions:
REMARK  status: ('A' for Active; 'I' for Inactive)
REMARK    1  A    between atoms: C_1  and  O_2
REMARK    2  A    between atoms: O_2  and  C_3
REMARK    3  A    between atoms: C_6  and  C_7
REMARK    4  A    between atoms: C_7  and  C_9
REMARK    5  A    between atoms: C_10  and  C_11
REMARK    6  A    between atoms: C_14  and  O_15
REMARK    7  A    between atoms: C_16  and  O_17
REMARK    8  A    between atoms: O_17  and  C_18
REMARK                            x       y       z     vdW  Elec       q    Type
REMARK                         _______ _______ _______ _____ _____    ______ ____
ROOT
ATOM      1  C   UNL     1       2.413   7.473  18.916  0.00  0.00    +0.000 C 
ATOM      2  C   UNL     1       2.194   6.448  18.070  0.00  0.00    +0.000 C 
ENDROOT
BRANCH   2   3
ATOM      3  C   UNL     1       2.781   5.118  18.300  0.00  0.00    +0.000 A 
ATOM      4  C   UNL     1       3.477   4.462  17.279  0.00  0.00    +0.000 A 
ATOM      5  C   UNL     1       4.010   3.188  17.494  0.00  0.00    +0.000 A 
ATOM      6  C   UNL     1       3.839   2.564  18.731  0.00  0.00    +0.000 A 
ATOM      7  C   UNL     1       3.129   3.190  19.760  0.00  0.00    +0.000 A 
ATOM      8  C   UNL     1       2.600   4.461  19.528  0.00  0.00    +0.000 A 
BRANCH   6   9
ATOM      9  O   UNL     1       4.366   1.320  18.948  0.00  0.00    +0.000 OA
ATOM     10  H   UNL     1       3.665   0.657  18.864  0.00  0.00    +0.000 HD
ENDBRANCH   6   9
BRANCH   7  11
ATOM     11  O   UNL     1       2.998   2.495  20.934  0.00  0.00    +0.000 OA
ATOM     12  C   UNL     1       1.759   2.616  21.625  0.00  0.00    +0.000 C 
ENDBRANCH   7  11
ENDBRANCH   2   3
BRANCH   1  13
ATOM     13  C   UNL     1       1.754   8.791  18.731  0.00  0.00    +0.000 C 
ATOM     14  O   UNL     1       1.749   9.350  17.629  0.00  0.00    +0.000 OA
BRANCH  13  18
ATOM     15  C   UNL     1      -0.313  10.454  22.136  0.00  0.00    +0.000 A 
ATOM     16  C   UNL     1       0.469   9.308  22.255  0.00  0.00    +0.000 A 
ATOM     17  C   UNL     1       1.157   8.800  21.145  0.00  0.00    +0.000 A 
ATOM     18  C   UNL     1       1.059   9.424  19.893  0.00  0.00    +0.000 A 
ATOM     19  C   UNL     1       0.287  10.588  19.785  0.00  0.00    +0.000 A 
ATOM     20  C   UNL     1      -0.400  11.094  20.899  0.00  0.00    +0.000 A 
BRANCH  15  22
ATOM     21  C   UNL     1      -1.945  11.871  23.059  0.00  0.00    +0.000 C 
ATOM     22  O   UNL     1      -0.947  10.878  23.271  0.00  0.00    +0.000 OA
ENDBRANCH  15  22
ENDBRANCH  13  18
ENDBRANCH   1  13
TORSDOF 6
ENDMDL
MODEL 4
REMARK VINA RESULT:      -7.0      0.886      1.012
REMARK  Name = 
REMARK  8 active torsions:
REMARK  status: ('A' for Active; 'I' for Inactive)
REMARK    1  A    between atoms: C_1  and  O_2
REMARK    2  A    between atoms: O_2  and  C_3
REMARK    3  A    between atoms: C_6  and  C_7
REMARK    4  A    between atoms: C_7  and  C_9
REMARK    5  A    between atoms: C_10  and  C_11
REMARK    6  A    between atoms: C_14  and  O_15
REMARK    7  A    between atoms: C_16  and  O_17
REMARK    8  A    between atoms: O_17  and  C_18
REMARK                            x       y       z     vdW  Elec       q    Type
REMARK                         _______ _______ _______ _____ _____    ______ ____
ROOT
ATOM      1  C   UNL     1       7.904   8.221  18.146  0.00  0.00    +0.000 C 
ATOM      2  C   UNL     1       8.250   9.397  17.589  0.00  0.00    +0.000 C 
ENDROOT
BRANCH   2   3
ATOM      3  C   UNL     1       8.888  10.466  18.373  0.00  0.00    +0.000 A 
ATOM      4  C   UNL     1       9.400  10.203  19.649  0.00  0.00    +0.000 A 
ATOM      5  C   UNL     1       9.982  11.227  20.400  0.00  0.00    +0.000 A 
ATOM      6  C   UNL     1      10.046  12.521  19.879  0.00  0.00    +0.000 A 
ATOM      7  C   UNL     1       9.522  12.814  18.616  0.00  0.00    +0.000 A 
ATOM      8  C   UNL     1       8.941  11.780  17.880  0.00  0.00    +0.000 A 
BRANCH   6   9
ATOM      9  O   UNL     1      10.622  13.524  20.609  0.00  0.00    +0.000 OA
ATOM     10  H   UNL     1      10.775  13.214  21.515  0.00  0.00    +0.000 HD
ENDBRANCH   6   9
BRANCH   7  11
ATOM     11  O   UNL     1       9.615  14.113  18.194  0.00  0.00    +0.000 OA
ATOM     12  C   UNL     1       8.406  14.864  18.133  0.00  0.00    +0.000 C 
ENDBRANCH   7  11
ENDBRANCH   2   3
BRANCH   1  13
ATOM     13  C   UNL     1       7.339   7.111  17.337  0.00  0.00    +0.000 C 
ATOM     14  O   UNL     1       7.902   6.725  16.307  0.00  0.00    +0.000 OA
BRANCH  13  18
ATOM     15  C   UNL     1       3.818   4.999  18.670  0.00  0.00    +0.000 A 
ATOM     16  C   UNL     1       5.078   4.702  19.186  0.00  0.00    +0.000 A 
ATOM     17  C   UNL     1       6.205   5.418  18.763  0.00  0.00    +0.000 A 
ATOM     18  C   UNL     1       6.090   6.436  17.804  0.00  0.00    +0.000 A 
ATOM     19  C   UNL     1       4.818   6.744  17.306  0.00  0.00    +0.000 A 
ATOM     20  C   UNL     1       3.691   6.024  17.732  0.00  0.00    +0.000 A 
BRANCH  15  22
ATOM     21  C   UNL     1       1.666   4.151  18.255  0.00  0.00    +0.000 C 
ATOM     22  O   UNL     1       2.776   4.249  19.141  0.00  0.00    +0.000 OA
ENDBRANCH  15  22
ENDBRANCH  13  18
ENDBRANCH   1  13
TORSDOF 6
ENDMDL
MODEL 5
REMARK VINA RESULT:      -6.9      5.788      7.433
REMARK  Name = 
REMARK  8 active torsions:
REMARK  status: ('A' for Active; 'I' for Inactive)
REMARK    1  A    between atoms: C_1  and  O_2
REMARK    2  A    between atoms: O_2  and  C_3
REMARK    3  A    between atoms: C_6  and  C_7
REMARK    4  A    between atoms: C_7  and  C_9
REMARK    5  A    between atoms: C_10  and  C_11
REMARK    6  A    between atoms: C_14  and  O_15
REMARK    7  A    between atoms: C_16  and  O_17
REMARK    8  A    between atoms: O_17  and  C_18
REMARK                            x       y       z     vdW  Elec       q    Type
REMARK                         _______ _______ _______ _____ _____    ______ ____
ROOT
ATOM      1  C   UNL     1       4.118   5.649  19.029  0.00  0.00    +0.000 C 
ATOM      2  C   UNL     1       3.438   6.389  18.133  0.00  0.00    +0.000 C 
ENDROOT
BRANCH   2   3
ATOM      3  C   UNL     1       2.562   7.495  18.552  0.00  0.00    +0.000 A 
ATOM      4  C   UNL     1       2.306   8.565  17.687  0.00  0.00    +0.000 A 
ATOM      5  C   UNL     1       1.494   9.625  18.099  0.00  0.00    +0.000 A 
ATOM      6  C   UNL     1       0.942   9.620  19.381  0.00  0.00    +0.000 A 
ATOM      7  C   UNL     1       1.200   8.573  20.271  0.00  0.00    +0.000 A 
ATOM      8  C   UNL     1       2.016   7.523  19.846  0.00  0.00    +0.000 A 
BRANCH   6   9
ATOM      9  O   UNL     1       0.140  10.653  19.784  0.00  0.00    +0.000 OA
ATOM     10  H   UNL     1      -0.005  10.591  20.740  0.00  0.00    +0.000 HD
ENDBRANCH   6   9
BRANCH   7  11
ATOM     11  O   UNL     1       0.629   8.661  21.513  0.00  0.00    +0.000 OA
ATOM     12  C   UNL     1       1.432   9.195  22.560  0.00  0.00    +0.000 C 
ENDBRANCH   7  11
ENDBRANCH   2   3
BRANCH   1  13
ATOM     13  C   UNL     1       5.068   4.589  18.603  0.00  0.00    +0.000 C 
ATOM     14  O   UNL     1       5.380   3.671  19.369  0.00  0.00    +0.000 OA
BRANCH  13  18
ATOM     15  C   UNL     1       6.605   4.518  14.570  0.00  0.00    +0.000 A 
ATOM     16  C   UNL     1       5.329   4.044  14.865  0.00  0.00    +0.000 A 
ATOM     17  C   UNL     1       4.836   4.102  16.175  0.00  0.00    +0.000 A 
ATOM     18  C   UNL     1       5.620   4.624  17.215  0.00  0.00    +0.000 A 
ATOM     19  C   UNL     1       6.893   5.119  16.907  0.00  0.00    +0.000 A 
ATOM     20  C   UNL     1       7.384   5.059  15.594  0.00  0.00    +0.000 A 
BRANCH  15  22
ATOM     21  C   UNL     1       6.260   3.492  12.484  0.00  0.00    +0.000 C 
ATOM     22  O   UNL     1       7.003   4.422  13.265  0.00  0.00    +0.000 OA
ENDBRANCH  15  22
ENDBRANCH  13  18
ENDBRANCH   1  13
TORSDOF 6
ENDMDL
MODEL 6
REMARK VINA RESULT:      -6.9      0.742      1.354
REMARK  Name = 
REMARK  8 active torsions:
REMARK  status: ('A' for Active; 'I' for Inactive)
REMARK    1  A    between atoms: C_1  and  O_2
REMARK    2  A    between atoms: O_2  and  C_3
REMARK    3  A    between atoms: C_6  and  C_7
REMARK    4  A    between atoms: C_7  and  C_9
REMARK    5  A    between atoms: C_10  and  C_11
REMARK    6  A    between atoms: C_14  and  O_15
REMARK    7  A    between atoms: C_16  and  O_17
REMARK    8  A    between atoms: O_17  and  C_18
REMARK                            x       y       z     vdW  Elec       q    Type
REMARK                         _______ _______ _______ _____ _____    ______ ____
ROOT
ATOM      1  C   UNL     1       7.898   8.204  18.156  0.00  0.00    +0.000 C 
ATOM      2  C   UNL     1       8.216   9.382  17.585  0.00  0.00    +0.000 C 
ENDROOT
BRANCH   2   3
ATOM      3  C   UNL     1       8.854  10.464  18.351  0.00  0.00    +0.000 A 
ATOM      4  C   UNL     1       9.437  10.206  19.596  0.00  0.00    +0.000 A 
ATOM      5  C   UNL     1      10.019  11.242  20.331  0.00  0.00    +0.000 A 
ATOM      6  C   UNL     1      10.012  12.543  19.823  0.00  0.00    +0.000 A 
ATOM      7  C   UNL     1       9.417  12.831  18.591  0.00  0.00    +0.000 A 
ATOM      8  C   UNL     1       8.836  11.785  17.871  0.00  0.00    +0.000 A 
BRANCH   6   9
ATOM      9  O   UNL     1      10.589  13.558  20.537  0.00  0.00    +0.000 OA
ATOM     10  H   UNL     1      10.357  14.407  20.130  0.00  0.00    +0.000 HD
ENDBRANCH   6   9
BRANCH   7  11
ATOM     11  O   UNL     1       9.443  14.137  18.180  0.00  0.00    +0.000 OA
ATOM     12  C   UNL     1       8.204  14.837  18.163  0.00  0.00    +0.000 C 
ENDBRANCH   7  11
ENDBRANCH   2   3
BRANCH   1  13
ATOM     13  C   UNL     1       7.333   7.082  17.365  0.00  0.00    +0.000 C 
ATOM     14  O   UNL     1       7.863   6.718  16.309  0.00  0.00    +0.000 OA
BRANCH  13  18
ATOM     15  C   UNL     1       3.758   5.174  18.851  0.00  0.00    +0.000 A 
ATOM     16  C   UNL     1       3.709   6.067  17.784  0.00  0.00    +0.000 A 
ATOM     17  C   UNL     1       4.884   6.653  17.295  0.00  0.00    +0.000 A 
ATOM     18  C   UNL     1       6.127   6.366  17.880  0.00  0.00    +0.000 A 
ATOM     19  C   UNL     1       6.171   5.451  18.939  0.00  0.00    +0.000 A 
ATOM     20  C   UNL     1       4.992   4.865  19.426  0.00  0.00    +0.000 A 
BRANCH  15  22
ATOM     21  C   UNL     1       2.239   4.901  20.624  0.00  0.00    +0.000 C 
ATOM     22  O   UNL     1       2.563   4.649  19.260  0.00  0.00    +0.000 OA
ENDBRANCH  15  22
ENDBRANCH  13  18
ENDBRANCH   1  13
TORSDOF 6
ENDMDL
MODEL 7
REMARK VINA RESULT:      -6.9      6.380      9.298
REMARK  Name = 
REMARK  8 active torsions:
REMARK  status: ('A' for Active; 'I' for Inactive)
REMARK    1  A    between atoms: C_1  and  O_2
REMARK    2  A    between atoms: O_2  and  C_3
REMARK    3  A    between atoms: C_6  and  C_7
REMARK    4  A    between atoms: C_7  and  C_9
REMARK    5  A    between atoms: C_10  and  C_11
REMARK    6  A    between atoms: C_14  and  O_15
REMARK    7  A    between atoms: C_16  and  O_17
REMARK    8  A    between atoms: O_17  and  C_18
REMARK                            x       y       z     vdW  Elec       q    Type
REMARK                         _______ _______ _______ _____ _____    ______ ____
ROOT
ATOM      1  C   UNL     1       2.092   7.632  19.105  0.00  0.00    +0.000 C 
ATOM      2  C   UNL     1       2.590   7.026  18.011  0.00  0.00    +0.000 C 
ENDROOT
BRANCH   2   3
ATOM      3  C   UNL     1       2.981   5.607  18.024  0.00  0.00    +0.000 A 
ATOM      4  C   UNL     1       4.051   5.157  17.242  0.00  0.00    +0.000 A 
ATOM      5  C   UNL     1       4.402   3.805  17.238  0.00  0.00    +0.000 A 
ATOM      6  C   UNL     1       3.676   2.897  18.012  0.00  0.00    +0.000 A 
ATOM      7  C   UNL     1       2.589   3.317  18.784  0.00  0.00    +0.000 A 
ATOM      8  C   UNL     1       2.250   4.671  18.774  0.00  0.00    +0.000 A 
BRANCH   6   9
ATOM      9  O   UNL     1       4.022   1.573  18.016  0.00  0.00    +0.000 OA
ATOM     10  H   UNL     1       4.951   1.486  18.278  0.00  0.00    +0.000 HD
ENDBRANCH   6   9
BRANCH   7  11
ATOM     11  O   UNL     1       1.927   2.354  19.498  0.00  0.00    +0.000 OA
ATOM     12  C   UNL     1       1.839   2.536  20.907  0.00  0.00    +0.000 C 
ENDBRANCH   7  11
ENDBRANCH   2   3
BRANCH   1  13
ATOM     13  C   UNL     1       1.618   9.039  19.069  0.00  0.00    +0.000 C 
ATOM     14  O   UNL     1       1.828   9.755  18.084  0.00  0.00    +0.000 OA
BRANCH  13  18
ATOM     15  C   UNL     1      -0.506  10.737  22.421  0.00  0.00    +0.000 A 
ATOM     16  C   UNL     1      -0.231  11.491  21.283  0.00  0.00    +0.000 A 
ATOM     17  C   UNL     1       0.433  10.915  20.193  0.00  0.00    +0.000 A 
ATOM     18  C   UNL     1       0.846   9.575  20.231  0.00  0.00    +0.000 A 
ATOM     19  C   UNL     1       0.547   8.816  21.370  0.00  0.00    +0.000 A 
ATOM     20  C   UNL     1      -0.118   9.397  22.460  0.00  0.00    +0.000 A 
BRANCH  15  22
ATOM     21  C   UNL     1      -2.377  12.012  23.053  0.00  0.00    +0.000 C 
ATOM     22  O   UNL     1      -1.159  11.382  23.435  0.00  0.00    +0.000 OA
ENDBRANCH  15  22
ENDBRANCH  13  18
ENDBRANCH   1  13
TORSDOF 6
ENDMDL
MODEL 8
REMARK VINA RESULT:      -6.9      5.315      8.430
REMARK  Name = 
REMARK  8 active torsions:
REMARK  status: ('A' for Active; 'I' for Inactive)
REMARK    1  A    between atoms: C_1  and  O_2
REMARK    2  A    between atoms: O_2  and  C_3
REMARK    3  A    between atoms: C_6  and  C_7
REMARK    4  A    between atoms: C_7  and  C_9
REMARK    5  A    between atoms: C_10  and  C_11
REMARK    6  A    between atoms: C_14  and  O_15
REMARK    7  A    between atoms: C_16  and  O_17
REMARK    8  A    between atoms: O_17  and  C_18
REMARK                            x       y       z     vdW  Elec       q    Type
REMARK                         _______ _______ _______ _____ _____    ______ ____
ROOT
ATOM      1  C   UNL     1       2.252   7.888  19.111  0.00  0.00    +0.000 C 
ATOM      2  C   UNL     1       2.128   6.789  18.343  0.00  0.00    +0.000 C 
ENDROOT
BRANCH   2   3
ATOM      3  C   UNL     1       2.890   5.561  18.622  0.00  0.00    +0.000 A 
ATOM      4  C   UNL     1       2.243   4.322  18.689  0.00  0.00    +0.000 A 
ATOM      5  C   UNL     1       2.968   3.163  18.980  0.00  0.00    +0.000 A 
ATOM      6  C   UNL     1       4.343   3.243  19.211  0.00  0.00    +0.000 A 
ATOM      7  C   UNL     1       5.008   4.472  19.171  0.00  0.00    +0.000 A 
ATOM      8  C   UNL     1       4.270   5.621  18.883  0.00  0.00    +0.000 A 
BRANCH   6   9
ATOM      9  O   UNL     1       5.056   2.109  19.488  0.00  0.00    +0.000 OA
ATOM     10  H   UNL     1       5.781   2.327  20.093  0.00  0.00    +0.000 HD
ENDBRANCH   6   9
BRANCH   7  11
ATOM     11  O   UNL     1       6.354   4.457  19.426  0.00  0.00    +0.000 OA
ATOM     12  C   UNL     1       7.101   5.606  19.042  0.00  0.00    +0.000 C 
ENDBRANCH   7  11
ENDBRANCH   2   3
BRANCH   1  13
ATOM     13  C   UNL     1       1.420   9.097  18.881  0.00  0.00    +0.000 C 
ATOM     14  O   UNL     1       1.212   9.517  17.738  0.00  0.00    +0.000 OA
BRANCH  13  18
ATOM     15  C   UNL     1      -0.492  10.958  22.274  0.00  0.00    +0.000 A 
ATOM     16  C   UNL     1      -0.257   9.585  22.241  0.00  0.00    +0.000 A 
ATOM     17  C   UNL     1       0.392   9.003  21.144  0.00  0.00    +0.000 A 
ATOM     18  C   UNL     1       0.803   9.786  20.054  0.00  0.00    +0.000 A 
ATOM     19  C   UNL     1       0.582  11.168  20.105  0.00  0.00    +0.000 A 
ATOM     20  C   UNL     1      -0.068  11.748  21.205  0.00  0.00    +0.000 A 
BRANCH  15  22
ATOM     21  C   UNL     1      -2.414  12.000  23.136  0.00  0.00    +0.000 C 
ATOM     22  O   UNL     1      -1.130  11.438  23.385  0.00  0.00    +0.000 OA
ENDBRANCH  15  22
ENDBRANCH  13  18
ENDBRANCH   1  13
TORSDOF 6
ENDMDL
MODEL 9
REMARK VINA RESULT:      -6.8      5.581      7.484
REMARK  Name = 
REMARK  8 active torsions:
REMARK  status: ('A' for Active; 'I' for Inactive)
REMARK    1  A    between atoms: C_1  and  O_2
REMARK    2  A    between atoms: O_2  and  C_3
REMARK    3  A    between atoms: C_6  and  C_7
REMARK    4  A    between atoms: C_7  and  C_9
REMARK    5  A    between atoms: C_10  and  C_11
REMARK    6  A    between atoms: C_14  and  O_15
REMARK    7  A    between atoms: C_16  and  O_17
REMARK    8  A    between atoms: O_17  and  C_18
REMARK                            x       y       z     vdW  Elec       q    Type
REMARK                         _______ _______ _______ _____ _____    ______ ____
ROOT
ATOM      1  C   UNL     1       2.491   5.910  19.882  0.00  0.00    +0.000 C 
ATOM      2  C   UNL     1       2.564   6.874  18.945  0.00  0.00    +0.000 C 
ENDROOT
BRANCH   2   3
ATOM      3  C   UNL     1       1.871   8.162  19.106  0.00  0.00    +0.000 A 
ATOM      4  C   UNL     1       1.722   9.030  18.019  0.00  0.00    +0.000 A 
ATOM      5  C   UNL     1       1.085  10.263  18.183  0.00  0.00    +0.000 A 
ATOM      6  C   UNL     1       0.602  10.634  19.439  0.00  0.00    +0.000 A 
ATOM      7  C   UNL     1       0.759   9.794  20.546  0.00  0.00    +0.000 A 
ATOM      8  C   UNL     1       1.400   8.567  20.366  0.00  0.00    +0.000 A 
BRANCH   6   9
ATOM      9  O   UNL     1      -0.028  11.837  19.601  0.00  0.00    +0.000 OA
ATOM     10  H   UNL     1       0.621  12.506  19.866  0.00  0.00    +0.000 HD
ENDBRANCH   6   9
BRANCH   7  11
ATOM     11  O   UNL     1       0.269  10.247  21.742  0.00  0.00    +0.000 OA
ATOM     12  C   UNL     1       0.331   9.355  22.849  0.00  0.00    +0.000 C 
ENDBRANCH   7  11
ENDBRANCH   2   3
BRANCH   1  13
ATOM     13  C   UNL     1       3.259   4.644  19.760  0.00  0.00    +0.000 C 
ATOM     14  O   UNL     1       3.003   3.674  20.482  0.00  0.00    +0.000 OA
BRANCH  13  18
ATOM     15  C   UNL     1       6.402   4.521  16.805  0.00  0.00    +0.000 A 
ATOM     16  C   UNL     1       6.634   5.016  18.086  0.00  0.00    +0.000 A 
ATOM     17  C   UNL     1       5.610   5.020  19.041  0.00  0.00    +0.000 A 
ATOM     18  C   UNL     1       4.330   4.542  18.723  0.00  0.00    +0.000 A 
ATOM     19  C   UNL     1       4.109   4.027  17.440  0.00  0.00    +0.000 A 
ATOM     20  C   UNL     1       5.138   4.024  16.485  0.00  0.00    +0.000 A 
BRANCH  15  22
ATOM     21  C   UNL     1       7.110   4.806  14.581  0.00  0.00    +0.000 C 
ATOM     22  O   UNL     1       7.460   4.556  15.939  0.00  0.00    +0.000 OA
ENDBRANCH  15  22
ENDBRANCH  13  18
ENDBRANCH   1  13
TORSDOF 6
ENDMDL
