MODEL 1
REMARK VINA RESULT:      -7.6      0.000      0.000
REMARK  Name = 
REMARK  3 active torsions:
REMARK  status: ('A' for Active; 'I' for Inactive)
REMARK    1  A    between atoms: N_2  and  C_4
REMARK    2  A    between atoms: C_6  and  C_7
REMARK    3  A    between atoms: C_13  and  N_14
REMARK                            x       y       z     vdW  Elec       q    Type
REMARK                         _______ _______ _______ _____ _____    ______ ____
ROOT
ATOM      1  C   UNL     1       3.199   5.339  17.687  0.00  0.00    +0.000 A 
ATOM      2  C   UNL     1       4.192   4.556  17.060  0.00  0.00    +0.000 A 
ATOM      3  C   UNL     1       5.380   5.142  16.625  0.00  0.00    +0.000 A 
ATOM      4  C   UNL     1       5.531   6.520  16.787  0.00  0.00    +0.000 A 
ATOM      5  C   UNL     1       4.522   7.284  17.391  0.00  0.00    +0.000 A 
ATOM      6  C   UNL     1       3.322   6.730  17.891  0.00  0.00    +0.000 A 
ENDROOT
BRANCH   6   7
ATOM      7  N   UNL     1       2.396   7.583  18.460  0.00  0.00    +0.000 N 
ATOM      8  C   UNL     1       1.841   7.338  19.823  0.00  0.00    +0.000 C 
ATOM      9  C   UNL     1       1.857   8.646  20.656  0.00  0.00    +0.000 C 
ATOM     10  N   UNL     1       1.117   9.657  19.902  0.00  0.00    +0.000 N 
ATOM     11  C   UNL     1       0.177  10.446  20.510  0.00  0.00    +0.000 A 
ATOM     12  C   UNL     1      -0.916  10.921  19.782  0.00  0.00    +0.000 A 
ATOM     13  C   UNL     1      -1.885  11.701  20.401  0.00  0.00    +0.000 A 
ATOM     14  C   UNL     1      -1.742  12.005  21.743  0.00  0.00    +0.000 A 
ATOM     15  C   UNL     1      -0.642  11.494  22.408  0.00  0.00    +0.000 A 
ATOM     16  N   UNL     1       0.297  10.715  21.827  0.00  0.00    +0.000 NA
ATOM     17  C   UNL     1       1.649   9.954  18.573  0.00  0.00    +0.000 C 
ATOM     18  C   UNL     1       1.687   8.662  17.730  0.00  0.00    +0.000 C 
ENDBRANCH   6   7
BRANCH   3  19
ATOM     19  C   UNL     1       6.489   4.322  16.018  0.00  0.00    +0.000 C 
ATOM     20  F   UNL     1       6.079   3.096  15.590  0.00  0.00    +0.000 F 
ATOM     21  F   UNL     1       7.058   4.928  14.941  0.00  0.00    +0.000 F 
ATOM     22  F   UNL     1       7.499   4.091  16.901  0.00  0.00    +0.000 F 
ENDBRANCH   3  19
BRANCH   1  24
ATOM     23  O   UNL     1       1.126   4.412  17.378  0.00  0.00    +0.000 OA
ATOM     24  N   UNL     1       2.060   4.583  18.170  0.00  0.00    +0.000 N 
ATOM     25  O   UNL     1       2.121   4.124  19.319  0.00  0.00    +0.000 OA
ENDBRANCH   1  24
TORSDOF 3
ENDMDL
MODEL 2
REMARK VINA RESULT:      -7.1      3.654      4.881
REMARK  Name = 
REMARK  3 active torsions:
REMARK  status: ('A' for Active; 'I' for Inactive)
REMARK    1  A    between atoms: N_2  and  C_4
REMARK    2  A    between atoms: C_6  and  C_7
REMARK    3  A    between atoms: C_13  and  N_14
REMARK                            x       y       z     vdW  Elec       q    Type
REMARK                         _______ _______ _______ _____ _____    ______ ____
ROOT
ATOM      1  C   UNL     1       1.277   8.776  20.351  0.00  0.00    +0.000 A 
ATOM      2  C   UNL     1       1.779   7.457  20.310  0.00  0.00    +0.000 A 
ATOM      3  C   UNL     1       2.399   6.975  19.157  0.00  0.00    +0.000 A 
ATOM      4  C   UNL     1       2.462   7.816  18.045  0.00  0.00    +0.000 A 
ATOM      5  C   UNL     1       1.937   9.115  18.100  0.00  0.00    +0.000 A 
ATOM      6  C   UNL     1       1.343   9.665  19.258  0.00  0.00    +0.000 A 
ENDROOT
BRANCH   6   7
ATOM      7  N   UNL     1       0.851  10.955  19.190  0.00  0.00    +0.000 N 
ATOM      8  C   UNL     1      -0.613  11.237  19.249  0.00  0.00    +0.000 C 
ATOM      9  C   UNL     1      -0.899  12.400  20.233  0.00  0.00    +0.000 C 
ATOM     10  N   UNL     1      -0.104  13.549  19.802  0.00  0.00    +0.000 N 
ATOM     11  C   UNL     1      -0.657  14.799  19.713  0.00  0.00    +0.000 A 
ATOM     12  C   UNL     1      -0.175  15.712  18.772  0.00  0.00    +0.000 A 
ATOM     13  C   UNL     1      -0.748  16.972  18.660  0.00  0.00    +0.000 A 
ATOM     14  C   UNL     1      -1.795  17.308  19.501  0.00  0.00    +0.000 A 
ATOM     15  C   UNL     1      -2.231  16.353  20.402  0.00  0.00    +0.000 A 
ATOM     16  N   UNL     1      -1.699  15.115  20.508  0.00  0.00    +0.000 NA
ATOM     17  C   UNL     1       1.340  13.326  19.765  0.00  0.00    +0.000 C 
ATOM     18  C   UNL     1       1.658  12.144  18.825  0.00  0.00    +0.000 C 
ENDBRANCH   6   7
BRANCH   3  19
ATOM     19  C   UNL     1       3.009   5.599  19.105  0.00  0.00    +0.000 C 
ATOM     20  F   UNL     1       3.062   5.080  17.848  0.00  0.00    +0.000 F 
ATOM     21  F   UNL     1       4.284   5.574  19.578  0.00  0.00    +0.000 F 
ATOM     22  F   UNL     1       2.310   4.699  19.851  0.00  0.00    +0.000 F 
ENDBRANCH   3  19
BRANCH   1  24
ATOM     23  O   UNL     1      -0.424   8.847  21.886  0.00  0.00    +0.000 OA
ATOM     24  N   UNL     1       0.745   9.171  21.640  0.00  0.00    +0.000 N 
ATOM     25  O   UNL     1       1.505   9.760  22.420  0.00  0.00    +0.000 OA
ENDBRANCH   1  24
TORSDOF 3
ENDMDL
MODEL 3
REMARK VINA RESULT:      -7.1      3.638      4.930
REMARK  Name = 
REMARK  3 active torsions:
REMARK  status: ('A' for Active; 'I' for Inactive)
REMARK    1  A    between atoms: N_2  and  C_4
REMARK    2  A    between atoms: C_6  and  C_7
REMARK    3  A    between atoms: C_13  and  N_14
REMARK                            x       y       z     vdW  Elec       q    Type
REMARK                         _______ _______ _______ _____ _____    ______ ____
ROOT
ATOM      1  C   UNL     1       1.277   8.763  20.357  0.00  0.00    +0.000 A 
ATOM      2  C   UNL     1       1.782   7.446  20.307  0.00  0.00    +0.000 A 
ATOM      3  C   UNL     1       2.394   6.970  19.147  0.00  0.00    +0.000 A 
ATOM      4  C   UNL     1       2.446   7.816  18.038  0.00  0.00    +0.000 A 
ATOM      5  C   UNL     1       1.917   9.113  18.102  0.00  0.00    +0.000 A 
ATOM      6  C   UNL     1       1.331   9.656  19.267  0.00  0.00    +0.000 A 
ENDROOT
BRANCH   6   7
ATOM      7  N   UNL     1       0.836  10.945  19.208  0.00  0.00    +0.000 N 
ATOM      8  C   UNL     1      -0.630  11.222  19.257  0.00  0.00    +0.000 C 
ATOM      9  C   UNL     1      -0.930  12.373  20.250  0.00  0.00    +0.000 C 
ATOM     10  N   UNL     1      -0.135  13.530  19.838  0.00  0.00    +0.000 N 
ATOM     11  C   UNL     1      -0.691  14.778  19.756  0.00  0.00    +0.000 A 
ATOM     12  C   UNL     1      -0.204  15.702  18.830  0.00  0.00    +0.000 A 
ATOM     13  C   UNL     1      -0.781  16.962  18.725  0.00  0.00    +0.000 A 
ATOM     14  C   UNL     1      -1.837  17.285  19.560  0.00  0.00    +0.000 A 
ATOM     15  C   UNL     1      -2.277  16.320  20.448  0.00  0.00    +0.000 A 
ATOM     16  N   UNL     1      -1.742  15.083  20.546  0.00  0.00    +0.000 NA
ATOM     17  C   UNL     1       1.311  13.312  19.811  0.00  0.00    +0.000 C 
ATOM     18  C   UNL     1       1.641  12.141  18.863  0.00  0.00    +0.000 C 
ENDBRANCH   6   7
BRANCH   3  19
ATOM     19  C   UNL     1       3.007   5.595  19.086  0.00  0.00    +0.000 C 
ATOM     20  F   UNL     1       4.220   5.519  19.700  0.00  0.00    +0.000 F 
ATOM     21  F   UNL     1       2.227   4.648  19.672  0.00  0.00    +0.000 F 
ATOM     22  F   UNL     1       3.210   5.181  17.805  0.00  0.00    +0.000 F 
ENDBRANCH   3  19
BRANCH   1  24
ATOM     23  O   UNL     1       1.508   9.798  22.389  0.00  0.00    +0.000 OA
ATOM     24  N   UNL     1       0.753   9.152  21.652  0.00  0.00    +0.000 N 
ATOM     25  O   UNL     1      -0.420   8.854  21.910  0.00  0.00    +0.000 OA
ENDBRANCH   1  24
TORSDOF 3
ENDMDL
MODEL 4
REMARK VINA RESULT:      -7.1      1.485      2.236
REMARK  Name = 
REMARK  3 active torsions:
REMARK  status: ('A' for Active; 'I' for Inactive)
REMARK    1  A    between atoms: N_2  and  C_4
REMARK    2  A    between atoms: C_6  and  C_7
REMARK    3  A    between atoms: C_13  and  N_14
REMARK                            x       y       z     vdW  Elec       q    Type
REMARK                         _______ _______ _______ _____ _____    ______ ____
ROOT
ATOM      1  C   UNL     1       2.519   5.684  19.262  0.00  0.00    +0.000 A 
ATOM      2  C   UNL     1       3.246   4.710  18.543  0.00  0.00    +0.000 A 
ATOM      3  C   UNL     1       4.073   5.088  17.486  0.00  0.00    +0.000 A 
ATOM      4  C   UNL     1       4.120   6.439  17.139  0.00  0.00    +0.000 A 
ATOM      5  C   UNL     1       3.372   7.386  17.851  0.00  0.00    +0.000 A 
ATOM      6  C   UNL     1       2.557   7.060  18.958  0.00  0.00    +0.000 A 
ENDROOT
BRANCH   6   7
ATOM      7  N   UNL     1       1.859   8.079  19.578  0.00  0.00    +0.000 N 
ATOM      8  C   UNL     1       1.607   9.382  18.896  0.00  0.00    +0.000 C 
ATOM      9  C   UNL     1       0.126   9.806  19.070  0.00  0.00    +0.000 C 
ATOM     10  N   UNL     1      -0.157   9.839  20.504  0.00  0.00    +0.000 N 
ATOM     11  C   UNL     1      -0.817  10.897  21.071  0.00  0.00    +0.000 A 
ATOM     12  C   UNL     1      -0.557  11.255  22.396  0.00  0.00    +0.000 A 
ATOM     13  C   UNL     1      -1.204  12.342  22.969  0.00  0.00    +0.000 A 
ATOM     14  C   UNL     1      -2.114  13.055  22.208  0.00  0.00    +0.000 A 
ATOM     15  C   UNL     1      -2.317  12.654  20.900  0.00  0.00    +0.000 A 
ATOM     16  N   UNL     1      -1.678  11.613  20.321  0.00  0.00    +0.000 NA
ATOM     17  C   UNL     1       0.042   8.572  21.205  0.00  0.00    +0.000 C 
ATOM     18  C   UNL     1       1.498   8.098  21.016  0.00  0.00    +0.000 C 
ENDBRANCH   6   7
BRANCH   3  19
ATOM     19  C   UNL     1       4.917   4.082  16.746  0.00  0.00    +0.000 C 
ATOM     20  F   UNL     1       4.889   4.246  15.395  0.00  0.00    +0.000 F 
ATOM     21  F   UNL     1       6.228   4.135  17.105  0.00  0.00    +0.000 F 
ATOM     22  F   UNL     1       4.512   2.804  16.976  0.00  0.00    +0.000 F 
ENDBRANCH   3  19
BRANCH   1  24
ATOM     23  O   UNL     1       0.577   4.915  20.206  0.00  0.00    +0.000 OA
ATOM     24  N   UNL     1       1.776   5.159  20.391  0.00  0.00    +0.000 N 
ATOM     25  O   UNL     1       2.397   4.950  21.441  0.00  0.00    +0.000 OA
ENDBRANCH   1  24
TORSDOF 3
ENDMDL
MODEL 5
REMARK VINA RESULT:      -7.1      1.154      1.987
REMARK  Name = 
REMARK  3 active torsions:
REMARK  status: ('A' for Active; 'I' for Inactive)
REMARK    1  A    between atoms: N_2  and  C_4
REMARK    2  A    between atoms: C_6  and  C_7
REMARK    3  A    between atoms: C_13  and  N_14
REMARK                            x       y       z     vdW  Elec       q    Type
REMARK                         _______ _______ _______ _____ _____    ______ ____
ROOT
ATOM      1  C   UNL     1       3.397   4.938  17.426  0.00  0.00    +0.000 A 
ATOM      2  C   UNL     1       4.138   4.245  16.445  0.00  0.00    +0.000 A 
ATOM      3  C   UNL     1       5.188   4.877  15.779  0.00  0.00    +0.000 A 
ATOM      4  C   UNL     1       5.446   6.215  16.080  0.00  0.00    +0.000 A 
ATOM      5  C   UNL     1       4.682   6.892  17.042  0.00  0.00    +0.000 A 
ATOM      6  C   UNL     1       3.641   6.282  17.776  0.00  0.00    +0.000 A 
ENDROOT
BRANCH   6   7
ATOM      7  N   UNL     1       2.951   7.052  18.694  0.00  0.00    +0.000 N 
ATOM      8  C   UNL     1       2.748   8.516  18.490  0.00  0.00    +0.000 C 
ATOM      9  C   UNL     1       1.273   8.902  18.774  0.00  0.00    +0.000 C 
ATOM     10  N   UNL     1       0.954   8.456  20.129  0.00  0.00    +0.000 N 
ATOM     11  C   UNL     1       0.306   9.279  21.011  0.00  0.00    +0.000 A 
ATOM     12  C   UNL     1       0.540   9.159  22.382  0.00  0.00    +0.000 A 
ATOM     13  C   UNL     1      -0.096  10.008  23.280  0.00  0.00    +0.000 A 
ATOM     14  C   UNL     1      -0.969  10.964  22.791  0.00  0.00    +0.000 A 
ATOM     15  C   UNL     1      -1.148  11.036  21.421  0.00  0.00    +0.000 A 
ATOM     16  N   UNL     1      -0.519  10.233  20.534  0.00  0.00    +0.000 NA
ATOM     17  C   UNL     1       1.105   7.020  20.362  0.00  0.00    +0.000 C 
ATOM     18  C   UNL     1       2.554   6.594  20.047  0.00  0.00    +0.000 C 
ENDBRANCH   6   7
BRANCH   3  19
ATOM     19  C   UNL     1       6.044   4.143  14.779  0.00  0.00    +0.000 C 
ATOM     20  F   UNL     1       7.266   4.713  14.596  0.00  0.00    +0.000 F 
ATOM     21  F   UNL     1       6.279   2.853  15.140  0.00  0.00    +0.000 F 
ATOM     22  F   UNL     1       5.467   4.094  13.547  0.00  0.00    +0.000 F 
ENDBRANCH   3  19
BRANCH   1  24
ATOM     23  O   UNL     1       1.246   4.180  17.656  0.00  0.00    +0.000 OA
ATOM     24  N   UNL     1       2.399   4.130  18.100  0.00  0.00    +0.000 N 
ATOM     25  O   UNL     1       2.776   3.416  19.039  0.00  0.00    +0.000 OA
ENDBRANCH   1  24
TORSDOF 3
ENDMDL
MODEL 6
REMARK VINA RESULT:      -7.0      3.414      4.711
REMARK  Name = 
REMARK  3 active torsions:
REMARK  status: ('A' for Active; 'I' for Inactive)
REMARK    1  A    between atoms: N_2  and  C_4
REMARK    2  A    between atoms: C_6  and  C_7
REMARK    3  A    between atoms: C_13  and  N_14
REMARK                            x       y       z     vdW  Elec       q    Type
REMARK                         _______ _______ _______ _____ _____    ______ ____
ROOT
ATOM      1  C   UNL     1       1.272   8.693  20.288  0.00  0.00    +0.000 A 
ATOM      2  C   UNL     1       1.867   7.426  20.107  0.00  0.00    +0.000 A 
ATOM      3  C   UNL     1       2.490   7.107  18.900  0.00  0.00    +0.000 A 
ATOM      4  C   UNL     1       2.463   8.055  17.876  0.00  0.00    +0.000 A 
ATOM      5  C   UNL     1       1.846   9.299  18.070  0.00  0.00    +0.000 A 
ATOM      6  C   UNL     1       1.245   9.687  19.287  0.00  0.00    +0.000 A 
ENDROOT
BRANCH   6   7
ATOM      7  N   UNL     1       0.659  10.937  19.358  0.00  0.00    +0.000 N 
ATOM      8  C   UNL     1      -0.811  11.123  19.178  0.00  0.00    +0.000 C 
ATOM      9  C   UNL     1      -1.376  12.056  20.280  0.00  0.00    +0.000 C 
ATOM     10  N   UNL     1      -0.622  13.308  20.226  0.00  0.00    +0.000 N 
ATOM     11  C   UNL     1      -1.260  14.519  20.256  0.00  0.00    +0.000 A 
ATOM     12  C   UNL     1      -0.699  15.622  19.607  0.00  0.00    +0.000 A 
ATOM     13  C   UNL     1      -1.354  16.847  19.613  0.00  0.00    +0.000 A 
ATOM     14  C   UNL     1      -2.562  16.956  20.279  0.00  0.00    +0.000 A 
ATOM     15  C   UNL     1      -3.067  15.823  20.892  0.00  0.00    +0.000 A 
ATOM     16  N   UNL     1      -2.454  14.619  20.875  0.00  0.00    +0.000 NA
ATOM     17  C   UNL     1       0.819  13.175  20.433  0.00  0.00    +0.000 C 
ATOM     18  C   UNL     1       1.408  12.216  19.377  0.00  0.00    +0.000 C 
ENDBRANCH   6   7
BRANCH   3  19
ATOM     19  C   UNL     1       3.197   5.791  18.701  0.00  0.00    +0.000 C 
ATOM     20  F   UNL     1       2.353   4.723  18.687  0.00  0.00    +0.000 F 
ATOM     21  F   UNL     1       3.888   5.742  17.531  0.00  0.00    +0.000 F 
ATOM     22  F   UNL     1       4.101   5.539  19.687  0.00  0.00    +0.000 F 
ENDBRANCH   3  19
BRANCH   1  24
ATOM     23  O   UNL     1       1.489   9.495  22.424  0.00  0.00    +0.000 OA
ATOM     24  N   UNL     1       0.746   8.919  21.620  0.00  0.00    +0.000 N 
ATOM     25  O   UNL     1      -0.419   8.566  21.845  0.00  0.00    +0.000 OA
ENDBRANCH   1  24
TORSDOF 3
ENDMDL
MODEL 7
REMARK VINA RESULT:      -7.0      0.914      1.644
REMARK  Name = 
REMARK  3 active torsions:
REMARK  status: ('A' for Active; 'I' for Inactive)
REMARK    1  A    between atoms: N_2  and  C_4
REMARK    2  A    between atoms: C_6  and  C_7
REMARK    3  A    between atoms: C_13  and  N_14
REMARK                            x       y       z     vdW  Elec       q    Type
REMARK                         _______ _______ _______ _____ _____    ______ ____
ROOT
ATOM      1  C   UNL     1       3.437   5.241  17.763  0.00  0.00    +0.000 A 
ATOM      2  C   UNL     1       4.215   4.397  16.941  0.00  0.00    +0.000 A 
ATOM      3  C   UNL     1       5.168   4.938  16.078  0.00  0.00    +0.000 A 
ATOM      4  C   UNL     1       5.290   6.328  16.023  0.00  0.00    +0.000 A 
ATOM      5  C   UNL     1       4.490   7.148  16.830  0.00  0.00    +0.000 A 
ATOM      6  C   UNL     1       3.546   6.647  17.753  0.00  0.00    +0.000 A 
ENDROOT
BRANCH   6   7
ATOM      7  N   UNL     1       2.808   7.554  18.491  0.00  0.00    +0.000 N 
ATOM      8  C   UNL     1       2.506   8.921  17.973  0.00  0.00    +0.000 C 
ATOM      9  C   UNL     1       1.010   9.262  18.191  0.00  0.00    +0.000 C 
ATOM     10  N   UNL     1       0.725   9.107  19.617  0.00  0.00    +0.000 N 
ATOM     11  C   UNL     1       0.025  10.061  20.307  0.00  0.00    +0.000 A 
ATOM     12  C   UNL     1       0.271  10.262  21.667  0.00  0.00    +0.000 A 
ATOM     13  C   UNL     1      -0.418  11.245  22.367  0.00  0.00    +0.000 A 
ATOM     14  C   UNL     1      -1.355  12.011  21.695  0.00  0.00    +0.000 A 
ATOM     15  C   UNL     1      -1.543  11.766  20.346  0.00  0.00    +0.000 A 
ATOM     16  N   UNL     1      -0.864  10.830  19.647  0.00  0.00    +0.000 NA
ATOM     17  C   UNL     1       0.974   7.772  20.158  0.00  0.00    +0.000 C 
ATOM     18  C   UNL     1       2.447   7.382  19.918  0.00  0.00    +0.000 C 
ENDBRANCH   6   7
BRANCH   3  19
ATOM     19  C   UNL     1       6.064   4.061  15.242  0.00  0.00    +0.000 C 
ATOM     20  F   UNL     1       5.790   4.126  13.910  0.00  0.00    +0.000 F 
ATOM     21  F   UNL     1       7.379   4.383  15.374  0.00  0.00    +0.000 F 
ATOM     22  F   UNL     1       5.958   2.748  15.582  0.00  0.00    +0.000 F 
ENDBRANCH   3  19
BRANCH   1  24
ATOM     23  O   UNL     1       1.382   4.386  18.312  0.00  0.00    +0.000 OA
ATOM     24  N   UNL     1       2.555   4.538  18.674  0.00  0.00    +0.000 N 
ATOM     25  O   UNL     1       3.044   4.101  19.724  0.00  0.00    +0.000 OA
ENDBRANCH   1  24
TORSDOF 3
ENDMDL
MODEL 8
REMARK VINA RESULT:      -6.9      5.707      8.459
REMARK  Name = 
REMARK  3 active torsions:
REMARK  status: ('A' for Active; 'I' for Inactive)
REMARK    1  A    between atoms: N_2  and  C_4
REMARK    2  A    between atoms: C_6  and  C_7
REMARK    3  A    between atoms: C_13  and  N_14
REMARK                            x       y       z     vdW  Elec       q    Type
REMARK                         _______ _______ _______ _____ _____    ______ ____
ROOT
ATOM      1  C   UNL     1      -0.491  12.137  18.770  0.00  0.00    +0.000 A 
ATOM      2  C   UNL     1      -0.595  13.541  18.670  0.00  0.00    +0.000 A 
ATOM      3  C   UNL     1       0.526  14.346  18.871  0.00  0.00    +0.000 A 
ATOM      4  C   UNL     1       1.727  13.725  19.216  0.00  0.00    +0.000 A 
ATOM      5  C   UNL     1       1.803  12.330  19.333  0.00  0.00    +0.000 A 
ATOM      6  C   UNL     1       0.709  11.470  19.093  0.00  0.00    +0.000 A 
ENDROOT
BRANCH   6   7
ATOM      7  N   UNL     1       0.901  10.110  19.248  0.00  0.00    +0.000 N 
ATOM      8  C   UNL     1       1.309   9.242  18.104  0.00  0.00    +0.000 C 
ATOM      9  C   UNL     1       2.461   8.296  18.528  0.00  0.00    +0.000 C 
ATOM     10  N   UNL     1       2.004   7.540  19.694  0.00  0.00    +0.000 N 
ATOM     11  C   UNL     1       2.183   6.185  19.774  0.00  0.00    +0.000 A 
ATOM     12  C   UNL     1       1.274   5.399  20.485  0.00  0.00    +0.000 A 
ATOM     13  C   UNL     1       1.437   4.021  20.549  0.00  0.00    +0.000 A 
ATOM     14  C   UNL     1       2.518   3.445  19.904  0.00  0.00    +0.000 A 
ATOM     15  C   UNL     1       3.375   4.280  19.208  0.00  0.00    +0.000 A 
ATOM     16  N   UNL     1       3.217   5.619  19.118  0.00  0.00    +0.000 NA
ATOM     17  C   UNL     1       1.629   8.351  20.851  0.00  0.00    +0.000 C 
ATOM     18  C   UNL     1       0.512   9.337  20.452  0.00  0.00    +0.000 C 
ENDBRANCH   6   7
BRANCH   3  19
ATOM     19  C   UNL     1       0.464  15.842  18.700  0.00  0.00    +0.000 C 
ATOM     20  F   UNL     1      -0.592  16.255  17.946  0.00  0.00    +0.000 F 
ATOM     21  F   UNL     1       0.361  16.500  19.886  0.00  0.00    +0.000 F 
ATOM     22  F   UNL     1       1.576  16.335  18.088  0.00  0.00    +0.000 F 
ENDBRANCH   3  19
BRANCH   1  24
ATOM     23  O   UNL     1      -2.665  11.568  19.218  0.00  0.00    +0.000 OA
ATOM     24  N   UNL     1      -1.710  11.424  18.445  0.00  0.00    +0.000 N 
ATOM     25  O   UNL     1      -1.728  10.762  17.398  0.00  0.00    +0.000 OA
ENDBRANCH   1  24
TORSDOF 3
ENDMDL
MODEL 9
REMARK VINA RESULT:      -6.8      3.805      5.044
REMARK  Name = 
REMARK  3 active torsions:
REMARK  status: ('A' for Active; 'I' for Inactive)
REMARK    1  A    between atoms: N_2  and  C_4
REMARK    2  A    between atoms: C_6  and  C_7
REMARK    3  A    between atoms: C_13  and  N_14
REMARK                            x       y       z     vdW  Elec       q    Type
REMARK                         _______ _______ _______ _____ _____    ______ ____
ROOT
ATOM      1  C   UNL     1       1.261   8.846  20.296  0.00  0.00    +0.000 A 
ATOM      2  C   UNL     1       1.742   7.545  20.038  0.00  0.00    +0.000 A 
ATOM      3  C   UNL     1       2.307   7.235  18.801  0.00  0.00    +0.000 A 
ATOM      4  C   UNL     1       2.337   8.232  17.825  0.00  0.00    +0.000 A 
ATOM      5  C   UNL     1       1.833   9.512  18.095  0.00  0.00    +0.000 A 
ATOM      6  C   UNL     1       1.295   9.888  19.345  0.00  0.00    +0.000 A 
ENDROOT
BRANCH   6   7
ATOM      7  N   UNL     1       0.820  11.177  19.491  0.00  0.00    +0.000 N 
ATOM      8  C   UNL     1       1.744  12.340  19.636  0.00  0.00    +0.000 C 
ATOM      9  C   UNL     1       1.299  13.502  18.711  0.00  0.00    +0.000 C 
ATOM     10  N   UNL     1      -0.089  13.821  19.041  0.00  0.00    +0.000 N 
ATOM     11  C   UNL     1      -0.494  15.117  19.217  0.00  0.00    +0.000 A 
ATOM     12  C   UNL     1      -1.543  15.410  20.092  0.00  0.00    +0.000 A 
ATOM     13  C   UNL     1      -1.942  16.726  20.294  0.00  0.00    +0.000 A 
ATOM     14  C   UNL     1      -1.289  17.735  19.607  0.00  0.00    +0.000 A 
ATOM     15  C   UNL     1      -0.253  17.377  18.764  0.00  0.00    +0.000 A 
ATOM     16  N   UNL     1       0.162  16.105  18.574  0.00  0.00    +0.000 NA
ATOM     17  C   UNL     1      -1.035  12.719  18.879  0.00  0.00    +0.000 C 
ATOM     18  C   UNL     1      -0.597  11.527  19.755  0.00  0.00    +0.000 C 
ENDBRANCH   6   7
BRANCH   3  19
ATOM     19  C   UNL     1       2.895   5.877  18.519  0.00  0.00    +0.000 C 
ATOM     20  F   UNL     1       1.955   4.929  18.251  0.00  0.00    +0.000 F 
ATOM     21  F   UNL     1       3.740   5.883  17.454  0.00  0.00    +0.000 F 
ATOM     22  F   UNL     1       3.615   5.401  19.572  0.00  0.00    +0.000 F 
ENDBRANCH   3  19
BRANCH   1  24
ATOM     23  O   UNL     1       1.553   9.629  22.431  0.00  0.00    +0.000 OA
ATOM     24  N   UNL     1       0.787   9.049  21.651  0.00  0.00    +0.000 N 
ATOM     25  O   UNL     1      -0.362   8.673  21.920  0.00  0.00    +0.000 OA
ENDBRANCH   1  24
TORSDOF 3
ENDMDL
