MODEL 1
REMARK VINA RESULT:      -7.2      0.000      0.000
REMARK  Name = 
REMARK  8 active torsions:
REMARK  status: ('A' for Active; 'I' for Inactive)
REMARK    1  A    between atoms: C_1  and  C_2
REMARK    2  A    between atoms: C_2  and  C_3
REMARK    3  A    between atoms: C_2  and  C_4
REMARK    4  A    between atoms: C_2  and  O_5
REMARK    5  A    between atoms: O_5  and  C_6
REMARK    6  A    between atoms: N_8  and  C_9
REMARK    7  A    between atoms: C_9  and  C_10
REMARK    8  A    between atoms: C_11  and  C_12
REMARK                            x       y       z     vdW  Elec       q    Type
REMARK                         _______ _______ _______ _____ _____    ______ ____
ROOT
ATOM      1  C   UNL     1       7.497   7.240  17.250  0.00  0.00    +0.000 C 
ENDROOT
BRANCH   1   4
ATOM      2  C   UNL     1       7.013   5.046  18.127  0.00  0.00    +0.000 C 
ATOM      3  O   UNL     1       7.773   4.518  17.329  0.00  0.00    +0.000 OA
ATOM      4  N   UNL     1       6.784   6.389  18.163  0.00  0.00    +0.000 N 
ATOM      5  H   UNL     1       6.183   6.760  18.886  0.00  0.00    +0.000 HD
BRANCH   2   6
ATOM      6  O   UNL     1       6.303   4.407  19.092  0.00  0.00    +0.000 OA
BRANCH   6   8
ATOM      7  C   UNL     1       4.480   2.824  19.585  0.00  0.00    +0.000 C 
ATOM      8  C   UNL     1       4.903   4.097  18.840  0.00  0.00    +0.000 C 
ATOM      9  C   UNL     1       4.605   4.012  17.337  0.00  0.00    +0.000 C 
ATOM     10  C   UNL     1       4.092   5.271  19.419  0.00  0.00    +0.000 C 
ENDBRANCH   6   8
ENDBRANCH   2   6
ENDBRANCH   1   4
BRANCH   1  11
ATOM     11  C   UNL     1       8.122   8.381  17.916  0.00  0.00    +0.000 C 
ATOM     12  C   UNL     1       8.627   9.366  18.380  0.00  0.00    +0.000 C 
BRANCH  12  13
ATOM     13  C   UNL     1       9.255  10.553  18.876  0.00  0.00    +0.000 A 
ATOM     14  C   UNL     1       9.535  10.695  20.240  0.00  0.00    +0.000 A 
ATOM     15  C   UNL     1      10.141  11.863  20.715  0.00  0.00    +0.000 A 
ATOM     16  C   UNL     1      10.464  12.888  19.825  0.00  0.00    +0.000 A 
ATOM     17  C   UNL     1      10.174  12.738  18.473  0.00  0.00    +0.000 A 
ATOM     18  F   UNL     1      10.480  13.725  17.621  0.00  0.00    +0.000 F 
ATOM     19  C   UNL     1       9.571  11.583  17.991  0.00  0.00    +0.000 A 
ENDBRANCH  12  13
ENDBRANCH   1  11
TORSDOF 5
ENDMDL
MODEL 2
REMARK VINA RESULT:      -7.2      1.147      1.890
REMARK  Name = 
REMARK  8 active torsions:
REMARK  status: ('A' for Active; 'I' for Inactive)
REMARK    1  A    between atoms: C_1  and  C_2
REMARK    2  A    between atoms: C_2  and  C_3
REMARK    3  A    between atoms: C_2  and  C_4
REMARK    4  A    between atoms: C_2  and  O_5
REMARK    5  A    between atoms: O_5  and  C_6
REMARK    6  A    between atoms: N_8  and  C_9
REMARK    7  A    between atoms: C_9  and  C_10
REMARK    8  A    between atoms: C_11  and  C_12
REMARK                            x       y       z     vdW  Elec       q    Type
REMARK                         _______ _______ _______ _____ _____    ______ ____
ROOT
ATOM      1  C   UNL     1       7.432   7.293  17.232  0.00  0.00    +0.000 C 
ENDROOT
BRANCH   1   4
ATOM      2  C   UNL     1       6.992   5.099  18.131  0.00  0.00    +0.000 C 
ATOM      3  O   UNL     1       7.773   4.579  17.347  0.00  0.00    +0.000 OA
ATOM      4  N   UNL     1       6.731   6.436  18.148  0.00  0.00    +0.000 N 
ATOM      5  H   UNL     1       6.113   6.801  18.860  0.00  0.00    +0.000 HD
BRANCH   2   6
ATOM      6  O   UNL     1       6.288   4.455  19.096  0.00  0.00    +0.000 OA
BRANCH   6   8
ATOM      7  C   UNL     1       4.553   4.020  17.400  0.00  0.00    +0.000 C 
ATOM      8  C   UNL     1       4.865   4.225  18.888  0.00  0.00    +0.000 C 
ATOM      9  C   UNL     1       4.016   5.343  19.508  0.00  0.00    +0.000 C 
ATOM     10  C   UNL     1       4.530   2.913  19.623  0.00  0.00    +0.000 C 
ENDBRANCH   6   8
ENDBRANCH   2   6
ENDBRANCH   1   4
BRANCH   1  11
ATOM     11  C   UNL     1       8.133   8.383  17.907  0.00  0.00    +0.000 C 
ATOM     12  C   UNL     1       8.685   9.335  18.386  0.00  0.00    +0.000 C 
BRANCH  12  13
ATOM     13  C   UNL     1       9.358  10.490  18.899  0.00  0.00    +0.000 A 
ATOM     14  C   UNL     1      10.100  11.319  18.051  0.00  0.00    +0.000 A 
ATOM     15  C   UNL     1      10.761  12.440  18.564  0.00  0.00    +0.000 A 
ATOM     16  C   UNL     1      10.679  12.729  19.926  0.00  0.00    +0.000 A 
ATOM     17  C   UNL     1       9.945  11.893  20.761  0.00  0.00    +0.000 A 
ATOM     18  F   UNL     1       9.871  12.169  22.070  0.00  0.00    +0.000 F 
ATOM     19  C   UNL     1       9.285  10.777  20.262  0.00  0.00    +0.000 A 
ENDBRANCH  12  13
ENDBRANCH   1  11
TORSDOF 5
ENDMDL
MODEL 3
REMARK VINA RESULT:      -7.2      0.249      1.049
REMARK  Name = 
REMARK  8 active torsions:
REMARK  status: ('A' for Active; 'I' for Inactive)
REMARK    1  A    between atoms: C_1  and  C_2
REMARK    2  A    between atoms: C_2  and  C_3
REMARK    3  A    between atoms: C_2  and  C_4
REMARK    4  A    between atoms: C_2  and  O_5
REMARK    5  A    between atoms: O_5  and  C_6
REMARK    6  A    between atoms: N_8  and  C_9
REMARK    7  A    between atoms: C_9  and  C_10
REMARK    8  A    between atoms: C_11  and  C_12
REMARK                            x       y       z     vdW  Elec       q    Type
REMARK                         _______ _______ _______ _____ _____    ______ ____
ROOT
ATOM      1  C   UNL     1       7.528   7.056  17.292  0.00  0.00    +0.000 C 
ENDROOT
BRANCH   1   4
ATOM      2  C   UNL     1       6.890   5.033  18.439  0.00  0.00    +0.000 C 
ATOM      3  O   UNL     1       7.735   4.382  17.842  0.00  0.00    +0.000 OA
ATOM      4  N   UNL     1       6.686   6.363  18.230  0.00  0.00    +0.000 N 
ATOM      5  H   UNL     1       6.005   6.846  18.799  0.00  0.00    +0.000 HD
BRANCH   2   6
ATOM      6  O   UNL     1       6.049   4.558  19.394  0.00  0.00    +0.000 OA
BRANCH   6   8
ATOM      7  C   UNL     1       4.604   3.957  17.488  0.00  0.00    +0.000 C 
ATOM      8  C   UNL     1       4.701   4.165  19.006  0.00  0.00    +0.000 C 
ATOM      9  C   UNL     1       3.653   5.162  19.521  0.00  0.00    +0.000 C 
ATOM     10  C   UNL     1       4.438   2.808  19.684  0.00  0.00    +0.000 C 
ENDBRANCH   6   8
ENDBRANCH   2   6
ENDBRANCH   1   4
BRANCH   1  11
ATOM     11  C   UNL     1       8.036   8.320  17.820  0.00  0.00    +0.000 C 
ATOM     12  C   UNL     1       8.542   9.321  18.248  0.00  0.00    +0.000 C 
BRANCH  12  13
ATOM     13  C   UNL     1       9.190  10.479  18.787  0.00  0.00    +0.000 A 
ATOM     14  C   UNL     1       9.437  10.583  20.160  0.00  0.00    +0.000 A 
ATOM     15  C   UNL     1      10.064  11.723  20.676  0.00  0.00    +0.000 A 
ATOM     16  C   UNL     1      10.439  12.756  19.818  0.00  0.00    +0.000 A 
ATOM     17  C   UNL     1      10.180  12.644  18.456  0.00  0.00    +0.000 A 
ATOM     18  F   UNL     1      10.537  13.640  17.634  0.00  0.00    +0.000 F 
ATOM     19  C   UNL     1       9.558  11.517  17.932  0.00  0.00    +0.000 A 
ENDBRANCH  12  13
ENDBRANCH   1  11
TORSDOF 5
ENDMDL
MODEL 4
REMARK VINA RESULT:      -7.1      5.936      7.274
REMARK  Name = 
REMARK  8 active torsions:
REMARK  status: ('A' for Active; 'I' for Inactive)
REMARK    1  A    between atoms: C_1  and  C_2
REMARK    2  A    between atoms: C_2  and  C_3
REMARK    3  A    between atoms: C_2  and  C_4
REMARK    4  A    between atoms: C_2  and  O_5
REMARK    5  A    between atoms: O_5  and  C_6
REMARK    6  A    between atoms: N_8  and  C_9
REMARK    7  A    between atoms: C_9  and  C_10
REMARK    8  A    between atoms: C_11  and  C_12
REMARK                            x       y       z     vdW  Elec       q    Type
REMARK                         _______ _______ _______ _____ _____    ______ ____
ROOT
ATOM      1  C   UNL     1       6.199   4.986  18.601  0.00  0.00    +0.000 C 
ENDROOT
BRANCH   1   4
ATOM      2  C   UNL     1       4.331   3.722  19.456  0.00  0.00    +0.000 C 
ATOM      3  O   UNL     1       5.052   2.776  19.738  0.00  0.00    +0.000 OA
ATOM      4  N   UNL     1       4.792   4.862  18.870  0.00  0.00    +0.000 N 
ATOM      5  H   UNL     1       4.146   5.624  18.715  0.00  0.00    +0.000 HD
BRANCH   2   6
ATOM      6  O   UNL     1       2.996   3.801  19.688  0.00  0.00    +0.000 OA
BRANCH   6   8
ATOM      7  C   UNL     1       2.693   2.138  17.894  0.00  0.00    +0.000 C 
ATOM      8  C   UNL     1       2.079   3.312  18.669  0.00  0.00    +0.000 C 
ATOM      9  C   UNL     1       1.617   4.441  17.736  0.00  0.00    +0.000 C 
ATOM     10  C   UNL     1       0.843   2.784  19.420  0.00  0.00    +0.000 C 
ENDBRANCH   6   8
ENDBRANCH   2   6
ENDBRANCH   1   4
BRANCH   1  11
ATOM     11  C   UNL     1       6.512   4.866  17.178  0.00  0.00    +0.000 C 
ATOM     12  C   UNL     1       6.674   4.759  15.994  0.00  0.00    +0.000 C 
BRANCH  12  13
ATOM     13  C   UNL     1       6.817   4.593  14.579  0.00  0.00    +0.000 A 
ATOM     14  C   UNL     1       7.710   5.390  13.854  0.00  0.00    +0.000 A 
ATOM     15  C   UNL     1       7.835   5.225  12.471  0.00  0.00    +0.000 A 
ATOM     16  C   UNL     1       7.065   4.266  11.814  0.00  0.00    +0.000 A 
ATOM     17  C   UNL     1       6.174   3.485  12.544  0.00  0.00    +0.000 A 
ATOM     18  F   UNL     1       5.432   2.567  11.912  0.00  0.00    +0.000 F 
ATOM     19  C   UNL     1       6.042   3.640  13.919  0.00  0.00    +0.000 A 
ENDBRANCH  12  13
ENDBRANCH   1  11
TORSDOF 5
ENDMDL
MODEL 5
REMARK VINA RESULT:      -7.0      1.236      1.921
REMARK  Name = 
REMARK  8 active torsions:
REMARK  status: ('A' for Active; 'I' for Inactive)
REMARK    1  A    between atoms: C_1  and  C_2
REMARK    2  A    between atoms: C_2  and  C_3
REMARK    3  A    between atoms: C_2  and  C_4
REMARK    4  A    between atoms: C_2  and  O_5
REMARK    5  A    between atoms: O_5  and  C_6
REMARK    6  A    between atoms: N_8  and  C_9
REMARK    7  A    between atoms: C_9  and  C_10
REMARK    8  A    between atoms: C_11  and  C_12
REMARK                            x       y       z     vdW  Elec       q    Type
REMARK                         _______ _______ _______ _____ _____    ______ ____
ROOT
ATOM      1  C   UNL     1       7.573   7.479  17.299  0.00  0.00    +0.000 C 
ENDROOT
BRANCH   1   4
ATOM      2  C   UNL     1       7.066   5.224  17.988  0.00  0.00    +0.000 C 
ATOM      3  O   UNL     1       7.701   4.755  17.056  0.00  0.00    +0.000 OA
ATOM      4  N   UNL     1       6.919   6.563  18.194  0.00  0.00    +0.000 N 
ATOM      5  H   UNL     1       6.425   6.876  19.017  0.00  0.00    +0.000 HD
BRANCH   2   6
ATOM      6  O   UNL     1       6.433   4.513  18.956  0.00  0.00    +0.000 OA
BRANCH   6   8
ATOM      7  C   UNL     1       4.202   5.486  19.341  0.00  0.00    +0.000 C 
ATOM      8  C   UNL     1       5.001   4.280  18.830  0.00  0.00    +0.000 C 
ATOM      9  C   UNL     1       4.579   2.974  19.517  0.00  0.00    +0.000 C 
ATOM     10  C   UNL     1       4.721   4.135  17.323  0.00  0.00    +0.000 C 
ENDBRANCH   6   8
ENDBRANCH   2   6
ENDBRANCH   1   4
BRANCH   1  11
ATOM     11  C   UNL     1       8.202   8.597  18.000  0.00  0.00    +0.000 C 
ATOM     12  C   UNL     1       8.779   9.521  18.501  0.00  0.00    +0.000 C 
BRANCH  12  13
ATOM     13  C   UNL     1       9.523  10.604  19.073  0.00  0.00    +0.000 A 
ATOM     14  C   UNL     1      10.483  11.286  18.319  0.00  0.00    +0.000 A 
ATOM     15  C   UNL     1      11.209  12.336  18.890  0.00  0.00    +0.000 A 
ATOM     16  C   UNL     1      10.975  12.700  20.216  0.00  0.00    +0.000 A 
ATOM     17  C   UNL     1      10.023  12.009  20.958  0.00  0.00    +0.000 A 
ATOM     18  F   UNL     1       9.803  12.357  22.233  0.00  0.00    +0.000 F 
ATOM     19  C   UNL     1       9.297  10.964  20.401  0.00  0.00    +0.000 A 
ENDBRANCH  12  13
ENDBRANCH   1  11
TORSDOF 5
ENDMDL
MODEL 6
REMARK VINA RESULT:      -6.9      1.530      2.139
REMARK  Name = 
REMARK  8 active torsions:
REMARK  status: ('A' for Active; 'I' for Inactive)
REMARK    1  A    between atoms: C_1  and  C_2
REMARK    2  A    between atoms: C_2  and  C_3
REMARK    3  A    between atoms: C_2  and  C_4
REMARK    4  A    between atoms: C_2  and  O_5
REMARK    5  A    between atoms: O_5  and  C_6
REMARK    6  A    between atoms: N_8  and  C_9
REMARK    7  A    between atoms: C_9  and  C_10
REMARK    8  A    between atoms: C_11  and  C_12
REMARK                            x       y       z     vdW  Elec       q    Type
REMARK                         _______ _______ _______ _____ _____    ______ ____
ROOT
ATOM      1  C   UNL     1       7.406   6.467  17.572  0.00  0.00    +0.000 C 
ENDROOT
BRANCH   1   4
ATOM      2  C   UNL     1       5.565   5.350  18.657  0.00  0.00    +0.000 C 
ATOM      3  O   UNL     1       6.319   4.567  19.215  0.00  0.00    +0.000 OA
ATOM      4  N   UNL     1       5.995   6.321  17.804  0.00  0.00    +0.000 N 
ATOM      5  H   UNL     1       5.318   6.966  17.421  0.00  0.00    +0.000 HD
BRANCH   2   6
ATOM      6  O   UNL     1       4.216   5.395  18.802  0.00  0.00    +0.000 OA
BRANCH   6   8
ATOM      7  C   UNL     1       4.080   3.884  16.859  0.00  0.00    +0.000 C 
ATOM      8  C   UNL     1       3.408   4.374  18.148  0.00  0.00    +0.000 C 
ATOM      9  C   UNL     1       1.973   4.862  17.903  0.00  0.00    +0.000 C 
ATOM     10  C   UNL     1       3.344   3.186  19.125  0.00  0.00    +0.000 C 
ENDBRANCH   6   8
ENDBRANCH   2   6
ENDBRANCH   1   4
BRANCH   1  11
ATOM     11  C   UNL     1       7.873   7.835  17.790  0.00  0.00    +0.000 C 
ATOM     12  C   UNL     1       8.283   8.930  18.058  0.00  0.00    +0.000 C 
BRANCH  12  13
ATOM     13  C   UNL     1       8.755  10.228  18.438  0.00  0.00    +0.000 A 
ATOM     14  C   UNL     1       8.443  11.353  17.668  0.00  0.00    +0.000 A 
ATOM     15  C   UNL     1       8.916  12.615  18.044  0.00  0.00    +0.000 A 
ATOM     16  C   UNL     1       9.703  12.748  19.188  0.00  0.00    +0.000 A 
ATOM     17  C   UNL     1      10.013  11.620  19.941  0.00  0.00    +0.000 A 
ATOM     18  F   UNL     1      10.772  11.748  21.037  0.00  0.00    +0.000 F 
ATOM     19  C   UNL     1       9.549  10.362  19.577  0.00  0.00    +0.000 A 
ENDBRANCH  12  13
ENDBRANCH   1  11
TORSDOF 5
ENDMDL
MODEL 7
REMARK VINA RESULT:      -6.9      4.322      8.474
REMARK  Name = 
REMARK  8 active torsions:
REMARK  status: ('A' for Active; 'I' for Inactive)
REMARK    1  A    between atoms: C_1  and  C_2
REMARK    2  A    between atoms: C_2  and  C_3
REMARK    3  A    between atoms: C_2  and  C_4
REMARK    4  A    between atoms: C_2  and  O_5
REMARK    5  A    between atoms: O_5  and  C_6
REMARK    6  A    between atoms: N_8  and  C_9
REMARK    7  A    between atoms: C_9  and  C_10
REMARK    8  A    between atoms: C_11  and  C_12
REMARK                            x       y       z     vdW  Elec       q    Type
REMARK                         _______ _______ _______ _____ _____    ______ ____
ROOT
ATOM      1  C   UNL     1       5.367   4.260  15.322  0.00  0.00    +0.000 C 
ENDROOT
BRANCH   1   4
ATOM      2  C   UNL     1       7.289   5.424  16.201  0.00  0.00    +0.000 C 
ATOM      3  O   UNL     1       7.851   4.372  16.469  0.00  0.00    +0.000 OA
ATOM      4  N   UNL     1       6.045   5.486  15.649  0.00  0.00    +0.000 N 
ATOM      5  H   UNL     1       5.666   6.390  15.406  0.00  0.00    +0.000 HD
BRANCH   2   6
ATOM      6  O   UNL     1       7.799   6.668  16.388  0.00  0.00    +0.000 OA
BRANCH   6   8
ATOM      7  C   UNL     1       5.900   7.450  17.751  0.00  0.00    +0.000 C 
ATOM      8  C   UNL     1       7.425   7.404  17.587  0.00  0.00    +0.000 C 
ATOM      9  C   UNL     1       8.051   8.806  17.607  0.00  0.00    +0.000 C 
ATOM     10  C   UNL     1       8.001   6.611  18.775  0.00  0.00    +0.000 C 
ENDBRANCH   6   8
ENDBRANCH   2   6
ENDBRANCH   1   4
BRANCH   1  11
ATOM     11  C   UNL     1       4.438   3.837  16.367  0.00  0.00    +0.000 C 
ATOM     12  C   UNL     1       3.693   3.573  17.270  0.00  0.00    +0.000 C 
BRANCH  12  13
ATOM     13  C   UNL     1       2.843   3.289  18.387  0.00  0.00    +0.000 A 
ATOM     14  C   UNL     1       1.451   3.349  18.258  0.00  0.00    +0.000 A 
ATOM     15  C   UNL     1       0.631   3.078  19.357  0.00  0.00    +0.000 A 
ATOM     16  C   UNL     1       1.204   2.750  20.586  0.00  0.00    +0.000 A 
ATOM     17  C   UNL     1       2.589   2.702  20.705  0.00  0.00    +0.000 A 
ATOM     18  F   UNL     1       3.138   2.392  21.887  0.00  0.00    +0.000 F 
ATOM     19  C   UNL     1       3.414   2.970  19.619  0.00  0.00    +0.000 A 
ENDBRANCH  12  13
ENDBRANCH   1  11
TORSDOF 5
ENDMDL
MODEL 8
REMARK VINA RESULT:      -6.9      4.151      8.314
REMARK  Name = 
REMARK  8 active torsions:
REMARK  status: ('A' for Active; 'I' for Inactive)
REMARK    1  A    between atoms: C_1  and  C_2
REMARK    2  A    between atoms: C_2  and  C_3
REMARK    3  A    between atoms: C_2  and  C_4
REMARK    4  A    between atoms: C_2  and  O_5
REMARK    5  A    between atoms: O_5  and  C_6
REMARK    6  A    between atoms: N_8  and  C_9
REMARK    7  A    between atoms: C_9  and  C_10
REMARK    8  A    between atoms: C_11  and  C_12
REMARK                            x       y       z     vdW  Elec       q    Type
REMARK                         _______ _______ _______ _____ _____    ______ ____
ROOT
ATOM      1  C   UNL     1       5.913   3.560  15.653  0.00  0.00    +0.000 C 
ENDROOT
BRANCH   1   4
ATOM      2  C   UNL     1       6.752   5.819  15.760  0.00  0.00    +0.000 C 
ATOM      3  O   UNL     1       5.881   6.218  15.001  0.00  0.00    +0.000 OA
ATOM      4  N   UNL     1       6.874   4.515  16.135  0.00  0.00    +0.000 N 
ATOM      5  H   UNL     1       7.586   4.267  16.807  0.00  0.00    +0.000 HD
BRANCH   2   6
ATOM      6  O   UNL     1       7.704   6.584  16.351  0.00  0.00    +0.000 OA
BRANCH   6   8
ATOM      7  C   UNL     1       5.864   7.336  17.810  0.00  0.00    +0.000 C 
ATOM      8  C   UNL     1       7.383   7.258  17.601  0.00  0.00    +0.000 C 
ATOM      9  C   UNL     1       8.049   8.639  17.685  0.00  0.00    +0.000 C 
ATOM     10  C   UNL     1       7.967   6.382  18.724  0.00  0.00    +0.000 C 
ENDBRANCH   6   8
ENDBRANCH   2   6
ENDBRANCH   1   4
BRANCH   1  11
ATOM     11  C   UNL     1       4.719   3.492  16.492  0.00  0.00    +0.000 C 
ATOM     12  C   UNL     1       3.788   3.482  17.250  0.00  0.00    +0.000 C 
BRANCH  12  13
ATOM     13  C   UNL     1       2.720   3.465  18.203  0.00  0.00    +0.000 A 
ATOM     14  C   UNL     1       1.818   2.396  18.244  0.00  0.00    +0.000 A 
ATOM     15  C   UNL     1       0.772   2.394  19.173  0.00  0.00    +0.000 A 
ATOM     16  C   UNL     1       0.629   3.462  20.058  0.00  0.00    +0.000 A 
ATOM     17  C   UNL     1       1.527   4.523  20.003  0.00  0.00    +0.000 A 
ATOM     18  F   UNL     1       1.386   5.550  20.851  0.00  0.00    +0.000 F 
ATOM     19  C   UNL     1       2.569   4.536  19.084  0.00  0.00    +0.000 A 
ENDBRANCH  12  13
ENDBRANCH   1  11
TORSDOF 5
ENDMDL
MODEL 9
REMARK VINA RESULT:      -6.9      1.583      1.742
REMARK  Name = 
REMARK  8 active torsions:
REMARK  status: ('A' for Active; 'I' for Inactive)
REMARK    1  A    between atoms: C_1  and  C_2
REMARK    2  A    between atoms: C_2  and  C_3
REMARK    3  A    between atoms: C_2  and  C_4
REMARK    4  A    between atoms: C_2  and  O_5
REMARK    5  A    between atoms: O_5  and  C_6
REMARK    6  A    between atoms: N_8  and  C_9
REMARK    7  A    between atoms: C_9  and  C_10
REMARK    8  A    between atoms: C_11  and  C_12
REMARK                            x       y       z     vdW  Elec       q    Type
REMARK                         _______ _______ _______ _____ _____    ______ ____
ROOT
ATOM      1  C   UNL     1       7.332   7.234  17.070  0.00  0.00    +0.000 C 
ENDROOT
BRANCH   1   4
ATOM      2  C   UNL     1       5.012   6.681  16.715  0.00  0.00    +0.000 C 
ATOM      3  O   UNL     1       5.188   6.549  15.513  0.00  0.00    +0.000 OA
ATOM      4  N   UNL     1       6.002   7.039  17.579  0.00  0.00    +0.000 N 
ATOM      5  H   UNL     1       5.795   7.077  18.567  0.00  0.00    +0.000 HD
BRANCH   2   6
ATOM      6  O   UNL     1       3.841   6.484  17.374  0.00  0.00    +0.000 OA
BRANCH   6   8
ATOM      7  C   UNL     1       3.908   5.269  19.518  0.00  0.00    +0.000 C 
ATOM      8  C   UNL     1       3.608   5.197  18.014  0.00  0.00    +0.000 C 
ATOM      9  C   UNL     1       4.389   4.072  17.322  0.00  0.00    +0.000 C 
ATOM     10  C   UNL     1       2.105   4.902  17.850  0.00  0.00    +0.000 C 
ENDBRANCH   6   8
ENDBRANCH   2   6
ENDBRANCH   1   4
BRANCH   1  11
ATOM     11  C   UNL     1       8.029   8.338  17.726  0.00  0.00    +0.000 C 
ATOM     12  C   UNL     1       8.532   9.304  18.231  0.00  0.00    +0.000 C 
BRANCH  12  13
ATOM     13  C   UNL     1       9.110  10.491  18.786  0.00  0.00    +0.000 A 
ATOM     14  C   UNL     1       9.456  10.549  20.140  0.00  0.00    +0.000 A 
ATOM     15  C   UNL     1      10.012  11.717  20.673  0.00  0.00    +0.000 A 
ATOM     16  C   UNL     1      10.219  12.825  19.852  0.00  0.00    +0.000 A 
ATOM     17  C   UNL     1       9.863  12.757  18.508  0.00  0.00    +0.000 A 
ATOM     18  F   UNL     1      10.057  13.823  17.721  0.00  0.00    +0.000 F 
ATOM     19  C   UNL     1       9.309  11.603  17.968  0.00  0.00    +0.000 A 
ENDBRANCH  12  13
ENDBRANCH   1  11
TORSDOF 5
ENDMDL
