MODEL 1
REMARK VINA RESULT:      -7.2      0.000      0.000
REMARK  Name = 
REMARK  5 active torsions:
REMARK  status: ('A' for Active; 'I' for Inactive)
REMARK    1  A    between atoms: C_1  and  N_2
REMARK    2  A    between atoms: C_3  and  N_4
REMARK    3  A    between atoms: C_9  and  C_10
REMARK    4  A    between atoms: C_10  and  C_12
REMARK    5  A    between atoms: C_12  and  C_14
REMARK                            x       y       z     vdW  Elec       q    Type
REMARK                         _______ _______ _______ _____ _____    ______ ____
ROOT
ATOM      1  C   UNL     1       4.094   3.228  18.463  0.00  0.00    +0.000 C 
ATOM      2 BR   UNL     1       4.301   2.114  20.078  0.00  0.00    +0.000 Br
ENDROOT
BRANCH   1   8
ATOM      3  C   UNL     1       4.951   4.919  15.963  0.00  0.00    +0.000 C 
ATOM      4  N   UNL     1       5.597   4.943  17.257  0.00  0.00    +0.000 N 
ATOM      5  C   UNL     1       6.668   5.714  17.620  0.00  0.00    +0.000 A 
ATOM      6  C   UNL     1       6.856   5.532  18.960  0.00  0.00    +0.000 A 
ATOM      7  N   UNL     1       5.943   4.625  19.430  0.00  0.00    +0.000 NA
ATOM      8  C   UNL     1       5.214   4.238  18.393  0.00  0.00    +0.000 A 
BRANCH   5   9
ATOM      9  N   UNL     1       7.391   6.545  16.736  0.00  0.00    +0.000 N 
ATOM     10  O   UNL     1       7.632   7.695  17.127  0.00  0.00    +0.000 OA
ATOM     11  O   UNL     1       7.721   6.049  15.657  0.00  0.00    +0.000 OA
ENDBRANCH   5   9
ENDBRANCH   1   8
BRANCH   1  12
ATOM     12  C   UNL     1       2.676   3.854  18.369  0.00  0.00    +0.000 C 
ATOM     13 BR   UNL     1       1.377   2.424  18.908  0.00  0.00    +0.000 Br
BRANCH  12  14
ATOM     14  C   UNL     1       2.293   5.150  19.082  0.00  0.00    +0.000 A 
ATOM     15  C   UNL     1       1.778   5.183  20.389  0.00  0.00    +0.000 A 
ATOM     16  C   UNL     1       1.437   6.387  21.016  0.00  0.00    +0.000 A 
ATOM     17  C   UNL     1       1.623   7.591  20.350  0.00  0.00    +0.000 A 
ATOM     18 BR   UNL     1       1.133   9.213  21.186  0.00  0.00    +0.000 Br
ATOM     19  C   UNL     1       2.176   7.603  19.076  0.00  0.00    +0.000 A 
ATOM     20  C   UNL     1       2.522   6.395  18.457  0.00  0.00    +0.000 A 
ENDBRANCH  12  14
ENDBRANCH   1  12
TORSDOF 4
ENDMDL
MODEL 2
REMARK VINA RESULT:      -7.2      0.072      1.283
REMARK  Name = 
REMARK  5 active torsions:
REMARK  status: ('A' for Active; 'I' for Inactive)
REMARK    1  A    between atoms: C_1  and  N_2
REMARK    2  A    between atoms: C_3  and  N_4
REMARK    3  A    between atoms: C_9  and  C_10
REMARK    4  A    between atoms: C_10  and  C_12
REMARK    5  A    between atoms: C_12  and  C_14
REMARK                            x       y       z     vdW  Elec       q    Type
REMARK                         _______ _______ _______ _____ _____    ______ ____
ROOT
ATOM      1  C   UNL     1       4.063   3.258  18.433  0.00  0.00    +0.000 C 
ATOM      2 BR   UNL     1       4.263   2.121  20.032  0.00  0.00    +0.000 Br
ENDROOT
BRANCH   1   8
ATOM      3  C   UNL     1       4.916   4.983  15.955  0.00  0.00    +0.000 C 
ATOM      4  N   UNL     1       5.578   4.973  17.241  0.00  0.00    +0.000 N 
ATOM      5  C   UNL     1       6.665   5.721  17.607  0.00  0.00    +0.000 A 
ATOM      6  C   UNL     1       6.865   5.511  18.940  0.00  0.00    +0.000 A 
ATOM      7  N   UNL     1       5.944   4.609  19.403  0.00  0.00    +0.000 NA
ATOM      8  C   UNL     1       5.197   4.252  18.368  0.00  0.00    +0.000 A 
BRANCH   5   9
ATOM      9  N   UNL     1       7.390   6.558  16.730  0.00  0.00    +0.000 N 
ATOM     10  O   UNL     1       7.736   6.064  15.649  0.00  0.00    +0.000 OA
ATOM     11  O   UNL     1       7.608   7.708  17.118  0.00  0.00    +0.000 OA
ENDBRANCH   5   9
ENDBRANCH   1   8
BRANCH   1  12
ATOM     12  C   UNL     1       2.654   3.906  18.354  0.00  0.00    +0.000 C 
ATOM     13 BR   UNL     1       1.340   2.500  18.922  0.00  0.00    +0.000 Br
BRANCH  12  14
ATOM     14  C   UNL     1       2.301   5.213  19.064  0.00  0.00    +0.000 A 
ATOM     15  C   UNL     1       2.472   6.476  18.475  0.00  0.00    +0.000 A 
ATOM     16  C   UNL     1       2.139   7.656  19.151  0.00  0.00    +0.000 A 
ATOM     17  C   UNL     1       1.606   7.591  20.431  0.00  0.00    +0.000 A 
ATOM     18 BR   UNL     1       1.185   9.185  21.355  0.00  0.00    +0.000 Br
ATOM     19  C   UNL     1       1.375   6.359  21.029  0.00  0.00    +0.000 A 
ATOM     20  C   UNL     1       1.705   5.182  20.343  0.00  0.00    +0.000 A 
ENDBRANCH  12  14
ENDBRANCH   1  12
TORSDOF 4
ENDMDL
MODEL 3
REMARK VINA RESULT:      -6.8      4.011      6.258
REMARK  Name = 
REMARK  5 active torsions:
REMARK  status: ('A' for Active; 'I' for Inactive)
REMARK    1  A    between atoms: C_1  and  N_2
REMARK    2  A    between atoms: C_3  and  N_4
REMARK    3  A    between atoms: C_9  and  C_10
REMARK    4  A    between atoms: C_10  and  C_12
REMARK    5  A    between atoms: C_12  and  C_14
REMARK                            x       y       z     vdW  Elec       q    Type
REMARK                         _______ _______ _______ _____ _____    ______ ____
ROOT
ATOM      1  C   UNL     1       5.950   5.963  18.938  0.00  0.00    +0.000 C 
ATOM      2 BR   UNL     1       7.707   5.330  19.574  0.00  0.00    +0.000 Br
ENDROOT
BRANCH   1   8
ATOM      3  C   UNL     1       2.835   6.222  18.672  0.00  0.00    +0.000 C 
ATOM      4  N   UNL     1       3.555   5.003  18.966  0.00  0.00    +0.000 N 
ATOM      5  C   UNL     1       3.015   3.760  19.156  0.00  0.00    +0.000 A 
ATOM      6  C   UNL     1       4.055   2.883  19.259  0.00  0.00    +0.000 A 
ATOM      7  N   UNL     1       5.239   3.568  19.179  0.00  0.00    +0.000 NA
ATOM      8  C   UNL     1       4.936   4.851  19.048  0.00  0.00    +0.000 A 
BRANCH   5   9
ATOM      9  N   UNL     1       1.629   3.490  19.200  0.00  0.00    +0.000 N 
ATOM     10  O   UNL     1       1.072   3.626  20.296  0.00  0.00    +0.000 OA
ATOM     11  O   UNL     1       1.099   3.148  18.141  0.00  0.00    +0.000 OA
ENDBRANCH   5   9
ENDBRANCH   1   8
BRANCH   1  12
ATOM     12  C   UNL     1       6.039   6.595  17.522  0.00  0.00    +0.000 C 
ATOM     13 BR   UNL     1       7.608   7.846  17.547  0.00  0.00    +0.000 Br
BRANCH  12  14
ATOM     14  C   UNL     1       6.107   5.760  16.244  0.00  0.00    +0.000 A 
ATOM     15  C   UNL     1       7.313   5.436  15.602  0.00  0.00    +0.000 A 
ATOM     16  C   UNL     1       7.343   4.668  14.432  0.00  0.00    +0.000 A 
ATOM     17  C   UNL     1       6.158   4.190  13.890  0.00  0.00    +0.000 A 
ATOM     18 BR   UNL     1       6.197   3.179  12.294  0.00  0.00    +0.000 Br
ATOM     19  C   UNL     1       4.949   4.446  14.522  0.00  0.00    +0.000 A 
ATOM     20  C   UNL     1       4.928   5.209  15.697  0.00  0.00    +0.000 A 
ENDBRANCH  12  14
ENDBRANCH   1  12
TORSDOF 4
ENDMDL
MODEL 4
REMARK VINA RESULT:      -6.8      4.033      6.243
REMARK  Name = 
REMARK  5 active torsions:
REMARK  status: ('A' for Active; 'I' for Inactive)
REMARK    1  A    between atoms: C_1  and  N_2
REMARK    2  A    between atoms: C_3  and  N_4
REMARK    3  A    between atoms: C_9  and  C_10
REMARK    4  A    between atoms: C_10  and  C_12
REMARK    5  A    between atoms: C_12  and  C_14
REMARK                            x       y       z     vdW  Elec       q    Type
REMARK                         _______ _______ _______ _____ _____    ______ ____
ROOT
ATOM      1  C   UNL     1       6.065   5.953  19.027  0.00  0.00    +0.000 C 
ATOM      2 BR   UNL     1       7.864   5.311  19.518  0.00  0.00    +0.000 Br
ENDROOT
BRANCH   1   8
ATOM      3  C   UNL     1       2.961   6.269  19.356  0.00  0.00    +0.000 C 
ATOM      4  N   UNL     1       3.689   5.021  19.406  0.00  0.00    +0.000 N 
ATOM      5  C   UNL     1       3.158   3.771  19.581  0.00  0.00    +0.000 A 
ATOM      6  C   UNL     1       4.176   2.877  19.416  0.00  0.00    +0.000 A 
ATOM      7  N   UNL     1       5.344   3.553  19.182  0.00  0.00    +0.000 NA
ATOM      8  C   UNL     1       5.057   4.847  19.221  0.00  0.00    +0.000 A 
BRANCH   5   9
ATOM      9  N   UNL     1       1.797   3.513  19.853  0.00  0.00    +0.000 N 
ATOM     10  O   UNL     1       1.448   3.560  21.040  0.00  0.00    +0.000 OA
ATOM     11  O   UNL     1       1.076   3.270  18.883  0.00  0.00    +0.000 OA
ENDBRANCH   5   9
ENDBRANCH   1   8
BRANCH   1  12
ATOM     12  C   UNL     1       6.041   6.582  17.607  0.00  0.00    +0.000 C 
ATOM     13 BR   UNL     1       7.569   7.880  17.526  0.00  0.00    +0.000 Br
BRANCH  12  14
ATOM     14  C   UNL     1       6.050   5.745  16.329  0.00  0.00    +0.000 A 
ATOM     15  C   UNL     1       4.891   5.177  15.776  0.00  0.00    +0.000 A 
ATOM     16  C   UNL     1       4.931   4.415  14.602  0.00  0.00    +0.000 A 
ATOM     17  C   UNL     1       6.138   4.222  13.945  0.00  0.00    +0.000 A 
ATOM     18 BR   UNL     1       6.195   3.168  12.377  0.00  0.00    +0.000 Br
ATOM     19  C   UNL     1       7.298   4.809  14.432  0.00  0.00    +0.000 A 
ATOM     20  C   UNL     1       7.249   5.576  15.603  0.00  0.00    +0.000 A 
ENDBRANCH  12  14
ENDBRANCH   1  12
TORSDOF 4
ENDMDL
MODEL 5
REMARK VINA RESULT:      -6.8      1.223      1.487
REMARK  Name = 
REMARK  5 active torsions:
REMARK  status: ('A' for Active; 'I' for Inactive)
REMARK    1  A    between atoms: C_1  and  N_2
REMARK    2  A    between atoms: C_3  and  N_4
REMARK    3  A    between atoms: C_9  and  C_10
REMARK    4  A    between atoms: C_10  and  C_12
REMARK    5  A    between atoms: C_12  and  C_14
REMARK                            x       y       z     vdW  Elec       q    Type
REMARK                         _______ _______ _______ _____ _____    ______ ____
ROOT
ATOM      1  C   UNL     1       3.789   3.126  19.253  0.00  0.00    +0.000 C 
ATOM      2 BR   UNL     1       4.332   1.926  20.721  0.00  0.00    +0.000 Br
ENDROOT
BRANCH   1   8
ATOM      3  C   UNL     1       4.762   3.870  16.365  0.00  0.00    +0.000 C 
ATOM      4  N   UNL     1       5.369   4.318  17.598  0.00  0.00    +0.000 N 
ATOM      5  C   UNL     1       6.447   5.153  17.722  0.00  0.00    +0.000 A 
ATOM      6  C   UNL     1       6.590   5.428  19.052  0.00  0.00    +0.000 A 
ATOM      7  N   UNL     1       5.641   4.742  19.763  0.00  0.00    +0.000 NA
ATOM      8  C   UNL     1       4.935   4.039  18.890  0.00  0.00    +0.000 A 
BRANCH   5   9
ATOM      9  N   UNL     1       7.216   5.631  16.639  0.00  0.00    +0.000 N 
ATOM     10  O   UNL     1       7.838   4.785  15.983  0.00  0.00    +0.000 OA
ATOM     11  O   UNL     1       7.195   6.847  16.440  0.00  0.00    +0.000 OA
ENDBRANCH   5   9
ENDBRANCH   1   8
BRANCH   1  12
ATOM     12  C   UNL     1       2.467   3.874  19.573  0.00  0.00    +0.000 C 
ATOM     13 BR   UNL     1       2.043   3.496  21.498  0.00  0.00    +0.000 Br
BRANCH  12  14
ATOM     14  C   UNL     1       2.277   5.369  19.321  0.00  0.00    +0.000 A 
ATOM     15  C   UNL     1       2.149   6.311  20.355  0.00  0.00    +0.000 A 
ATOM     16  C   UNL     1       1.977   7.675  20.091  0.00  0.00    +0.000 A 
ATOM     17  C   UNL     1       1.951   8.128  18.780  0.00  0.00    +0.000 A 
ATOM     18 BR   UNL     1       1.688   9.965  18.425  0.00  0.00    +0.000 Br
ATOM     19  C   UNL     1       2.124   7.234  17.731  0.00  0.00    +0.000 A 
ATOM     20  C   UNL     1       2.303   5.871  18.002  0.00  0.00    +0.000 A 
ENDBRANCH  12  14
ENDBRANCH   1  12
TORSDOF 4
ENDMDL
MODEL 6
REMARK VINA RESULT:      -6.6      0.884      1.396
REMARK  Name = 
REMARK  5 active torsions:
REMARK  status: ('A' for Active; 'I' for Inactive)
REMARK    1  A    between atoms: C_1  and  N_2
REMARK    2  A    between atoms: C_3  and  N_4
REMARK    3  A    between atoms: C_9  and  C_10
REMARK    4  A    between atoms: C_10  and  C_12
REMARK    5  A    between atoms: C_12  and  C_14
REMARK                            x       y       z     vdW  Elec       q    Type
REMARK                         _______ _______ _______ _____ _____    ______ ____
ROOT
ATOM      1  C   UNL     1       3.753   3.176  19.020  0.00  0.00    +0.000 C 
ATOM      2 BR   UNL     1       3.937   2.404  20.826  0.00  0.00    +0.000 Br
ENDROOT
BRANCH   1   8
ATOM      3  C   UNL     1       4.829   3.960  16.179  0.00  0.00    +0.000 C 
ATOM      4  N   UNL     1       5.426   4.342  17.439  0.00  0.00    +0.000 N 
ATOM      5  C   UNL     1       6.539   5.121  17.614  0.00  0.00    +0.000 A 
ATOM      6  C   UNL     1       6.662   5.348  18.954  0.00  0.00    +0.000 A 
ATOM      7  N   UNL     1       5.665   4.687  19.622  0.00  0.00    +0.000 NA
ATOM      8  C   UNL     1       4.948   4.044  18.711  0.00  0.00    +0.000 A 
BRANCH   5   9
ATOM      9  N   UNL     1       7.355   5.594  16.563  0.00  0.00    +0.000 N 
ATOM     10  O   UNL     1       7.512   6.820  16.491  0.00  0.00    +0.000 OA
ATOM     11  O   UNL     1       7.843   4.743  15.816  0.00  0.00    +0.000 OA
ENDBRANCH   5   9
ENDBRANCH   1   8
BRANCH   1  12
ATOM     12  C   UNL     1       2.389   3.894  18.832  0.00  0.00    +0.000 C 
ATOM     13 BR   UNL     1       1.086   2.988  20.060  0.00  0.00    +0.000 Br
BRANCH  12  14
ATOM     14  C   UNL     1       2.221   5.406  18.979  0.00  0.00    +0.000 A 
ATOM     15  C   UNL     1       2.343   6.300  17.903  0.00  0.00    +0.000 A 
ATOM     16  C   UNL     1       2.181   7.680  18.070  0.00  0.00    +0.000 A 
ATOM     17  C   UNL     1       1.874   8.194  19.322  0.00  0.00    +0.000 A 
ATOM     18 BR   UNL     1       1.687  10.060  19.552  0.00  0.00    +0.000 Br
ATOM     19  C   UNL     1       1.696   7.338  20.402  0.00  0.00    +0.000 A 
ATOM     20  C   UNL     1       1.852   5.957  20.226  0.00  0.00    +0.000 A 
ENDBRANCH  12  14
ENDBRANCH   1  12
TORSDOF 4
ENDMDL
MODEL 7
REMARK VINA RESULT:      -6.4      0.875      1.873
REMARK  Name = 
REMARK  5 active torsions:
REMARK  status: ('A' for Active; 'I' for Inactive)
REMARK    1  A    between atoms: C_1  and  N_2
REMARK    2  A    between atoms: C_3  and  N_4
REMARK    3  A    between atoms: C_9  and  C_10
REMARK    4  A    between atoms: C_10  and  C_12
REMARK    5  A    between atoms: C_12  and  C_14
REMARK                            x       y       z     vdW  Elec       q    Type
REMARK                         _______ _______ _______ _____ _____    ______ ____
ROOT
ATOM      1  C   UNL     1       3.864   3.174  17.867  0.00  0.00    +0.000 C 
ATOM      2 BR   UNL     1       4.385   2.404  19.606  0.00  0.00    +0.000 Br
ENDROOT
BRANCH   1   8
ATOM      3  C   UNL     1       5.525   5.273  19.504  0.00  0.00    +0.000 C 
ATOM      4  N   UNL     1       5.664   5.010  18.089  0.00  0.00    +0.000 N 
ATOM      5  C   UNL     1       6.548   5.606  17.229  0.00  0.00    +0.000 A 
ATOM      6  C   UNL     1       6.440   4.959  16.032  0.00  0.00    +0.000 A 
ATOM      7  N   UNL     1       5.470   3.996  16.120  0.00  0.00    +0.000 NA
ATOM      8  C   UNL     1       4.972   4.057  17.347  0.00  0.00    +0.000 A 
BRANCH   5   9
ATOM      9  N   UNL     1       7.407   6.671  17.579  0.00  0.00    +0.000 N 
ATOM     10  O   UNL     1       7.359   7.681  16.865  0.00  0.00    +0.000 OA
ATOM     11  O   UNL     1       8.123   6.501  18.568  0.00  0.00    +0.000 OA
ENDBRANCH   5   9
ENDBRANCH   1   8
BRANCH   1  12
ATOM     12  C   UNL     1       2.481   3.875  17.933  0.00  0.00    +0.000 C 
ATOM     13 BR   UNL     1       1.157   2.484  18.515  0.00  0.00    +0.000 Br
BRANCH  12  14
ATOM     14  C   UNL     1       2.233   5.147  18.745  0.00  0.00    +0.000 A 
ATOM     15  C   UNL     1       2.381   6.438  18.211  0.00  0.00    +0.000 A 
ATOM     16  C   UNL     1       2.146   7.584  18.980  0.00  0.00    +0.000 A 
ATOM     17  C   UNL     1       1.737   7.458  20.301  0.00  0.00    +0.000 A 
ATOM     18 BR   UNL     1       1.450   9.006  21.346  0.00  0.00    +0.000 Br
ATOM     19  C   UNL     1       1.532   6.199  20.850  0.00  0.00    +0.000 A 
ATOM     20  C   UNL     1       1.762   5.057  20.072  0.00  0.00    +0.000 A 
ENDBRANCH  12  14
ENDBRANCH   1  12
TORSDOF 4
ENDMDL
MODEL 8
REMARK VINA RESULT:      -6.4      1.059      1.178
REMARK  Name = 
REMARK  5 active torsions:
REMARK  status: ('A' for Active; 'I' for Inactive)
REMARK    1  A    between atoms: C_1  and  N_2
REMARK    2  A    between atoms: C_3  and  N_4
REMARK    3  A    between atoms: C_9  and  C_10
REMARK    4  A    between atoms: C_10  and  C_12
REMARK    5  A    between atoms: C_12  and  C_14
REMARK                            x       y       z     vdW  Elec       q    Type
REMARK                         _______ _______ _______ _____ _____    ______ ____
ROOT
ATOM      1  C   UNL     1       3.720   3.668  18.542  0.00  0.00    +0.000 C 
ATOM      2 BR   UNL     1       4.132   1.928  19.374  0.00  0.00    +0.000 Br
ENDROOT
BRANCH   1   8
ATOM      3  C   UNL     1       4.859   5.412  16.196  0.00  0.00    +0.000 C 
ATOM      4  N   UNL     1       5.446   5.286  17.512  0.00  0.00    +0.000 N 
ATOM      5  C   UNL     1       6.573   5.915  17.968  0.00  0.00    +0.000 A 
ATOM      6  C   UNL     1       6.680   5.630  19.298  0.00  0.00    +0.000 A 
ATOM      7  N   UNL     1       5.658   4.797  19.670  0.00  0.00    +0.000 NA
ATOM      8  C   UNL     1       4.940   4.555  18.582  0.00  0.00    +0.000 A 
BRANCH   5   9
ATOM      9  N   UNL     1       7.417   6.719  17.170  0.00  0.00    +0.000 N 
ATOM     10  O   UNL     1       7.715   7.831  17.623  0.00  0.00    +0.000 OA
ATOM     11  O   UNL     1       7.787   6.237  16.097  0.00  0.00    +0.000 OA
ENDBRANCH   5   9
ENDBRANCH   1   8
BRANCH   1  12
ATOM     12  C   UNL     1       2.450   4.318  19.154  0.00  0.00    +0.000 C 
ATOM     13 BR   UNL     1       2.329   3.671  21.050  0.00  0.00    +0.000 Br
BRANCH  12  14
ATOM     14  C   UNL     1       2.201   5.826  19.141  0.00  0.00    +0.000 A 
ATOM     15  C   UNL     1       2.003   6.581  20.308  0.00  0.00    +0.000 A 
ATOM     16  C   UNL     1       1.778   7.962  20.263  0.00  0.00    +0.000 A 
ATOM     17  C   UNL     1       1.766   8.621  19.041  0.00  0.00    +0.000 A 
ATOM     18 BR   UNL     1       1.432  10.479  18.980  0.00  0.00    +0.000 Br
ATOM     19  C   UNL     1       2.007   7.917  17.869  0.00  0.00    +0.000 A 
ATOM     20  C   UNL     1       2.239   6.537  17.922  0.00  0.00    +0.000 A 
ENDBRANCH  12  14
ENDBRANCH   1  12
TORSDOF 4
ENDMDL
MODEL 9
REMARK VINA RESULT:      -6.3      1.274      1.894
REMARK  Name = 
REMARK  5 active torsions:
REMARK  status: ('A' for Active; 'I' for Inactive)
REMARK    1  A    between atoms: C_1  and  N_2
REMARK    2  A    between atoms: C_3  and  N_4
REMARK    3  A    between atoms: C_9  and  C_10
REMARK    4  A    between atoms: C_10  and  C_12
REMARK    5  A    between atoms: C_12  and  C_14
REMARK                            x       y       z     vdW  Elec       q    Type
REMARK                         _______ _______ _______ _____ _____    ______ ____
ROOT
ATOM      1  C   UNL     1       3.501   4.199  18.126  0.00  0.00    +0.000 C 
ATOM      2 BR   UNL     1       3.658   2.250  18.389  0.00  0.00    +0.000 Br
ENDROOT
BRANCH   1   8
ATOM      3  C   UNL     1       4.892   6.345  16.309  0.00  0.00    +0.000 C 
ATOM      4  N   UNL     1       5.450   5.775  17.514  0.00  0.00    +0.000 N 
ATOM      5  C   UNL     1       6.658   6.083  18.080  0.00  0.00    +0.000 A 
ATOM      6  C   UNL     1       6.719   5.427  19.276  0.00  0.00    +0.000 A 
ATOM      7  N   UNL     1       5.584   4.679  19.444  0.00  0.00    +0.000 NA
ATOM      8  C   UNL     1       4.840   4.855  18.361  0.00  0.00    +0.000 A 
BRANCH   5   9
ATOM      9  N   UNL     1       7.614   6.948  17.503  0.00  0.00    +0.000 N 
ATOM     10  O   UNL     1       7.902   6.744  16.316  0.00  0.00    +0.000 OA
ATOM     11  O   UNL     1       8.071   7.831  18.230  0.00  0.00    +0.000 OA
ENDBRANCH   5   9
ENDBRANCH   1   8
BRANCH   1  12
ATOM     12  C   UNL     1       2.347   4.807  18.968  0.00  0.00    +0.000 C 
ATOM     13 BR   UNL     1       2.558   4.097  20.833  0.00  0.00    +0.000 Br
BRANCH  12  14
ATOM     14  C   UNL     1       2.083   6.310  19.050  0.00  0.00    +0.000 A 
ATOM     15  C   UNL     1       2.051   7.146  17.922  0.00  0.00    +0.000 A 
ATOM     16  C   UNL     1       1.805   8.520  18.030  0.00  0.00    +0.000 A 
ATOM     17  C   UNL     1       1.566   9.084  19.276  0.00  0.00    +0.000 A 
ATOM     18 BR   UNL     1       1.265  10.943  19.423  0.00  0.00    +0.000 Br
ATOM     19  C   UNL     1       1.540   8.282  20.409  0.00  0.00    +0.000 A 
ATOM     20  C   UNL     1       1.779   6.907  20.293  0.00  0.00    +0.000 A 
ENDBRANCH  12  14
ENDBRANCH   1  12
TORSDOF 4
ENDMDL
