MODEL 1
REMARK VINA RESULT:      -5.9      0.000      0.000
REMARK  Name = 
REMARK  2 active torsions:
REMARK  status: ('A' for Active; 'I' for Inactive)
REMARK    1  A    between atoms: C_9  and  C_10
REMARK    2  A    between atoms: C_9  and  C_15
REMARK                            x       y       z     vdW  Elec       q    Type
REMARK                         _______ _______ _______ _____ _____    ______ ____
ROOT
ATOM      1  C   UNL     1       0.090   9.156  22.227  0.00  0.00    +0.000 A 
ATOM      2  C   UNL     1       0.101   9.270  20.830  0.00  0.00    +0.000 A 
ATOM      3  C   UNL     1      -0.422  10.399  20.200  0.00  0.00    +0.000 A 
ATOM      4  C   UNL     1      -0.951  11.412  20.989  0.00  0.00    +0.000 A 
ATOM      5  C   UNL     1      -0.972  11.293  22.398  0.00  0.00    +0.000 A 
ATOM      6  C   UNL     1      -0.449  10.169  23.022  0.00  0.00    +0.000 A 
ATOM      7  C   UNL     1      -1.595  12.485  23.087  0.00  0.00    +0.000 C 
ATOM      8  C   UNL     1      -0.762  13.732  22.722  0.00  0.00    +0.000 C 
ATOM      9  C   UNL     1      -0.672  13.926  21.126  0.00  0.00    +0.000 C 
ATOM     10  C   UNL     1      -1.537  12.732  20.485  0.00  0.00    +0.000 C 
ATOM     11  C   UNL     1      -2.924  12.817  21.093  0.00  0.00    +0.000 A 
ATOM     12  C   UNL     1      -4.108  12.976  20.391  0.00  0.00    +0.000 A 
ATOM     13  C   UNL     1      -5.299  13.055  21.102  0.00  0.00    +0.000 A 
ATOM     14  C   UNL     1      -5.285  12.960  22.493  0.00  0.00    +0.000 A 
ATOM     15  C   UNL     1      -4.077  12.774  23.158  0.00  0.00    +0.000 A 
ATOM     16  N   UNL     1      -2.932  12.707  22.450  0.00  0.00    +0.000 N 
ENDROOT
BRANCH   9  17
ATOM     17  C   UNL     1       0.773  13.834  20.592  0.00  0.00    +0.000 A 
ATOM     18  C   UNL     1       1.965  13.950  21.299  0.00  0.00    +0.000 A 
ATOM     19  N   UNL     1       3.125  13.908  20.562  0.00  0.00    +0.000 NA
ATOM     20  C   UNL     1       2.835  13.692  19.302  0.00  0.00    +0.000 A 
ATOM     21  S   UNL     1       1.170  13.515  18.943  0.00  0.00    +0.000 S 
ENDBRANCH   9  17
BRANCH   9  22
ATOM     22  C   UNL     1      -1.245  15.312  20.751  0.00  0.00    +0.000 A 
ATOM     23  C   UNL     1      -1.172  16.008  19.552  0.00  0.00    +0.000 A 
ATOM     24  N   UNL     1      -1.683  17.286  19.552  0.00  0.00    +0.000 NA
ATOM     25  C   UNL     1      -2.263  17.529  20.703  0.00  0.00    +0.000 A 
ATOM     26  S   UNL     1      -2.190  16.260  21.849  0.00  0.00    +0.000 S 
ENDBRANCH   9  22
TORSDOF 2
ENDMDL
MODEL 2
REMARK VINA RESULT:      -5.7      8.710     11.510
REMARK  Name = 
REMARK  2 active torsions:
REMARK  status: ('A' for Active; 'I' for Inactive)
REMARK    1  A    between atoms: C_9  and  C_10
REMARK    2  A    between atoms: C_9  and  C_15
REMARK                            x       y       z     vdW  Elec       q    Type
REMARK                         _______ _______ _______ _____ _____    ______ ____
ROOT
ATOM      1  C   UNL     1       8.874  10.468  18.193  0.00  0.00    +0.000 A 
ATOM      2  C   UNL     1       9.703  10.233  19.299  0.00  0.00    +0.000 A 
ATOM      3  C   UNL     1      10.142  11.285  20.102  0.00  0.00    +0.000 A 
ATOM      4  C   UNL     1       9.736  12.573  19.784  0.00  0.00    +0.000 A 
ATOM      5  C   UNL     1       8.909  12.814  18.662  0.00  0.00    +0.000 A 
ATOM      6  C   UNL     1       8.472  11.764  17.866  0.00  0.00    +0.000 A 
ATOM      7  C   UNL     1       8.580  14.276  18.465  0.00  0.00    +0.000 C 
ATOM      8  C   UNL     1       7.836  14.768  19.726  0.00  0.00    +0.000 C 
ATOM      9  C   UNL     1       8.708  14.508  21.055  0.00  0.00    +0.000 C 
ATOM     10  C   UNL     1      10.085  13.845  20.560  0.00  0.00    +0.000 C 
ATOM     11  C   UNL     1      10.687  14.791  19.537  0.00  0.00    +0.000 A 
ATOM     12  C   UNL     1      11.936  15.385  19.621  0.00  0.00    +0.000 A 
ATOM     13  C   UNL     1      12.333  16.246  18.605  0.00  0.00    +0.000 A 
ATOM     14  C   UNL     1      11.486  16.482  17.524  0.00  0.00    +0.000 A 
ATOM     15  C   UNL     1      10.250  15.844  17.465  0.00  0.00    +0.000 A 
ATOM     16  N   UNL     1       9.881  15.018  18.465  0.00  0.00    +0.000 N 
ENDROOT
BRANCH   9  17
ATOM     17  C   UNL     1       8.019  13.544  22.044  0.00  0.00    +0.000 A 
ATOM     18  C   UNL     1       8.585  12.503  22.772  0.00  0.00    +0.000 A 
ATOM     19  N   UNL     1       7.725  11.740  23.526  0.00  0.00    +0.000 NA
ATOM     20  C   UNL     1       6.511  12.230  23.435  0.00  0.00    +0.000 A 
ATOM     21  S   UNL     1       6.347  13.628  22.461  0.00  0.00    +0.000 S 
ENDBRANCH   9  17
BRANCH   9  22
ATOM     22  C   UNL     1       8.948  15.857  21.774  0.00  0.00    +0.000 A 
ATOM     23  C   UNL     1       8.369  17.098  21.549  0.00  0.00    +0.000 A 
ATOM     24  N   UNL     1       8.872  18.152  22.278  0.00  0.00    +0.000 NA
ATOM     25  C   UNL     1       9.745  17.706  23.150  0.00  0.00    +0.000 A 
ATOM     26  S   UNL     1      10.031  16.020  23.115  0.00  0.00    +0.000 S 
ENDBRANCH   9  22
TORSDOF 2
ENDMDL
MODEL 3
REMARK VINA RESULT:      -5.7      8.874     11.552
REMARK  Name = 
REMARK  2 active torsions:
REMARK  status: ('A' for Active; 'I' for Inactive)
REMARK    1  A    between atoms: C_9  and  C_10
REMARK    2  A    between atoms: C_9  and  C_15
REMARK                            x       y       z     vdW  Elec       q    Type
REMARK                         _______ _______ _______ _____ _____    ______ ____
ROOT
ATOM      1  C   UNL     1       9.167  11.037  18.209  0.00  0.00    +0.000 A 
ATOM      2  C   UNL     1       9.990  10.685  19.288  0.00  0.00    +0.000 A 
ATOM      3  C   UNL     1      10.351  11.628  20.250  0.00  0.00    +0.000 A 
ATOM      4  C   UNL     1       9.872  12.924  20.118  0.00  0.00    +0.000 A 
ATOM      5  C   UNL     1       9.050  13.282  19.025  0.00  0.00    +0.000 A 
ATOM      6  C   UNL     1       8.691  12.342  18.070  0.00  0.00    +0.000 A 
ATOM      7  C   UNL     1       8.636  14.736  19.042  0.00  0.00    +0.000 C 
ATOM      8  C   UNL     1       7.844  14.988  20.343  0.00  0.00    +0.000 C 
ATOM      9  C   UNL     1       8.708  14.582  21.639  0.00  0.00    +0.000 C 
ATOM     10  C   UNL     1      10.131  14.082  21.085  0.00  0.00    +0.000 C 
ATOM     11  C   UNL     1      10.690  15.204  20.231  0.00  0.00    +0.000 A 
ATOM     12  C   UNL     1      11.899  15.851  20.433  0.00  0.00    +0.000 A 
ATOM     13  C   UNL     1      12.259  16.877  19.568  0.00  0.00    +0.000 A 
ATOM     14  C   UNL     1      11.416  17.224  18.514  0.00  0.00    +0.000 A 
ATOM     15  C   UNL     1      10.223  16.531  18.329  0.00  0.00    +0.000 A 
ATOM     16  N   UNL     1       9.889  15.544  19.185  0.00  0.00    +0.000 N 
ENDROOT
BRANCH   9  17
ATOM     17  C   UNL     1       8.064  13.441  22.455  0.00  0.00    +0.000 A 
ATOM     18  C   UNL     1       8.691  12.390  23.115  0.00  0.00    +0.000 A 
ATOM     19  N   UNL     1       7.871  11.456  23.705  0.00  0.00    +0.000 NA
ATOM     20  C   UNL     1       6.619  11.819  23.560  0.00  0.00    +0.000 A 
ATOM     21  S   UNL     1       6.366  13.296  22.729  0.00  0.00    +0.000 S 
ENDBRANCH   9  17
BRANCH   9  22
ATOM     22  C   UNL     1       8.854  15.818  22.557  0.00  0.00    +0.000 A 
ATOM     23  C   UNL     1       9.632  15.992  23.694  0.00  0.00    +0.000 A 
ATOM     24  N   UNL     1       9.466  17.176  24.376  0.00  0.00    +0.000 NA
ATOM     25  C   UNL     1       8.662  17.964  23.701  0.00  0.00    +0.000 A 
ATOM     26  S   UNL     1       8.040  17.314  22.246  0.00  0.00    +0.000 S 
ENDBRANCH   9  22
TORSDOF 2
ENDMDL
MODEL 4
REMARK VINA RESULT:      -5.7      1.159      1.302
REMARK  Name = 
REMARK  2 active torsions:
REMARK  status: ('A' for Active; 'I' for Inactive)
REMARK    1  A    between atoms: C_9  and  C_10
REMARK    2  A    between atoms: C_9  and  C_15
REMARK                            x       y       z     vdW  Elec       q    Type
REMARK                         _______ _______ _______ _____ _____    ______ ____
ROOT
ATOM      1  C   UNL     1       0.042   9.473  21.536  0.00  0.00    +0.000 A 
ATOM      2  C   UNL     1      -0.306   9.802  20.219  0.00  0.00    +0.000 A 
ATOM      3  C   UNL     1      -1.022  10.966  19.937  0.00  0.00    +0.000 A 
ATOM      4  C   UNL     1      -1.377  11.796  20.992  0.00  0.00    +0.000 A 
ATOM      5  C   UNL     1      -1.035  11.459  22.322  0.00  0.00    +0.000 A 
ATOM      6  C   UNL     1      -0.321  10.301  22.599  0.00  0.00    +0.000 A 
ATOM      7  C   UNL     1      -1.515  12.472  23.336  0.00  0.00    +0.000 C 
ATOM      8  C   UNL     1      -0.858  13.828  22.998  0.00  0.00    +0.000 C 
ATOM      9  C   UNL     1      -1.184  14.273  21.485  0.00  0.00    +0.000 C 
ATOM     10  C   UNL     1      -2.130  13.123  20.879  0.00  0.00    +0.000 C 
ATOM     11  C   UNL     1      -3.319  12.994  21.812  0.00  0.00    +0.000 A 
ATOM     12  C   UNL     1      -4.648  13.157  21.456  0.00  0.00    +0.000 A 
ATOM     13  C   UNL     1      -5.623  13.024  22.437  0.00  0.00    +0.000 A 
ATOM     14  C   UNL     1      -5.252  12.716  23.745  0.00  0.00    +0.000 A 
ATOM     15  C   UNL     1      -3.908  12.533  24.056  0.00  0.00    +0.000 A 
ATOM     16  N   UNL     1      -2.978  12.675  23.090  0.00  0.00    +0.000 N 
ENDROOT
BRANCH   9  17
ATOM     17  C   UNL     1       0.081  14.388  20.609  0.00  0.00    +0.000 A 
ATOM     18  C   UNL     1       0.169  14.475  19.224  0.00  0.00    +0.000 A 
ATOM     19  N   UNL     1       1.435  14.488  18.686  0.00  0.00    +0.000 NA
ATOM     20  C   UNL     1       2.321  14.480  19.653  0.00  0.00    +0.000 A 
ATOM     21  S   UNL     1       1.684  14.473  21.243  0.00  0.00    +0.000 S 
ENDBRANCH   9  17
BRANCH   9  22
ATOM     22  C   UNL     1      -1.894  15.647  21.504  0.00  0.00    +0.000 A 
ATOM     23  C   UNL     1      -2.401  16.397  20.452  0.00  0.00    +0.000 A 
ATOM     24  N   UNL     1      -2.881  17.649  20.766  0.00  0.00    +0.000 NA
ATOM     25  C   UNL     1      -2.862  17.813  22.068  0.00  0.00    +0.000 A 
ATOM     26  S   UNL     1      -2.239  16.500  22.970  0.00  0.00    +0.000 S 
ENDBRANCH   9  22
TORSDOF 2
ENDMDL
MODEL 5
REMARK VINA RESULT:      -5.6      8.412     11.424
REMARK  Name = 
REMARK  2 active torsions:
REMARK  status: ('A' for Active; 'I' for Inactive)
REMARK    1  A    between atoms: C_9  and  C_10
REMARK    2  A    between atoms: C_9  and  C_15
REMARK                            x       y       z     vdW  Elec       q    Type
REMARK                         _______ _______ _______ _____ _____    ______ ____
ROOT
ATOM      1  C   UNL     1       8.941  10.505  18.424  0.00  0.00    +0.000 A 
ATOM      2  C   UNL     1       9.674  10.388  19.613  0.00  0.00    +0.000 A 
ATOM      3  C   UNL     1      10.040  11.519  20.342  0.00  0.00    +0.000 A 
ATOM      4  C   UNL     1       9.658  12.766  19.866  0.00  0.00    +0.000 A 
ATOM      5  C   UNL     1       8.927  12.885  18.661  0.00  0.00    +0.000 A 
ATOM      6  C   UNL     1       8.563  11.758  17.938  0.00  0.00    +0.000 A 
ATOM      7  C   UNL     1       8.612  14.317  18.294  0.00  0.00    +0.000 C 
ATOM      8  C   UNL     1       7.763  14.921  19.433  0.00  0.00    +0.000 C 
ATOM      9  C   UNL     1       8.519  14.804  20.849  0.00  0.00    +0.000 C 
ATOM     10  C   UNL     1       9.936  14.111  20.539  0.00  0.00    +0.000 C 
ATOM     11  C   UNL     1      10.619  14.959  19.482  0.00  0.00    +0.000 A 
ATOM     12  C   UNL     1      11.854  15.573  19.611  0.00  0.00    +0.000 A 
ATOM     13  C   UNL     1      12.333  16.335  18.552  0.00  0.00    +0.000 A 
ATOM     14  C   UNL     1      11.579  16.454  17.385  0.00  0.00    +0.000 A 
ATOM     15  C   UNL     1      10.355  15.798  17.287  0.00  0.00    +0.000 A 
ATOM     16  N   UNL     1       9.906  15.071  18.329  0.00  0.00    +0.000 N 
ENDROOT
BRANCH   9  17
ATOM     17  C   UNL     1       7.753  13.933  21.867  0.00  0.00    +0.000 A 
ATOM     18  C   UNL     1       6.382  13.729  21.971  0.00  0.00    +0.000 A 
ATOM     19  N   UNL     1       5.951  12.962  23.028  0.00  0.00    +0.000 NA
ATOM     20  C   UNL     1       6.987  12.520  23.699  0.00  0.00    +0.000 A 
ATOM     21  S   UNL     1       8.519  12.986  23.090  0.00  0.00    +0.000 S 
ENDBRANCH   9  17
BRANCH   9  22
ATOM     22  C   UNL     1       8.694  16.219  21.449  0.00  0.00    +0.000 A 
ATOM     23  C   UNL     1       9.332  16.616  22.616  0.00  0.00    +0.000 A 
ATOM     24  N   UNL     1       9.224  17.946  22.953  0.00  0.00    +0.000 NA
ATOM     25  C   UNL     1       8.617  18.597  21.989  0.00  0.00    +0.000 A 
ATOM     26  S   UNL     1       8.115  17.646  20.658  0.00  0.00    +0.000 S 
ENDBRANCH   9  22
TORSDOF 2
ENDMDL
MODEL 6
REMARK VINA RESULT:      -5.6      1.580      4.807
REMARK  Name = 
REMARK  2 active torsions:
REMARK  status: ('A' for Active; 'I' for Inactive)
REMARK    1  A    between atoms: C_9  and  C_10
REMARK    2  A    between atoms: C_9  and  C_15
REMARK                            x       y       z     vdW  Elec       q    Type
REMARK                         _______ _______ _______ _____ _____    ______ ____
ROOT
ATOM      1  C   UNL     1      -5.021  12.252  18.872  0.00  0.00    +0.000 A 
ATOM      2  C   UNL     1      -5.188  12.938  20.083  0.00  0.00    +0.000 A 
ATOM      3  C   UNL     1      -4.097  13.207  20.909  0.00  0.00    +0.000 A 
ATOM      4  C   UNL     1      -2.839  12.784  20.503  0.00  0.00    +0.000 A 
ATOM      5  C   UNL     1      -2.671  12.084  19.286  0.00  0.00    +0.000 A 
ATOM      6  C   UNL     1      -3.758  11.819  18.464  0.00  0.00    +0.000 A 
ATOM      7  C   UNL     1      -1.236  11.694  19.015  0.00  0.00    +0.000 C 
ATOM      8  C   UNL     1      -0.399  12.990  18.945  0.00  0.00    +0.000 C 
ATOM      9  C   UNL     1      -0.555  13.858  20.291  0.00  0.00    +0.000 C 
ATOM     10  C   UNL     1      -1.526  13.013  21.254  0.00  0.00    +0.000 C 
ATOM     11  C   UNL     1      -0.904  11.639  21.411  0.00  0.00    +0.000 A 
ATOM     12  C   UNL     1      -0.530  11.052  22.609  0.00  0.00    +0.000 A 
ATOM     13  C   UNL     1       0.047   9.788  22.580  0.00  0.00    +0.000 A 
ATOM     14  C   UNL     1       0.222   9.132  21.362  0.00  0.00    +0.000 A 
ATOM     15  C   UNL     1      -0.193   9.746  20.184  0.00  0.00    +0.000 A 
ATOM     16  N   UNL     1      -0.743  10.976  20.233  0.00  0.00    +0.000 N 
ENDROOT
BRANCH   9  17
ATOM     17  C   UNL     1      -1.186  15.243  20.040  0.00  0.00    +0.000 A 
ATOM     18  C   UNL     1      -2.199  15.874  20.754  0.00  0.00    +0.000 A 
ATOM     19  N   UNL     1      -2.636  17.084  20.267  0.00  0.00    +0.000 NA
ATOM     20  C   UNL     1      -1.918  17.419  19.221  0.00  0.00    +0.000 A 
ATOM     21  S   UNL     1      -0.684  16.315  18.784  0.00  0.00    +0.000 S 
ENDBRANCH   9  17
BRANCH   9  22
ATOM     22  C   UNL     1       0.841  14.064  20.925  0.00  0.00    +0.000 A 
ATOM     23  C   UNL     1       1.203  14.768  22.065  0.00  0.00    +0.000 A 
ATOM     24  N   UNL     1       2.552  14.872  22.320  0.00  0.00    +0.000 NA
ATOM     25  C   UNL     1       3.220  14.145  21.457  0.00  0.00    +0.000 A 
ATOM     26  S   UNL     1       2.275  13.339  20.281  0.00  0.00    +0.000 S 
ENDBRANCH   9  22
TORSDOF 2
ENDMDL
MODEL 7
REMARK VINA RESULT:      -5.6      1.508      4.712
REMARK  Name = 
REMARK  2 active torsions:
REMARK  status: ('A' for Active; 'I' for Inactive)
REMARK    1  A    between atoms: C_9  and  C_10
REMARK    2  A    between atoms: C_9  and  C_15
REMARK                            x       y       z     vdW  Elec       q    Type
REMARK                         _______ _______ _______ _____ _____    ______ ____
ROOT
ATOM      1  C   UNL     1      -0.348   8.961  21.615  0.00  0.00    +0.000 A 
ATOM      2  C   UNL     1      -0.669   9.585  22.828  0.00  0.00    +0.000 A 
ATOM      3  C   UNL     1      -0.702  10.975  22.932  0.00  0.00    +0.000 A 
ATOM      4  C   UNL     1      -0.413  11.729  21.803  0.00  0.00    +0.000 A 
ATOM      5  C   UNL     1      -0.078  11.101  20.581  0.00  0.00    +0.000 A 
ATOM      6  C   UNL     1      -0.048   9.717  20.481  0.00  0.00    +0.000 A 
ATOM      7  C   UNL     1       0.217  12.080  19.468  0.00  0.00    +0.000 C 
ATOM      8  C   UNL     1      -1.050  12.933  19.240  0.00  0.00    +0.000 C 
ATOM      9  C   UNL     1      -1.511  13.668  20.596  0.00  0.00    +0.000 C 
ATOM     10  C   UNL     1      -0.429  13.257  21.712  0.00  0.00    +0.000 C 
ATOM     11  C   UNL     1       0.933  13.644  21.169  0.00  0.00    +0.000 A 
ATOM     12  C   UNL     1       1.828  14.513  21.773  0.00  0.00    +0.000 A 
ATOM     13  C   UNL     1       3.033  14.779  21.133  0.00  0.00    +0.000 A 
ATOM     14  C   UNL     1       3.324  14.163  19.917  0.00  0.00    +0.000 A 
ATOM     15  C   UNL     1       2.409  13.276  19.358  0.00  0.00    +0.000 A 
ATOM     16  N   UNL     1       1.243  13.038  19.991  0.00  0.00    +0.000 N 
ENDROOT
BRANCH   9  17
ATOM     17  C   UNL     1      -2.909  13.223  21.073  0.00  0.00    +0.000 A 
ATOM     18  C   UNL     1      -3.411  13.188  22.369  0.00  0.00    +0.000 A 
ATOM     19  N   UNL     1      -4.674  12.668  22.529  0.00  0.00    +0.000 NA
ATOM     20  C   UNL     1      -5.173  12.366  21.354  0.00  0.00    +0.000 A 
ATOM     21  S   UNL     1      -4.166  12.701  20.010  0.00  0.00    +0.000 S 
ENDBRANCH   9  17
BRANCH   9  22
ATOM     22  C   UNL     1      -1.537  15.196  20.361  0.00  0.00    +0.000 A 
ATOM     23  C   UNL     1      -2.169  16.195  21.087  0.00  0.00    +0.000 A 
ATOM     24  N   UNL     1      -2.108  17.467  20.564  0.00  0.00    +0.000 NA
ATOM     25  C   UNL     1      -1.326  17.472  19.511  0.00  0.00    +0.000 A 
ATOM     26  S   UNL     1      -0.662  15.957  19.075  0.00  0.00    +0.000 S 
ENDBRANCH   9  22
TORSDOF 2
ENDMDL
MODEL 8
REMARK VINA RESULT:      -5.5      2.853      6.135
REMARK  Name = 
REMARK  2 active torsions:
REMARK  status: ('A' for Active; 'I' for Inactive)
REMARK    1  A    between atoms: C_9  and  C_10
REMARK    2  A    between atoms: C_9  and  C_15
REMARK                            x       y       z     vdW  Elec       q    Type
REMARK                         _______ _______ _______ _____ _____    ______ ____
ROOT
ATOM      1  C   UNL     1      -6.981  11.807  19.373  0.00  0.00    +0.000 A 
ATOM      2  C   UNL     1      -7.517  11.654  20.660  0.00  0.00    +0.000 A 
ATOM      3  C   UNL     1      -6.810  12.081  21.784  0.00  0.00    +0.000 A 
ATOM      4  C   UNL     1      -5.565  12.665  21.600  0.00  0.00    +0.000 A 
ATOM      5  C   UNL     1      -5.019  12.810  20.304  0.00  0.00    +0.000 A 
ATOM      6  C   UNL     1      -5.725  12.387  19.186  0.00  0.00    +0.000 A 
ATOM      7  C   UNL     1      -3.652  13.455  20.300  0.00  0.00    +0.000 C 
ATOM      8  C   UNL     1      -3.791  14.861  20.924  0.00  0.00    +0.000 C 
ATOM      9  C   UNL     1      -4.428  14.783  22.401  0.00  0.00    +0.000 C 
ATOM     10  C   UNL     1      -4.660  13.222  22.702  0.00  0.00    +0.000 C 
ATOM     11  C   UNL     1      -3.322  12.533  22.512  0.00  0.00    +0.000 A 
ATOM     12  C   UNL     1      -2.647  11.795  23.472  0.00  0.00    +0.000 A 
ATOM     13  C   UNL     1      -1.416  11.242  23.144  0.00  0.00    +0.000 A 
ATOM     14  C   UNL     1      -0.892  11.423  21.864  0.00  0.00    +0.000 A 
ATOM     15  C   UNL     1      -1.614  12.148  20.921  0.00  0.00    +0.000 A 
ATOM     16  N   UNL     1      -2.804  12.683  21.263  0.00  0.00    +0.000 N 
ENDROOT
BRANCH   9  17
ATOM     17  C   UNL     1      -5.782  15.516  22.508  0.00  0.00    +0.000 A 
ATOM     18  C   UNL     1      -6.373  16.379  21.592  0.00  0.00    +0.000 A 
ATOM     19  N   UNL     1      -7.558  16.965  21.972  0.00  0.00    +0.000 NA
ATOM     20  C   UNL     1      -7.916  16.505  23.147  0.00  0.00    +0.000 A 
ATOM     21  S   UNL     1      -6.864  15.344  23.841  0.00  0.00    +0.000 S 
ENDBRANCH   9  17
BRANCH   9  22
ATOM     22  C   UNL     1      -3.445  15.421  23.411  0.00  0.00    +0.000 A 
ATOM     23  C   UNL     1      -3.361  15.263  24.787  0.00  0.00    +0.000 A 
ATOM     24  N   UNL     1      -2.447  16.057  25.441  0.00  0.00    +0.000 NA
ATOM     25  C   UNL     1      -1.741  16.730  24.564  0.00  0.00    +0.000 A 
ATOM     26  S   UNL     1      -2.161  16.476  22.925  0.00  0.00    +0.000 S 
ENDBRANCH   9  22
TORSDOF 2
ENDMDL
MODEL 9
REMARK VINA RESULT:      -5.4      1.982      4.777
REMARK  Name = 
REMARK  2 active torsions:
REMARK  status: ('A' for Active; 'I' for Inactive)
REMARK    1  A    between atoms: C_9  and  C_10
REMARK    2  A    between atoms: C_9  and  C_15
REMARK                            x       y       z     vdW  Elec       q    Type
REMARK                         _______ _______ _______ _____ _____    ______ ____
ROOT
ATOM      1  C   UNL     1      -5.979  12.664  23.571  0.00  0.00    +0.000 A 
ATOM      2  C   UNL     1      -5.013  12.345  24.535  0.00  0.00    +0.000 A 
ATOM      3  C   UNL     1      -3.652  12.441  24.244  0.00  0.00    +0.000 A 
ATOM      4  C   UNL     1      -3.275  12.864  22.977  0.00  0.00    +0.000 A 
ATOM      5  C   UNL     1      -4.249  13.176  22.000  0.00  0.00    +0.000 A 
ATOM      6  C   UNL     1      -5.602  13.081  22.293  0.00  0.00    +0.000 A 
ATOM      7  C   UNL     1      -3.653  13.605  20.679  0.00  0.00    +0.000 C 
ATOM      8  C   UNL     1      -2.804  14.870  20.932  0.00  0.00    +0.000 C 
ATOM      9  C   UNL     1      -1.680  14.602  22.054  0.00  0.00    +0.000 C 
ATOM     10  C   UNL     1      -1.840  13.061  22.483  0.00  0.00    +0.000 C 
ATOM     11  C   UNL     1      -1.732  12.237  21.215  0.00  0.00    +0.000 A 
ATOM     12  C   UNL     1      -0.801  11.238  20.975  0.00  0.00    +0.000 A 
ATOM     13  C   UNL     1      -0.823  10.587  19.748  0.00  0.00    +0.000 A 
ATOM     14  C   UNL     1      -1.781  10.933  18.795  0.00  0.00    +0.000 A 
ATOM     15  C   UNL     1      -2.715  11.923  19.086  0.00  0.00    +0.000 A 
ATOM     16  N   UNL     1      -2.671  12.548  20.280  0.00  0.00    +0.000 N 
ENDROOT
BRANCH   9  17
ATOM     17  C   UNL     1      -1.859  15.487  23.304  0.00  0.00    +0.000 A 
ATOM     18  C   UNL     1      -1.255  15.357  24.550  0.00  0.00    +0.000 A 
ATOM     19  N   UNL     1      -1.654  16.241  25.525  0.00  0.00    +0.000 NA
ATOM     20  C   UNL     1      -2.511  17.094  25.016  0.00  0.00    +0.000 A 
ATOM     21  S   UNL     1      -2.866  16.888  23.353  0.00  0.00    +0.000 S 
ENDBRANCH   9  17
BRANCH   9  22
ATOM     22  C   UNL     1      -0.284  14.884  21.449  0.00  0.00    +0.000 A 
ATOM     23  C   UNL     1       0.976  14.587  21.949  0.00  0.00    +0.000 A 
ATOM     24  N   UNL     1       2.049  15.070  21.235  0.00  0.00    +0.000 NA
ATOM     25  C   UNL     1       1.625  15.625  20.125  0.00  0.00    +0.000 A 
ATOM     26  S   UNL     1      -0.071  15.630  19.901  0.00  0.00    +0.000 S 
ENDBRANCH   9  22
TORSDOF 2
ENDMDL
