MODEL 1
REMARK VINA RESULT:      -8.2      0.000      0.000
REMARK  Name = 
REMARK  5 active torsions:
REMARK  status: ('A' for Active; 'I' for Inactive)
REMARK    1  A    between atoms: S_2  and  N_4
REMARK    2  A    between atoms: S_2  and  C_10
REMARK    3  A    between atoms: N_4  and  C_5
REMARK    4  A    between atoms: C_5  and  C_6
REMARK    5  A    between atoms: C_18  and  C_19
REMARK                            x       y       z     vdW  Elec       q    Type
REMARK                         _______ _______ _______ _____ _____    ______ ____
ROOT
ATOM      1  C   UNL     1       5.184   5.158  17.704  0.00  0.00    +0.000 A 
ATOM      2  C   UNL     1       4.188   6.139  17.781  0.00  0.00    +0.000 A 
ATOM      3  C   UNL     1       2.851   5.757  17.899  0.00  0.00    +0.000 A 
ATOM      4  C   UNL     1       2.523   4.400  17.959  0.00  0.00    +0.000 A 
ATOM      5  C   UNL     1       3.523   3.415  17.861  0.00  0.00    +0.000 A 
ATOM      6  C   UNL     1       4.859   3.798  17.726  0.00  0.00    +0.000 A 
ATOM      7  C   UNL     1       3.098   1.968  17.860  0.00  0.00    +0.000 C 
ATOM      8  N   UNL     1       2.068   1.638  18.846  0.00  0.00    +0.000 NA
ATOM      9  C   UNL     1       1.133   2.740  19.186  0.00  0.00    +0.000 C 
ATOM     10  C   UNL     1       1.114   3.908  18.176  0.00  0.00    +0.000 C 
ATOM     11  H   UNL     1       2.503   1.301  19.706  0.00  0.00    +0.000 HD
ENDROOT
BRANCH   1  13
ATOM     12  O   UNL     1       7.495   5.298  18.944  0.00  0.00    +0.000 OA
ATOM     13  S   UNL     1       6.889   5.648  17.679  0.00  0.00    +0.000 S 
ATOM     14  O   UNL     1       6.946   6.992  17.150  0.00  0.00    +0.000 OA
BRANCH  13  15
ATOM     15  N   UNL     1       7.560   4.656  16.506  0.00  0.00    +0.000 NA
ATOM     16  H   UNL     1       7.444   3.665  16.733  0.00  0.00    +0.000 HD
BRANCH  15  17
ATOM     17  C   UNL     1       7.384   5.053  15.081  0.00  0.00    +0.000 C 
BRANCH  17  18
ATOM     18  C   UNL     1       6.281   4.272  14.355  0.00  0.00    +0.000 C 
ATOM     19  F   UNL     1       6.078   3.053  14.909  0.00  0.00    +0.000 F 
ATOM     20  F   UNL     1       5.103   4.936  14.409  0.00  0.00    +0.000 F 
ATOM     21  F   UNL     1       6.586   4.085  13.052  0.00  0.00    +0.000 F 
ENDBRANCH  17  18
ENDBRANCH  15  17
ENDBRANCH  13  15
ENDBRANCH   1  13
BRANCH   9  22
ATOM     22  C   UNL     1       1.413   3.266  20.612  0.00  0.00    +0.000 C 
ATOM     23  F   UNL     1       0.830   4.489  20.759  0.00  0.00    +0.000 F 
ENDBRANCH   9  22
TORSDOF 5
ENDMDL
MODEL 2
REMARK VINA RESULT:      -8.0      0.728      1.099
REMARK  Name = 
REMARK  5 active torsions:
REMARK  status: ('A' for Active; 'I' for Inactive)
REMARK    1  A    between atoms: S_2  and  N_4
REMARK    2  A    between atoms: S_2  and  C_10
REMARK    3  A    between atoms: N_4  and  C_5
REMARK    4  A    between atoms: C_5  and  C_6
REMARK    5  A    between atoms: C_18  and  C_19
REMARK                            x       y       z     vdW  Elec       q    Type
REMARK                         _______ _______ _______ _____ _____    ______ ____
ROOT
ATOM      1  C   UNL     1       5.305   5.071  17.709  0.00  0.00    +0.000 A 
ATOM      2  C   UNL     1       4.343   6.088  17.748  0.00  0.00    +0.000 A 
ATOM      3  C   UNL     1       2.994   5.757  17.881  0.00  0.00    +0.000 A 
ATOM      4  C   UNL     1       2.620   4.415  17.995  0.00  0.00    +0.000 A 
ATOM      5  C   UNL     1       3.586   3.394  17.935  0.00  0.00    +0.000 A 
ATOM      6  C   UNL     1       4.933   3.725  17.784  0.00  0.00    +0.000 A 
ATOM      7  C   UNL     1       3.112   1.963  17.990  0.00  0.00    +0.000 C 
ATOM      8  N   UNL     1       2.073   1.707  18.989  0.00  0.00    +0.000 NA
ATOM      9  C   UNL     1       1.177   2.853  19.287  0.00  0.00    +0.000 C 
ATOM     10  C   UNL     1       1.196   3.981  18.232  0.00  0.00    +0.000 C 
ATOM     11  H   UNL     1       2.498   1.390  19.862  0.00  0.00    +0.000 HD
ENDROOT
BRANCH   1  13
ATOM     12  O   UNL     1       7.813   4.310  17.888  0.00  0.00    +0.000 OA
ATOM     13  S   UNL     1       7.026   5.502  17.664  0.00  0.00    +0.000 S 
ATOM     14  O   UNL     1       7.196   6.693  18.466  0.00  0.00    +0.000 OA
BRANCH  13  15
ATOM     15  N   UNL     1       7.265   5.973  16.073  0.00  0.00    +0.000 NA
ATOM     16  H   UNL     1       7.810   6.837  16.008  0.00  0.00    +0.000 HD
BRANCH  15  17
ATOM     17  C   UNL     1       7.560   4.908  15.074  0.00  0.00    +0.000 C 
BRANCH  17  18
ATOM     18  C   UNL     1       6.314   4.376  14.352  0.00  0.00    +0.000 C 
ATOM     19  F   UNL     1       5.259   5.215  14.485  0.00  0.00    +0.000 F 
ATOM     20  F   UNL     1       6.547   4.235  13.027  0.00  0.00    +0.000 F 
ATOM     21  F   UNL     1       5.944   3.169  14.834  0.00  0.00    +0.000 F 
ENDBRANCH  17  18
ENDBRANCH  15  17
ENDBRANCH  13  15
ENDBRANCH   1  13
BRANCH   9  22
ATOM     22  C   UNL     1       1.477   3.424  20.690  0.00  0.00    +0.000 C 
ATOM     23  F   UNL     1       1.012   2.558  21.635  0.00  0.00    +0.000 F 
ENDBRANCH   9  22
TORSDOF 5
ENDMDL
MODEL 3
REMARK VINA RESULT:      -7.9      1.427      1.681
REMARK  Name = 
REMARK  5 active torsions:
REMARK  status: ('A' for Active; 'I' for Inactive)
REMARK    1  A    between atoms: S_2  and  N_4
REMARK    2  A    between atoms: S_2  and  C_10
REMARK    3  A    between atoms: N_4  and  C_5
REMARK    4  A    between atoms: C_5  and  C_6
REMARK    5  A    between atoms: C_18  and  C_19
REMARK                            x       y       z     vdW  Elec       q    Type
REMARK                         _______ _______ _______ _____ _____    ______ ____
ROOT
ATOM      1  C   UNL     1       5.028   5.095  16.907  0.00  0.00    +0.000 A 
ATOM      2  C   UNL     1       4.310   6.133  17.515  0.00  0.00    +0.000 A 
ATOM      3  C   UNL     1       3.106   5.852  18.161  0.00  0.00    +0.000 A 
ATOM      4  C   UNL     1       2.639   4.536  18.212  0.00  0.00    +0.000 A 
ATOM      5  C   UNL     1       3.351   3.498  17.584  0.00  0.00    +0.000 A 
ATOM      6  C   UNL     1       4.547   3.782  16.923  0.00  0.00    +0.000 A 
ATOM      7  C   UNL     1       2.759   2.111  17.612  0.00  0.00    +0.000 C 
ATOM      8  N   UNL     1       2.201   1.717  18.907  0.00  0.00    +0.000 NA
ATOM      9  C   UNL     1       1.666   2.826  19.736  0.00  0.00    +0.000 C 
ATOM     10  C   UNL     1       1.396   4.138  18.967  0.00  0.00    +0.000 C 
ATOM     11  H   UNL     1       2.902   1.211  19.451  0.00  0.00    +0.000 HD
ENDROOT
BRANCH   1  13
ATOM     12  O   UNL     1       7.556   4.432  16.643  0.00  0.00    +0.000 OA
ATOM     13  S   UNL     1       6.617   5.436  16.195  0.00  0.00    +0.000 S 
ATOM     14  O   UNL     1       6.871   6.849  16.359  0.00  0.00    +0.000 OA
BRANCH  13  15
ATOM     15  N   UNL     1       6.366   5.194  14.555  0.00  0.00    +0.000 NA
ATOM     16  H   UNL     1       6.846   5.898  13.988  0.00  0.00    +0.000 HD
BRANCH  15  17
ATOM     17  C   UNL     1       6.379   3.792  14.052  0.00  0.00    +0.000 C 
BRANCH  17  18
ATOM     18  C   UNL     1       6.323   3.683  12.523  0.00  0.00    +0.000 C 
ATOM     19  F   UNL     1       7.101   4.616  11.923  0.00  0.00    +0.000 F 
ATOM     20  F   UNL     1       6.761   2.472  12.108  0.00  0.00    +0.000 F 
ATOM     21  F   UNL     1       5.063   3.842  12.063  0.00  0.00    +0.000 F 
ENDBRANCH  17  18
ENDBRANCH  15  17
ENDBRANCH  13  15
ENDBRANCH   1  13
BRANCH   9  22
ATOM     22  C   UNL     1       2.591   3.092  20.945  0.00  0.00    +0.000 C 
ATOM     23  F   UNL     1       2.222   4.262  21.541  0.00  0.00    +0.000 F 
ENDBRANCH   9  22
TORSDOF 5
ENDMDL
MODEL 4
REMARK VINA RESULT:      -7.8      2.939      3.259
REMARK  Name = 
REMARK  5 active torsions:
REMARK  status: ('A' for Active; 'I' for Inactive)
REMARK    1  A    between atoms: S_2  and  N_4
REMARK    2  A    between atoms: S_2  and  C_10
REMARK    3  A    between atoms: N_4  and  C_5
REMARK    4  A    between atoms: C_5  and  C_6
REMARK    5  A    between atoms: C_18  and  C_19
REMARK                            x       y       z     vdW  Elec       q    Type
REMARK                         _______ _______ _______ _____ _____    ______ ____
ROOT
ATOM      1  C   UNL     1       4.700   4.911  16.677  0.00  0.00    +0.000 A 
ATOM      2  C   UNL     1       4.306   5.965  17.511  0.00  0.00    +0.000 A 
ATOM      3  C   UNL     1       3.264   5.774  18.418  0.00  0.00    +0.000 A 
ATOM      4  C   UNL     1       2.638   4.527  18.499  0.00  0.00    +0.000 A 
ATOM      5  C   UNL     1       3.022   3.475  17.647  0.00  0.00    +0.000 A 
ATOM      6  C   UNL     1       4.053   3.673  16.727  0.00  0.00    +0.000 A 
ATOM      7  C   UNL     1       2.260   2.176  17.733  0.00  0.00    +0.000 C 
ATOM      8  N   UNL     1       1.977   1.730  19.098  0.00  0.00    +0.000 NA
ATOM      9  C   UNL     1       1.822   2.809  20.105  0.00  0.00    +0.000 C 
ATOM     10  C   UNL     1       1.567   4.214  19.514  0.00  0.00    +0.000 C 
ATOM     11  H   UNL     1       2.707   1.090  19.415  0.00  0.00    +0.000 HD
ENDROOT
BRANCH   1  13
ATOM     12  O   UNL     1       5.831   6.193  14.682  0.00  0.00    +0.000 OA
ATOM     13  S   UNL     1       6.105   5.121  15.613  0.00  0.00    +0.000 S 
ATOM     14  O   UNL     1       6.513   3.808  15.169  0.00  0.00    +0.000 OA
BRANCH  13  15
ATOM     15  N   UNL     1       7.304   5.655  16.657  0.00  0.00    +0.000 NA
ATOM     16  H   UNL     1       7.270   6.669  16.791  0.00  0.00    +0.000 HD
BRANCH  15  17
ATOM     17  C   UNL     1       7.599   4.820  17.855  0.00  0.00    +0.000 C 
BRANCH  17  18
ATOM     18  C   UNL     1       7.770   5.632  19.146  0.00  0.00    +0.000 C 
ATOM     19  F   UNL     1       8.766   5.141  19.921  0.00  0.00    +0.000 F 
ATOM     20  F   UNL     1       8.078   6.920  18.869  0.00  0.00    +0.000 F 
ATOM     21  F   UNL     1       6.638   5.631  19.883  0.00  0.00    +0.000 F 
ENDBRANCH  17  18
ENDBRANCH  15  17
ENDBRANCH  13  15
ENDBRANCH   1  13
BRANCH   9  22
ATOM     22  C   UNL     1       3.037   2.839  21.058  0.00  0.00    +0.000 C 
ATOM     23  F   UNL     1       4.073   2.163  20.483  0.00  0.00    +0.000 F 
ENDBRANCH   9  22
TORSDOF 5
ENDMDL
MODEL 5
REMARK VINA RESULT:      -7.8      0.987      1.245
REMARK  Name = 
REMARK  5 active torsions:
REMARK  status: ('A' for Active; 'I' for Inactive)
REMARK    1  A    between atoms: S_2  and  N_4
REMARK    2  A    between atoms: S_2  and  C_10
REMARK    3  A    between atoms: N_4  and  C_5
REMARK    4  A    between atoms: C_5  and  C_6
REMARK    5  A    between atoms: C_18  and  C_19
REMARK                            x       y       z     vdW  Elec       q    Type
REMARK                         _______ _______ _______ _____ _____    ______ ____
ROOT
ATOM      1  C   UNL     1       4.887   5.262  17.389  0.00  0.00    +0.000 A 
ATOM      2  C   UNL     1       3.989   6.192  17.927  0.00  0.00    +0.000 A 
ATOM      3  C   UNL     1       2.751   5.759  18.405  0.00  0.00    +0.000 A 
ATOM      4  C   UNL     1       2.430   4.400  18.358  0.00  0.00    +0.000 A 
ATOM      5  C   UNL     1       3.325   3.470  17.799  0.00  0.00    +0.000 A 
ATOM      6  C   UNL     1       4.556   3.906  17.306  0.00  0.00    +0.000 A 
ATOM      7  C   UNL     1       2.890   2.028  17.712  0.00  0.00    +0.000 C 
ATOM      8  N   UNL     1       2.221   1.524  18.912  0.00  0.00    +0.000 NA
ATOM      9  C   UNL     1       1.468   2.535  19.696  0.00  0.00    +0.000 C 
ATOM     10  C   UNL     1       1.153   3.841  18.935  0.00  0.00    +0.000 C 
ATOM     11  H   UNL     1       2.900   1.073  19.528  0.00  0.00    +0.000 HD
ENDROOT
BRANCH   1  13
ATOM     12  O   UNL     1       7.443   4.720  17.117  0.00  0.00    +0.000 OA
ATOM     13  S   UNL     1       6.505   5.799  16.898  0.00  0.00    +0.000 S 
ATOM     14  O   UNL     1       6.712   7.117  17.453  0.00  0.00    +0.000 OA
BRANCH  13  15
ATOM     15  N   UNL     1       6.357   6.008  15.241  0.00  0.00    +0.000 NA
ATOM     16  H   UNL     1       6.400   6.995  14.975  0.00  0.00    +0.000 HD
BRANCH  15  17
ATOM     17  C   UNL     1       7.057   5.035  14.355  0.00  0.00    +0.000 C 
BRANCH  17  18
ATOM     18  C   UNL     1       6.166   3.879  13.882  0.00  0.00    +0.000 C 
ATOM     19  F   UNL     1       6.618   3.335  12.727  0.00  0.00    +0.000 F 
ATOM     20  F   UNL     1       6.131   2.888  14.803  0.00  0.00    +0.000 F 
ATOM     21  F   UNL     1       4.896   4.289  13.674  0.00  0.00    +0.000 F 
ENDBRANCH  17  18
ENDBRANCH  15  17
ENDBRANCH  13  15
ENDBRANCH   1  13
BRANCH   9  22
ATOM     22  C   UNL     1       2.199   2.847  21.021  0.00  0.00    +0.000 C 
ATOM     23  F   UNL     1       1.326   2.702  22.058  0.00  0.00    +0.000 F 
ENDBRANCH   9  22
TORSDOF 5
ENDMDL
MODEL 6
REMARK VINA RESULT:      -7.7      2.560      3.056
REMARK  Name = 
REMARK  5 active torsions:
REMARK  status: ('A' for Active; 'I' for Inactive)
REMARK    1  A    between atoms: S_2  and  N_4
REMARK    2  A    between atoms: S_2  and  C_10
REMARK    3  A    between atoms: N_4  and  C_5
REMARK    4  A    between atoms: C_5  and  C_6
REMARK    5  A    between atoms: C_18  and  C_19
REMARK                            x       y       z     vdW  Elec       q    Type
REMARK                         _______ _______ _______ _____ _____    ______ ____
ROOT
ATOM      1  C   UNL     1       4.113   5.569  17.143  0.00  0.00    +0.000 A 
ATOM      2  C   UNL     1       3.456   6.421  18.040  0.00  0.00    +0.000 A 
ATOM      3  C   UNL     1       2.440   5.916  18.852  0.00  0.00    +0.000 A 
ATOM      4  C   UNL     1       2.103   4.562  18.776  0.00  0.00    +0.000 A 
ATOM      5  C   UNL     1       2.750   3.712  17.860  0.00  0.00    +0.000 A 
ATOM      6  C   UNL     1       3.755   4.221  17.036  0.00  0.00    +0.000 A 
ATOM      7  C   UNL     1       2.292   2.277  17.775  0.00  0.00    +0.000 C 
ATOM      8  N   UNL     1       2.050   1.641  19.071  0.00  0.00    +0.000 NA
ATOM      9  C   UNL     1       1.612   2.551  20.158  0.00  0.00    +0.000 C 
ATOM     10  C   UNL     1       1.081   3.921  19.681  0.00  0.00    +0.000 C 
ATOM     11  H   UNL     1       2.888   1.144  19.378  0.00  0.00    +0.000 HD
ENDROOT
BRANCH   1  13
ATOM     12  O   UNL     1       4.990   7.092  15.191  0.00  0.00    +0.000 OA
ATOM     13  S   UNL     1       5.486   6.186  16.203  0.00  0.00    +0.000 S 
ATOM     14  O   UNL     1       6.328   5.059  15.875  0.00  0.00    +0.000 OA
BRANCH  13  15
ATOM     15  N   UNL     1       6.341   7.098  17.321  0.00  0.00    +0.000 NA
ATOM     16  H   UNL     1       5.728   7.499  18.036  0.00  0.00    +0.000 HD
BRANCH  15  17
ATOM     17  C   UNL     1       7.662   6.577  17.773  0.00  0.00    +0.000 C 
BRANCH  17  18
ATOM     18  C   UNL     1       7.563   5.520  18.880  0.00  0.00    +0.000 C 
ATOM     19  F   UNL     1       6.379   5.586  19.535  0.00  0.00    +0.000 F 
ATOM     20  F   UNL     1       7.665   4.272  18.368  0.00  0.00    +0.000 F 
ATOM     21  F   UNL     1       8.546   5.670  19.794  0.00  0.00    +0.000 F 
ENDBRANCH  17  18
ENDBRANCH  15  17
ENDBRANCH  13  15
ENDBRANCH   1  13
BRANCH   9  22
ATOM     22  C   UNL     1       2.744   2.743  21.192  0.00  0.00    +0.000 C 
ATOM     23  F   UNL     1       2.312   3.581  22.177  0.00  0.00    +0.000 F 
ENDBRANCH   9  22
TORSDOF 5
ENDMDL
MODEL 7
REMARK VINA RESULT:      -7.7      2.633      3.052
REMARK  Name = 
REMARK  5 active torsions:
REMARK  status: ('A' for Active; 'I' for Inactive)
REMARK    1  A    between atoms: S_2  and  N_4
REMARK    2  A    between atoms: S_2  and  C_10
REMARK    3  A    between atoms: N_4  and  C_5
REMARK    4  A    between atoms: C_5  and  C_6
REMARK    5  A    between atoms: C_18  and  C_19
REMARK                            x       y       z     vdW  Elec       q    Type
REMARK                         _______ _______ _______ _____ _____    ______ ____
ROOT
ATOM      1  C   UNL     1       4.147   5.535  17.087  0.00  0.00    +0.000 A 
ATOM      2  C   UNL     1       3.451   6.379  17.962  0.00  0.00    +0.000 A 
ATOM      3  C   UNL     1       2.437   5.855  18.764  0.00  0.00    +0.000 A 
ATOM      4  C   UNL     1       2.141   4.491  18.701  0.00  0.00    +0.000 A 
ATOM      5  C   UNL     1       2.827   3.649  17.807  0.00  0.00    +0.000 A 
ATOM      6  C   UNL     1       3.829   4.177  16.992  0.00  0.00    +0.000 A 
ATOM      7  C   UNL     1       2.411   2.201  17.734  0.00  0.00    +0.000 C 
ATOM      8  N   UNL     1       2.167   1.574  19.034  0.00  0.00    +0.000 NA
ATOM      9  C   UNL     1       1.686   2.485  20.102  0.00  0.00    +0.000 C 
ATOM     10  C   UNL     1       1.123   3.833  19.599  0.00  0.00    +0.000 C 
ATOM     11  H   UNL     1       3.014   1.106  19.361  0.00  0.00    +0.000 HD
ENDROOT
BRANCH   1  13
ATOM     12  O   UNL     1       5.012   7.076  15.143  0.00  0.00    +0.000 OA
ATOM     13  S   UNL     1       5.516   6.180  16.160  0.00  0.00    +0.000 S 
ATOM     14  O   UNL     1       6.384   5.070  15.840  0.00  0.00    +0.000 OA
BRANCH  13  15
ATOM     15  N   UNL     1       6.341   7.109  17.286  0.00  0.00    +0.000 NA
ATOM     16  H   UNL     1       5.708   7.535  17.967  0.00  0.00    +0.000 HD
BRANCH  15  17
ATOM     17  C   UNL     1       7.638   6.584  17.798  0.00  0.00    +0.000 C 
BRANCH  17  18
ATOM     18  C   UNL     1       7.483   5.506  18.880  0.00  0.00    +0.000 C 
ATOM     19  F   UNL     1       8.493   5.549  19.782  0.00  0.00    +0.000 F 
ATOM     20  F   UNL     1       6.329   5.673  19.567  0.00  0.00    +0.000 F 
ATOM     21  F   UNL     1       7.464   4.267  18.343  0.00  0.00    +0.000 F 
ENDBRANCH  17  18
ENDBRANCH  15  17
ENDBRANCH  13  15
ENDBRANCH   1  13
BRANCH   9  22
ATOM     22  C   UNL     1       2.795   2.723  21.151  0.00  0.00    +0.000 C 
ATOM     23  F   UNL     1       3.997   2.361  20.620  0.00  0.00    +0.000 F 
ENDBRANCH   9  22
TORSDOF 5
ENDMDL
MODEL 8
REMARK VINA RESULT:      -7.7      1.399      1.768
REMARK  Name = 
REMARK  5 active torsions:
REMARK  status: ('A' for Active; 'I' for Inactive)
REMARK    1  A    between atoms: S_2  and  N_4
REMARK    2  A    between atoms: S_2  and  C_10
REMARK    3  A    between atoms: N_4  and  C_5
REMARK    4  A    between atoms: C_5  and  C_6
REMARK    5  A    between atoms: C_18  and  C_19
REMARK                            x       y       z     vdW  Elec       q    Type
REMARK                         _______ _______ _______ _____ _____    ______ ____
ROOT
ATOM      1  C   UNL     1       4.183   5.796  17.352  0.00  0.00    +0.000 A 
ATOM      2  C   UNL     1       3.428   6.546  18.263  0.00  0.00    +0.000 A 
ATOM      3  C   UNL     1       2.398   5.931  18.976  0.00  0.00    +0.000 A 
ATOM      4  C   UNL     1       2.146   4.569  18.790  0.00  0.00    +0.000 A 
ATOM      5  C   UNL     1       2.893   3.822  17.861  0.00  0.00    +0.000 A 
ATOM      6  C   UNL     1       3.911   4.442  17.134  0.00  0.00    +0.000 A 
ATOM      7  C   UNL     1       2.524   2.374  17.652  0.00  0.00    +0.000 C 
ATOM      8  N   UNL     1       2.247   1.636  18.886  0.00  0.00    +0.000 NA
ATOM      9  C   UNL     1       1.696   2.443  20.003  0.00  0.00    +0.000 C 
ATOM     10  C   UNL     1       1.114   3.812  19.587  0.00  0.00    +0.000 C 
ATOM     11  H   UNL     1       3.094   1.166  19.209  0.00  0.00    +0.000 HD
ENDROOT
BRANCH   1  13
ATOM     12  O   UNL     1       6.236   7.431  17.475  0.00  0.00    +0.000 OA
ATOM     13  S   UNL     1       5.568   6.552  16.541  0.00  0.00    +0.000 S 
ATOM     14  O   UNL     1       5.115   7.012  15.248  0.00  0.00    +0.000 OA
BRANCH  13  15
ATOM     15  N   UNL     1       6.594   5.259  16.243  0.00  0.00    +0.000 NA
ATOM     16  H   UNL     1       6.386   4.459  16.846  0.00  0.00    +0.000 HD
BRANCH  15  17
ATOM     17  C   UNL     1       6.946   4.968  14.825  0.00  0.00    +0.000 C 
BRANCH  17  18
ATOM     18  C   UNL     1       6.103   3.850  14.197  0.00  0.00    +0.000 C 
ATOM     19  F   UNL     1       4.874   4.288  13.835  0.00  0.00    +0.000 F 
ATOM     20  F   UNL     1       6.697   3.365  13.083  0.00  0.00    +0.000 F 
ATOM     21  F   UNL     1       5.936   2.819  15.054  0.00  0.00    +0.000 F 
ENDBRANCH  17  18
ENDBRANCH  15  17
ENDBRANCH  13  15
ENDBRANCH   1  13
BRANCH   9  22
ATOM     22  C   UNL     1       2.754   2.624  21.114  0.00  0.00    +0.000 C 
ATOM     23  F   UNL     1       3.988   2.343  20.606  0.00  0.00    +0.000 F 
ENDBRANCH   9  22
TORSDOF 5
ENDMDL
MODEL 9
REMARK VINA RESULT:      -7.7      1.847      2.053
REMARK  Name = 
REMARK  5 active torsions:
REMARK  status: ('A' for Active; 'I' for Inactive)
REMARK    1  A    between atoms: S_2  and  N_4
REMARK    2  A    between atoms: S_2  and  C_10
REMARK    3  A    between atoms: N_4  and  C_5
REMARK    4  A    between atoms: C_5  and  C_6
REMARK    5  A    between atoms: C_18  and  C_19
REMARK                            x       y       z     vdW  Elec       q    Type
REMARK                         _______ _______ _______ _____ _____    ______ ____
ROOT
ATOM      1  C   UNL     1       4.197   5.066  17.052  0.00  0.00    +0.000 A 
ATOM      2  C   UNL     1       3.749   6.085  17.903  0.00  0.00    +0.000 A 
ATOM      3  C   UNL     1       2.723   5.823  18.812  0.00  0.00    +0.000 A 
ATOM      4  C   UNL     1       2.169   4.541  18.877  0.00  0.00    +0.000 A 
ATOM      5  C   UNL     1       2.606   3.525  18.009  0.00  0.00    +0.000 A 
ATOM      6  C   UNL     1       3.620   3.793  17.088  0.00  0.00    +0.000 A 
ATOM      7  C   UNL     1       1.918   2.185  18.079  0.00  0.00    +0.000 C 
ATOM      8  N   UNL     1       1.667   1.703  19.438  0.00  0.00    +0.000 NA
ATOM      9  C   UNL     1       1.457   2.758  20.461  0.00  0.00    +0.000 C 
ATOM     10  C   UNL     1       1.122   4.154  19.892  0.00  0.00    +0.000 C 
ATOM     11  H   UNL     1       2.434   1.101  19.743  0.00  0.00    +0.000 HD
ENDROOT
BRANCH   1  13
ATOM     12  O   UNL     1       6.767   4.792  16.582  0.00  0.00    +0.000 OA
ATOM     13  S   UNL     1       5.583   5.370  15.987  0.00  0.00    +0.000 S 
ATOM     14  O   UNL     1       5.527   6.758  15.587  0.00  0.00    +0.000 OA
BRANCH  13  15
ATOM     15  N   UNL     1       5.220   4.475  14.616  0.00  0.00    +0.000 NA
ATOM     16  H   UNL     1       4.504   4.928  14.042  0.00  0.00    +0.000 HD
BRANCH  15  17
ATOM     17  C   UNL     1       6.350   3.818  13.900  0.00  0.00    +0.000 C 
BRANCH  17  18
ATOM     18  C   UNL     1       6.046   3.499  12.430  0.00  0.00    +0.000 C 
ATOM     19  F   UNL     1       4.789   3.864  12.084  0.00  0.00    +0.000 F 
ATOM     20  F   UNL     1       6.893   4.160  11.607  0.00  0.00    +0.000 F 
ATOM     21  F   UNL     1       6.176   2.178  12.176  0.00  0.00    +0.000 F 
ENDBRANCH  17  18
ENDBRANCH  15  17
ENDBRANCH  13  15
ENDBRANCH   1  13
BRANCH   9  22
ATOM     22  C   UNL     1       2.674   2.842  21.410  0.00  0.00    +0.000 C 
ATOM     23  F   UNL     1       3.742   2.232  20.822  0.00  0.00    +0.000 F 
ENDBRANCH   9  22
TORSDOF 5
ENDMDL
