MODEL 1
REMARK VINA RESULT:      -7.8      0.000      0.000
REMARK  Name = 
REMARK  11 active torsions:
REMARK  status: ('A' for Active; 'I' for Inactive)
REMARK    1  A    between atoms: C_1  and  C_2
REMARK    2  A    between atoms: C_2  and  O_3
REMARK    3  A    between atoms: O_3  and  C_4
REMARK    4  A    between atoms: C_4  and  C_6
REMARK    5  A    between atoms: C_6  and  C_7
REMARK    6  A    between atoms: C_9  and  C_10
REMARK    7  A    between atoms: N_12  and  C_13
REMARK    8  A    between atoms: C_13  and  C_14
REMARK    9  A    between atoms: C_14  and  C_15
REMARK   10  A    between atoms: C_15  and  O_17
REMARK   11  A    between atoms: C_19  and  C_20
REMARK                            x       y       z     vdW  Elec       q    Type
REMARK                         _______ _______ _______ _____ _____    ______ ____
ROOT
ATOM      1  C   UNL     1       6.014   4.904  17.177  0.00  0.00    +0.000 A 
ATOM      2  C   UNL     1       6.474   5.679  18.214  0.00  0.00    +0.000 A 
ATOM      3  N   UNL     1       7.411   6.515  17.675  0.00  0.00    +0.000 N 
ATOM      4  N   UNL     1       7.634   6.286  16.367  0.00  0.00    +0.000 NA
ATOM      5  C   UNL     1       6.761   5.314  16.036  0.00  0.00    +0.000 A 
ENDROOT
BRANCH   5   6
ATOM      6  C   UNL     1       6.615   4.838  14.662  0.00  0.00    +0.000 A 
ATOM      7  C   UNL     1       7.584   5.123  13.690  0.00  0.00    +0.000 A 
ATOM      8  C   UNL     1       7.466   4.603  12.400  0.00  0.00    +0.000 A 
ATOM      9  C   UNL     1       6.381   3.793  12.073  0.00  0.00    +0.000 A 
ATOM     10  C   UNL     1       5.407   3.508  13.029  0.00  0.00    +0.000 A 
ATOM     11  C   UNL     1       5.521   4.034  14.316  0.00  0.00    +0.000 A 
ENDBRANCH   5   6
BRANCH   1  13
ATOM     12  C   UNL     1       3.716   4.085  17.626  0.00  0.00    +0.000 C 
ATOM     13  C   UNL     1       5.011   3.898  17.295  0.00  0.00    +0.000 C 
BRANCH  12  14
ATOM     14  C   UNL     1       2.863   2.876  17.728  0.00  0.00    +0.000 C 
ATOM     15  O   UNL     1       3.294   1.731  17.722  0.00  0.00    +0.000 OA
BRANCH  14  16
ATOM     16  O   UNL     1       1.551   3.221  17.760  0.00  0.00    +0.000 OA
BRANCH  16  18
ATOM     17  C   UNL     1       0.886   3.389  20.044  0.00  0.00    +0.000 C 
ATOM     18  C   UNL     1       0.785   2.561  18.777  0.00  0.00    +0.000 C 
ENDBRANCH  16  18
ENDBRANCH  14  16
ENDBRANCH  12  14
BRANCH  12  19
ATOM     19  C   UNL     1       3.165   5.364  17.873  0.00  0.00    +0.000 C 
ATOM     20  N   UNL     1       2.690   6.416  18.062  0.00  0.00    +0.000 NA
ENDBRANCH  12  19
ENDBRANCH   1  13
BRANCH   3  21
ATOM     21  C   UNL     1       8.135   7.576  18.363  0.00  0.00    +0.000 C 
BRANCH  21  22
ATOM     22  C   UNL     1       7.940   8.949  17.723  0.00  0.00    +0.000 C 
BRANCH  22  23
ATOM     23  C   UNL     1       8.784  10.000  18.389  0.00  0.00    +0.000 C 
ATOM     24  O   UNL     1       9.033  11.100  17.921  0.00  0.00    +0.000 OA
BRANCH  23  25
ATOM     25  O   UNL     1       9.267   9.595  19.586  0.00  0.00    +0.000 OA
ATOM     26  H   UNL     1      10.231   9.437  19.602  0.00  0.00    +0.000 HD
ENDBRANCH  23  25
ENDBRANCH  22  23
ENDBRANCH  21  22
ENDBRANCH   3  21
TORSDOF 10
ENDMDL
MODEL 2
REMARK VINA RESULT:      -7.6      3.368      6.643
REMARK  Name = 
REMARK  11 active torsions:
REMARK  status: ('A' for Active; 'I' for Inactive)
REMARK    1  A    between atoms: C_1  and  C_2
REMARK    2  A    between atoms: C_2  and  O_3
REMARK    3  A    between atoms: O_3  and  C_4
REMARK    4  A    between atoms: C_4  and  C_6
REMARK    5  A    between atoms: C_6  and  C_7
REMARK    6  A    between atoms: C_9  and  C_10
REMARK    7  A    between atoms: N_12  and  C_13
REMARK    8  A    between atoms: C_13  and  C_14
REMARK    9  A    between atoms: C_14  and  C_15
REMARK   10  A    between atoms: C_15  and  O_17
REMARK   11  A    between atoms: C_19  and  C_20
REMARK                            x       y       z     vdW  Elec       q    Type
REMARK                         _______ _______ _______ _____ _____    ______ ____
ROOT
ATOM      1  C   UNL     1       3.779   6.335  17.659  0.00  0.00    +0.000 A 
ATOM      2  C   UNL     1       3.738   7.656  17.286  0.00  0.00    +0.000 A 
ATOM      3  N   UNL     1       2.650   8.194  17.914  0.00  0.00    +0.000 N 
ATOM      4  N   UNL     1       1.946   7.287  18.620  0.00  0.00    +0.000 NA
ATOM      5  C   UNL     1       2.643   6.141  18.496  0.00  0.00    +0.000 A 
ENDROOT
BRANCH   5   6
ATOM      6  C   UNL     1       2.259   4.921  19.202  0.00  0.00    +0.000 A 
ATOM      7  C   UNL     1       2.594   4.727  20.549  0.00  0.00    +0.000 A 
ATOM      8  C   UNL     1       2.159   3.588  21.229  0.00  0.00    +0.000 A 
ATOM      9  C   UNL     1       1.385   2.637  20.568  0.00  0.00    +0.000 A 
ATOM     10  C   UNL     1       1.051   2.814  19.226  0.00  0.00    +0.000 A 
ATOM     11  C   UNL     1       1.492   3.949  18.545  0.00  0.00    +0.000 A 
ENDBRANCH   5   6
BRANCH   1  13
ATOM     12  C   UNL     1       6.075   5.655  17.012  0.00  0.00    +0.000 C 
ATOM     13  C   UNL     1       4.769   5.400  17.238  0.00  0.00    +0.000 C 
BRANCH  12  14
ATOM     14  C   UNL     1       6.911   4.527  16.535  0.00  0.00    +0.000 C 
ATOM     15  O   UNL     1       8.013   4.251  16.988  0.00  0.00    +0.000 OA
BRANCH  14  16
ATOM     16  O   UNL     1       6.312   3.899  15.492  0.00  0.00    +0.000 OA
BRANCH  16  18
ATOM     17  C   UNL     1       5.829   3.697  13.165  0.00  0.00    +0.000 C 
ATOM     18  C   UNL     1       6.687   4.399  14.200  0.00  0.00    +0.000 C 
ENDBRANCH  16  18
ENDBRANCH  14  16
ENDBRANCH  12  14
BRANCH  12  19
ATOM     19  C   UNL     1       6.652   6.931  17.206  0.00  0.00    +0.000 C 
ATOM     20  N   UNL     1       7.143   7.984  17.347  0.00  0.00    +0.000 NA
ENDBRANCH  12  19
ENDBRANCH   1  13
BRANCH   3  21
ATOM     21  C   UNL     1       2.226   9.588  17.890  0.00  0.00    +0.000 C 
BRANCH  21  22
ATOM     22  C   UNL     1       0.711   9.756  17.998  0.00  0.00    +0.000 C 
BRANCH  22  23
ATOM     23  C   UNL     1       0.307  10.314  19.334  0.00  0.00    +0.000 C 
ATOM     24  O   UNL     1      -0.137  11.436  19.521  0.00  0.00    +0.000 OA
BRANCH  23  25
ATOM     25  O   UNL     1       0.499   9.433  20.343  0.00  0.00    +0.000 OA
ATOM     26  H   UNL     1       0.298   8.505  20.116  0.00  0.00    +0.000 HD
ENDBRANCH  23  25
ENDBRANCH  22  23
ENDBRANCH  21  22
ENDBRANCH   3  21
TORSDOF 10
ENDMDL
MODEL 3
REMARK VINA RESULT:      -7.5      3.137      7.694
REMARK  Name = 
REMARK  11 active torsions:
REMARK  status: ('A' for Active; 'I' for Inactive)
REMARK    1  A    between atoms: C_1  and  C_2
REMARK    2  A    between atoms: C_2  and  O_3
REMARK    3  A    between atoms: O_3  and  C_4
REMARK    4  A    between atoms: C_4  and  C_6
REMARK    5  A    between atoms: C_6  and  C_7
REMARK    6  A    between atoms: C_9  and  C_10
REMARK    7  A    between atoms: N_12  and  C_13
REMARK    8  A    between atoms: C_13  and  C_14
REMARK    9  A    between atoms: C_14  and  C_15
REMARK   10  A    between atoms: C_15  and  O_17
REMARK   11  A    between atoms: C_19  and  C_20
REMARK                            x       y       z     vdW  Elec       q    Type
REMARK                         _______ _______ _______ _____ _____    ______ ____
ROOT
ATOM      1  C   UNL     1       4.381   5.318  18.183  0.00  0.00    +0.000 A 
ATOM      2  C   UNL     1       4.392   3.950  18.312  0.00  0.00    +0.000 A 
ATOM      3  N   UNL     1       3.189   3.613  18.866  0.00  0.00    +0.000 N 
ATOM      4  N   UNL     1       2.426   4.682  19.164  0.00  0.00    +0.000 NA
ATOM      5  C   UNL     1       3.133   5.741  18.724  0.00  0.00    +0.000 A 
ENDROOT
BRANCH   5   6
ATOM      6  C   UNL     1       2.603   7.101  18.774  0.00  0.00    +0.000 A 
ATOM      7  C   UNL     1       2.651   7.940  17.652  0.00  0.00    +0.000 A 
ATOM      8  C   UNL     1       2.077   9.212  17.695  0.00  0.00    +0.000 A 
ATOM      9  C   UNL     1       1.450   9.653  18.857  0.00  0.00    +0.000 A 
ATOM     10  C   UNL     1       1.401   8.832  19.982  0.00  0.00    +0.000 A 
ATOM     11  C   UNL     1       1.981   7.564  19.942  0.00  0.00    +0.000 A 
ENDBRANCH   5   6
BRANCH   1  13
ATOM     12  C   UNL     1       6.666   6.284  18.175  0.00  0.00    +0.000 C 
ATOM     13  C   UNL     1       5.444   6.093  17.634  0.00  0.00    +0.000 C 
BRANCH  12  14
ATOM     14  C   UNL     1       7.599   7.171  17.438  0.00  0.00    +0.000 C 
ATOM     15  O   UNL     1       7.768   7.133  16.227  0.00  0.00    +0.000 OA
BRANCH  14  16
ATOM     16  O   UNL     1       8.277   7.968  18.302  0.00  0.00    +0.000 OA
BRANCH  16  18
ATOM     17  C   UNL     1       9.141  10.091  18.961  0.00  0.00    +0.000 C 
ATOM     18  C   UNL     1       8.255   9.363  17.969  0.00  0.00    +0.000 C 
ENDBRANCH  16  18
ENDBRANCH  14  16
ENDBRANCH  12  14
BRANCH  12  19
ATOM     19  C   UNL     1       7.069   5.683  19.389  0.00  0.00    +0.000 C 
ATOM     20  N   UNL     1       7.426   5.192  20.389  0.00  0.00    +0.000 NA
ENDBRANCH  12  19
ENDBRANCH   1  13
BRANCH   3  21
ATOM     21  C   UNL     1       2.696   2.267  19.133  0.00  0.00    +0.000 C 
BRANCH  21  22
ATOM     22  C   UNL     1       1.494   2.245  20.075  0.00  0.00    +0.000 C 
BRANCH  22  23
ATOM     23  C   UNL     1       1.911   2.395  21.512  0.00  0.00    +0.000 C 
ATOM     24  O   UNL     1       3.064   2.395  21.912  0.00  0.00    +0.000 OA
BRANCH  23  25
ATOM     25  O   UNL     1       0.854   2.521  22.348  0.00  0.00    +0.000 OA
ATOM     26  H   UNL     1       0.215   1.784  22.308  0.00  0.00    +0.000 HD
ENDBRANCH  23  25
ENDBRANCH  22  23
ENDBRANCH  21  22
ENDBRANCH   3  21
TORSDOF 10
ENDMDL
MODEL 4
REMARK VINA RESULT:      -7.5      4.072      7.149
REMARK  Name = 
REMARK  11 active torsions:
REMARK  status: ('A' for Active; 'I' for Inactive)
REMARK    1  A    between atoms: C_1  and  C_2
REMARK    2  A    between atoms: C_2  and  O_3
REMARK    3  A    between atoms: O_3  and  C_4
REMARK    4  A    between atoms: C_4  and  C_6
REMARK    5  A    between atoms: C_6  and  C_7
REMARK    6  A    between atoms: C_9  and  C_10
REMARK    7  A    between atoms: N_12  and  C_13
REMARK    8  A    between atoms: C_13  and  C_14
REMARK    9  A    between atoms: C_14  and  C_15
REMARK   10  A    between atoms: C_15  and  O_17
REMARK   11  A    between atoms: C_19  and  C_20
REMARK                            x       y       z     vdW  Elec       q    Type
REMARK                         _______ _______ _______ _____ _____    ______ ____
ROOT
ATOM      1  C   UNL     1       2.541   7.003  18.785  0.00  0.00    +0.000 A 
ATOM      2  C   UNL     1       2.307   8.272  19.256  0.00  0.00    +0.000 A 
ATOM      3  N   UNL     1       1.600   8.121  20.416  0.00  0.00    +0.000 N 
ATOM      4  N   UNL     1       1.305   6.835  20.691  0.00  0.00    +0.000 NA
ATOM      5  C   UNL     1       1.901   6.129  19.710  0.00  0.00    +0.000 A 
ENDROOT
BRANCH   5   6
ATOM      6  C   UNL     1       1.900   4.668  19.697  0.00  0.00    +0.000 A 
ATOM      7  C   UNL     1       1.351   3.954  18.623  0.00  0.00    +0.000 A 
ATOM      8  C   UNL     1       1.420   2.560  18.592  0.00  0.00    +0.000 A 
ATOM      9  C   UNL     1       2.040   1.871  19.632  0.00  0.00    +0.000 A 
ATOM     10  C   UNL     1       2.583   2.570  20.709  0.00  0.00    +0.000 A 
ATOM     11  C   UNL     1       2.507   3.962  20.744  0.00  0.00    +0.000 A 
ENDBRANCH   5   6
BRANCH   1  13
ATOM     12  C   UNL     1       4.469   6.097  17.514  0.00  0.00    +0.000 C 
ATOM     13  C   UNL     1       3.263   6.696  17.594  0.00  0.00    +0.000 C 
BRANCH  12  14
ATOM     14  C   UNL     1       5.046   5.920  16.159  0.00  0.00    +0.000 C 
ATOM     15  O   UNL     1       5.319   6.842  15.404  0.00  0.00    +0.000 OA
BRANCH  14  16
ATOM     16  O   UNL     1       5.159   4.601  15.860  0.00  0.00    +0.000 OA
BRANCH  16  18
ATOM     17  C   UNL     1       6.044   3.877  13.767  0.00  0.00    +0.000 C 
ATOM     18  C   UNL     1       6.380   4.241  15.200  0.00  0.00    +0.000 C 
ENDBRANCH  16  18
ENDBRANCH  14  16
ENDBRANCH  12  14
BRANCH  12  19
ATOM     19  C   UNL     1       5.181   5.650  18.651  0.00  0.00    +0.000 C 
ATOM     20  N   UNL     1       5.788   5.272  19.576  0.00  0.00    +0.000 NA
ENDBRANCH  12  19
ENDBRANCH   1  13
BRANCH   3  21
ATOM     21  C   UNL     1       1.176   9.177  21.326  0.00  0.00    +0.000 C 
BRANCH  21  22
ATOM     22  C   UNL     1      -0.208   8.934  21.924  0.00  0.00    +0.000 C 
BRANCH  22  23
ATOM     23  C   UNL     1      -0.451   9.794  23.133  0.00  0.00    +0.000 C 
ATOM     24  O   UNL     1      -1.359  10.601  23.248  0.00  0.00    +0.000 OA
BRANCH  23  25
ATOM     25  O   UNL     1       0.467   9.592  24.106  0.00  0.00    +0.000 OA
ATOM     26  H   UNL     1       1.123  10.309  24.200  0.00  0.00    +0.000 HD
ENDBRANCH  23  25
ENDBRANCH  22  23
ENDBRANCH  21  22
ENDBRANCH   3  21
TORSDOF 10
ENDMDL
MODEL 5
REMARK VINA RESULT:      -7.5      2.262      5.178
REMARK  Name = 
REMARK  11 active torsions:
REMARK  status: ('A' for Active; 'I' for Inactive)
REMARK    1  A    between atoms: C_1  and  C_2
REMARK    2  A    between atoms: C_2  and  O_3
REMARK    3  A    between atoms: O_3  and  C_4
REMARK    4  A    between atoms: C_4  and  C_6
REMARK    5  A    between atoms: C_6  and  C_7
REMARK    6  A    between atoms: C_9  and  C_10
REMARK    7  A    between atoms: N_12  and  C_13
REMARK    8  A    between atoms: C_13  and  C_14
REMARK    9  A    between atoms: C_14  and  C_15
REMARK   10  A    between atoms: C_15  and  O_17
REMARK   11  A    between atoms: C_19  and  C_20
REMARK                            x       y       z     vdW  Elec       q    Type
REMARK                         _______ _______ _______ _____ _____    ______ ____
ROOT
ATOM      1  C   UNL     1       5.924   4.943  15.895  0.00  0.00    +0.000 A 
ATOM      2  C   UNL     1       7.000   5.777  16.080  0.00  0.00    +0.000 A 
ATOM      3  N   UNL     1       6.867   6.293  17.338  0.00  0.00    +0.000 N 
ATOM      4  N   UNL     1       5.737   5.896  17.955  0.00  0.00    +0.000 NA
ATOM      5  C   UNL     1       5.157   5.041  17.090  0.00  0.00    +0.000 A 
ENDROOT
BRANCH   5   6
ATOM      6  C   UNL     1       3.940   4.306  17.427  0.00  0.00    +0.000 A 
ATOM      7  C   UNL     1       3.943   2.909  17.534  0.00  0.00    +0.000 A 
ATOM      8  C   UNL     1       2.789   2.227  17.925  0.00  0.00    +0.000 A 
ATOM      9  C   UNL     1       1.626   2.937  18.213  0.00  0.00    +0.000 A 
ATOM     10  C   UNL     1       1.607   4.327  18.103  0.00  0.00    +0.000 A 
ATOM     11  C   UNL     1       2.758   5.007  17.705  0.00  0.00    +0.000 A 
ENDBRANCH   5   6
BRANCH   1  13
ATOM     12  C   UNL     1       6.378   4.232  13.562  0.00  0.00    +0.000 C 
ATOM     13  C   UNL     1       5.676   4.184  14.714  0.00  0.00    +0.000 C 
BRANCH  12  14
ATOM     14  C   UNL     1       5.904   3.376  12.447  0.00  0.00    +0.000 C 
ATOM     15  O   UNL     1       6.628   2.638  11.794  0.00  0.00    +0.000 OA
BRANCH  14  16
ATOM     16  O   UNL     1       4.583   3.585  12.217  0.00  0.00    +0.000 OA
BRANCH  16  18
ATOM     17  C   UNL     1       3.299   3.873  10.228  0.00  0.00    +0.000 C 
ATOM     18  C   UNL     1       4.055   2.877  11.086  0.00  0.00    +0.000 C 
ENDBRANCH  16  18
ENDBRANCH  14  16
ENDBRANCH  12  14
BRANCH  12  19
ATOM     19  C   UNL     1       7.516   5.052  13.391  0.00  0.00    +0.000 C 
ATOM     20  N   UNL     1       8.451   5.735  13.226  0.00  0.00    +0.000 NA
ENDBRANCH  12  19
ENDBRANCH   1  13
BRANCH   3  21
ATOM     21  C   UNL     1       7.800   7.177  18.024  0.00  0.00    +0.000 C 
BRANCH  21  22
ATOM     22  C   UNL     1       7.572   8.654  17.707  0.00  0.00    +0.000 C 
BRANCH  22  23
ATOM     23  C   UNL     1       8.622   9.528  18.336  0.00  0.00    +0.000 C 
ATOM     24  O   UNL     1       9.019  10.587  17.878  0.00  0.00    +0.000 OA
BRANCH  23  25
ATOM     25  O   UNL     1       9.109   9.007  19.486  0.00  0.00    +0.000 OA
ATOM     26  H   UNL     1       9.373   8.068  19.427  0.00  0.00    +0.000 HD
ENDBRANCH  23  25
ENDBRANCH  22  23
ENDBRANCH  21  22
ENDBRANCH   3  21
TORSDOF 10
ENDMDL
MODEL 6
REMARK VINA RESULT:      -7.5      3.361      6.767
REMARK  Name = 
REMARK  11 active torsions:
REMARK  status: ('A' for Active; 'I' for Inactive)
REMARK    1  A    between atoms: C_1  and  C_2
REMARK    2  A    between atoms: C_2  and  O_3
REMARK    3  A    between atoms: O_3  and  C_4
REMARK    4  A    between atoms: C_4  and  C_6
REMARK    5  A    between atoms: C_6  and  C_7
REMARK    6  A    between atoms: C_9  and  C_10
REMARK    7  A    between atoms: N_12  and  C_13
REMARK    8  A    between atoms: C_13  and  C_14
REMARK    9  A    between atoms: C_14  and  C_15
REMARK   10  A    between atoms: C_15  and  O_17
REMARK   11  A    between atoms: C_19  and  C_20
REMARK                            x       y       z     vdW  Elec       q    Type
REMARK                         _______ _______ _______ _____ _____    ______ ____
ROOT
ATOM      1  C   UNL     1       3.734   6.296  17.705  0.00  0.00    +0.000 A 
ATOM      2  C   UNL     1       3.683   7.612  17.315  0.00  0.00    +0.000 A 
ATOM      3  N   UNL     1       2.581   8.144  17.923  0.00  0.00    +0.000 N 
ATOM      4  N   UNL     1       1.878   7.237  18.631  0.00  0.00    +0.000 NA
ATOM      5  C   UNL     1       2.591   6.098  18.530  0.00  0.00    +0.000 A 
ENDROOT
BRANCH   5   6
ATOM      6  C   UNL     1       2.212   4.882  19.246  0.00  0.00    +0.000 A 
ATOM      7  C   UNL     1       1.616   3.803  18.579  0.00  0.00    +0.000 A 
ATOM      8  C   UNL     1       1.325   2.622  19.263  0.00  0.00    +0.000 A 
ATOM      9  C   UNL     1       1.628   2.510  20.618  0.00  0.00    +0.000 A 
ATOM     10  C   UNL     1       2.214   3.578  21.295  0.00  0.00    +0.000 A 
ATOM     11  C   UNL     1       2.499   4.761  20.613  0.00  0.00    +0.000 A 
ENDBRANCH   5   6
BRANCH   1  13
ATOM     12  C   UNL     1       6.043   5.639  17.077  0.00  0.00    +0.000 C 
ATOM     13  C   UNL     1       4.741   5.368  17.307  0.00  0.00    +0.000 C 
BRANCH  12  14
ATOM     14  C   UNL     1       6.899   4.514  16.628  0.00  0.00    +0.000 C 
ATOM     15  O   UNL     1       7.978   4.232  17.129  0.00  0.00    +0.000 OA
BRANCH  14  16
ATOM     16  O   UNL     1       6.347   3.897  15.553  0.00  0.00    +0.000 OA
BRANCH  16  18
ATOM     17  C   UNL     1       6.007   3.677  13.203  0.00  0.00    +0.000 C 
ATOM     18  C   UNL     1       6.651   4.511  14.293  0.00  0.00    +0.000 C 
ENDBRANCH  16  18
ENDBRANCH  14  16
ENDBRANCH  12  14
BRANCH  12  19
ATOM     19  C   UNL     1       6.598   6.929  17.242  0.00  0.00    +0.000 C 
ATOM     20  N   UNL     1       7.074   7.986  17.394  0.00  0.00    +0.000 NA
ENDBRANCH  12  19
ENDBRANCH   1  13
BRANCH   3  21
ATOM     21  C   UNL     1       2.140   9.532  17.876  0.00  0.00    +0.000 C 
BRANCH  21  22
ATOM     22  C   UNL     1       1.302   9.937  19.087  0.00  0.00    +0.000 C 
BRANCH  22  23
ATOM     23  C   UNL     1      -0.092  10.340  18.691  0.00  0.00    +0.000 C 
ATOM     24  O   UNL     1      -0.871  10.958  19.399  0.00  0.00    +0.000 OA
BRANCH  23  25
ATOM     25  O   UNL     1      -0.415   9.931  17.442  0.00  0.00    +0.000 OA
ATOM     26  H   UNL     1       0.163  10.282  16.737  0.00  0.00    +0.000 HD
ENDBRANCH  23  25
ENDBRANCH  22  23
ENDBRANCH  21  22
ENDBRANCH   3  21
TORSDOF 10
ENDMDL
MODEL 7
REMARK VINA RESULT:      -7.4      2.962      7.589
REMARK  Name = 
REMARK  11 active torsions:
REMARK  status: ('A' for Active; 'I' for Inactive)
REMARK    1  A    between atoms: C_1  and  C_2
REMARK    2  A    between atoms: C_2  and  O_3
REMARK    3  A    between atoms: O_3  and  C_4
REMARK    4  A    between atoms: C_4  and  C_6
REMARK    5  A    between atoms: C_6  and  C_7
REMARK    6  A    between atoms: C_9  and  C_10
REMARK    7  A    between atoms: N_12  and  C_13
REMARK    8  A    between atoms: C_13  and  C_14
REMARK    9  A    between atoms: C_14  and  C_15
REMARK   10  A    between atoms: C_15  and  O_17
REMARK   11  A    between atoms: C_19  and  C_20
REMARK                            x       y       z     vdW  Elec       q    Type
REMARK                         _______ _______ _______ _____ _____    ______ ____
ROOT
ATOM      1  C   UNL     1       3.537   5.748  18.898  0.00  0.00    +0.000 A 
ATOM      2  C   UNL     1       3.511   4.503  19.477  0.00  0.00    +0.000 A 
ATOM      3  N   UNL     1       2.497   4.532  20.393  0.00  0.00    +0.000 N 
ATOM      4  N   UNL     1       1.907   5.740  20.489  0.00  0.00    +0.000 NA
ATOM      5  C   UNL     1       2.518   6.495  19.554  0.00  0.00    +0.000 A 
ENDROOT
BRANCH   5   6
ATOM      6  C   UNL     1       2.097   7.864  19.268  0.00  0.00    +0.000 A 
ATOM      7  C   UNL     1       2.336   8.450  18.018  0.00  0.00    +0.000 A 
ATOM      8  C   UNL     1       1.865   9.734  17.737  0.00  0.00    +0.000 A 
ATOM      9  C   UNL     1       1.152  10.440  18.702  0.00  0.00    +0.000 A 
ATOM     10  C   UNL     1       0.913   9.871  19.953  0.00  0.00    +0.000 A 
ATOM     11  C   UNL     1       1.390   8.591  20.236  0.00  0.00    +0.000 A 
ENDBRANCH   5   6
BRANCH   1  13
ATOM     12  C   UNL     1       5.790   6.124  17.930  0.00  0.00    +0.000 C 
ATOM     13  C   UNL     1       4.442   6.150  17.872  0.00  0.00    +0.000 C 
BRANCH  12  14
ATOM     14  C   UNL     1       6.527   6.635  16.748  0.00  0.00    +0.000 C 
ATOM     15  O   UNL     1       7.502   7.370  16.814  0.00  0.00    +0.000 OA
BRANCH  14  16
ATOM     16  O   UNL     1       5.926   6.228  15.602  0.00  0.00    +0.000 OA
BRANCH  16  18
ATOM     17  C   UNL     1       5.989   3.868  15.262  0.00  0.00    +0.000 C 
ATOM     18  C   UNL     1       6.626   5.194  14.896  0.00  0.00    +0.000 C 
ENDBRANCH  16  18
ENDBRANCH  14  16
ENDBRANCH  12  14
BRANCH  12  19
ATOM     19  C   UNL     1       6.500   5.640  19.053  0.00  0.00    +0.000 C 
ATOM     20  N   UNL     1       7.075   5.219  19.980  0.00  0.00    +0.000 NA
ENDBRANCH  12  19
ENDBRANCH   1  13
BRANCH   3  21
ATOM     21  C   UNL     1       2.028   3.425  21.216  0.00  0.00    +0.000 C 
BRANCH  21  22
ATOM     22  C   UNL     1       2.080   2.079  20.496  0.00  0.00    +0.000 C 
BRANCH  22  23
ATOM     23  C   UNL     1       1.321   2.111  19.198  0.00  0.00    +0.000 C 
ATOM     24  O   UNL     1       0.173   2.504  19.067  0.00  0.00    +0.000 OA
BRANCH  23  25
ATOM     25  O   UNL     1       2.047   1.637  18.160  0.00  0.00    +0.000 OA
ATOM     26  H   UNL     1       2.292   0.694  18.233  0.00  0.00    +0.000 HD
ENDBRANCH  23  25
ENDBRANCH  22  23
ENDBRANCH  21  22
ENDBRANCH   3  21
TORSDOF 10
ENDMDL
MODEL 8
REMARK VINA RESULT:      -7.4      1.126      1.305
REMARK  Name = 
REMARK  11 active torsions:
REMARK  status: ('A' for Active; 'I' for Inactive)
REMARK    1  A    between atoms: C_1  and  C_2
REMARK    2  A    between atoms: C_2  and  O_3
REMARK    3  A    between atoms: O_3  and  C_4
REMARK    4  A    between atoms: C_4  and  C_6
REMARK    5  A    between atoms: C_6  and  C_7
REMARK    6  A    between atoms: C_9  and  C_10
REMARK    7  A    between atoms: N_12  and  C_13
REMARK    8  A    between atoms: C_13  and  C_14
REMARK    9  A    between atoms: C_14  and  C_15
REMARK   10  A    between atoms: C_15  and  O_17
REMARK   11  A    between atoms: C_19  and  C_20
REMARK                            x       y       z     vdW  Elec       q    Type
REMARK                         _______ _______ _______ _____ _____    ______ ____
ROOT
ATOM      1  C   UNL     1       5.432   5.536  16.906  0.00  0.00    +0.000 A 
ATOM      2  C   UNL     1       5.943   6.312  17.918  0.00  0.00    +0.000 A 
ATOM      3  N   UNL     1       7.165   6.744  17.483  0.00  0.00    +0.000 N 
ATOM      4  N   UNL     1       7.505   6.242  16.280  0.00  0.00    +0.000 NA
ATOM      5  C   UNL     1       6.436   5.518  15.896  0.00  0.00    +0.000 A 
ENDROOT
BRANCH   5   6
ATOM      6  C   UNL     1       6.364   4.878  14.584  0.00  0.00    +0.000 A 
ATOM      7  C   UNL     1       7.418   4.986  13.667  0.00  0.00    +0.000 A 
ATOM      8  C   UNL     1       7.365   4.312  12.446  0.00  0.00    +0.000 A 
ATOM      9  C   UNL     1       6.260   3.523  12.135  0.00  0.00    +0.000 A 
ATOM     10  C   UNL     1       5.202   3.413  13.036  0.00  0.00    +0.000 A 
ATOM     11  C   UNL     1       5.252   4.093  14.252  0.00  0.00    +0.000 A 
ENDBRANCH   5   6
BRANCH   1  13
ATOM     12  C   UNL     1       3.759   3.942  17.807  0.00  0.00    +0.000 C 
ATOM     13  C   UNL     1       4.161   4.892  16.937  0.00  0.00    +0.000 C 
BRANCH  12  14
ATOM     14  C   UNL     1       2.397   3.384  17.617  0.00  0.00    +0.000 C 
ATOM     15  O   UNL     1       1.571   3.842  16.841  0.00  0.00    +0.000 OA
BRANCH  14  16
ATOM     16  O   UNL     1       2.185   2.349  18.469  0.00  0.00    +0.000 OA
BRANCH  16  18
ATOM     17  C   UNL     1       1.246   2.927  20.583  0.00  0.00    +0.000 C 
ATOM     18  C   UNL     1       0.946   2.414  19.188  0.00  0.00    +0.000 C 
ENDBRANCH  16  18
ENDBRANCH  14  16
ENDBRANCH  12  14
BRANCH  12  19
ATOM     19  C   UNL     1       4.575   3.474  18.862  0.00  0.00    +0.000 C 
ATOM     20  N   UNL     1       5.230   3.082  19.749  0.00  0.00    +0.000 NA
ENDBRANCH  12  19
ENDBRANCH   1  13
BRANCH   3  21
ATOM     21  C   UNL     1       8.067   7.655  18.175  0.00  0.00    +0.000 C 
BRANCH  21  22
ATOM     22  C   UNL     1       8.023   9.078  17.621  0.00  0.00    +0.000 C 
BRANCH  22  23
ATOM     23  C   UNL     1       8.822  10.030  18.467  0.00  0.00    +0.000 C 
ATOM     24  O   UNL     1       9.050  11.196  18.186  0.00  0.00    +0.000 OA
BRANCH  23  25
ATOM     25  O   UNL     1       9.289   9.452  19.598  0.00  0.00    +0.000 OA
ATOM     26  H   UNL     1      10.178   9.751  19.869  0.00  0.00    +0.000 HD
ENDBRANCH  23  25
ENDBRANCH  22  23
ENDBRANCH  21  22
ENDBRANCH   3  21
TORSDOF 10
ENDMDL
MODEL 9
REMARK VINA RESULT:      -7.4      1.161      1.591
REMARK  Name = 
REMARK  11 active torsions:
REMARK  status: ('A' for Active; 'I' for Inactive)
REMARK    1  A    between atoms: C_1  and  C_2
REMARK    2  A    between atoms: C_2  and  O_3
REMARK    3  A    between atoms: O_3  and  C_4
REMARK    4  A    between atoms: C_4  and  C_6
REMARK    5  A    between atoms: C_6  and  C_7
REMARK    6  A    between atoms: C_9  and  C_10
REMARK    7  A    between atoms: N_12  and  C_13
REMARK    8  A    between atoms: C_13  and  C_14
REMARK    9  A    between atoms: C_14  and  C_15
REMARK   10  A    between atoms: C_15  and  O_17
REMARK   11  A    between atoms: C_19  and  C_20
REMARK                            x       y       z     vdW  Elec       q    Type
REMARK                         _______ _______ _______ _____ _____    ______ ____
ROOT
ATOM      1  C   UNL     1       5.513   5.693  16.929  0.00  0.00    +0.000 A 
ATOM      2  C   UNL     1       6.001   6.507  17.922  0.00  0.00    +0.000 A 
ATOM      3  N   UNL     1       7.246   6.897  17.515  0.00  0.00    +0.000 N 
ATOM      4  N   UNL     1       7.620   6.335  16.349  0.00  0.00    +0.000 NA
ATOM      5  C   UNL     1       6.553   5.611  15.959  0.00  0.00    +0.000 A 
ENDROOT
BRANCH   5   6
ATOM      6  C   UNL     1       6.517   4.913  14.676  0.00  0.00    +0.000 A 
ATOM      7  C   UNL     1       5.466   4.044  14.353  0.00  0.00    +0.000 A 
ATOM      8  C   UNL     1       5.409   3.439  13.096  0.00  0.00    +0.000 A 
ATOM      9  C   UNL     1       6.402   3.699  12.154  0.00  0.00    +0.000 A 
ATOM     10  C   UNL     1       7.456   4.555  12.466  0.00  0.00    +0.000 A 
ATOM     11  C   UNL     1       7.516   5.154  13.724  0.00  0.00    +0.000 A 
ENDBRANCH   5   6
BRANCH   1  13
ATOM     12  C   UNL     1       3.810   4.106  17.786  0.00  0.00    +0.000 C 
ATOM     13  C   UNL     1       4.230   5.073  16.942  0.00  0.00    +0.000 C 
BRANCH  12  14
ATOM     14  C   UNL     1       2.438   3.580  17.580  0.00  0.00    +0.000 C 
ATOM     15  O   UNL     1       2.163   2.661  16.821  0.00  0.00    +0.000 OA
BRANCH  14  16
ATOM     16  O   UNL     1       1.540   4.304  18.294  0.00  0.00    +0.000 OA
BRANCH  16  18
ATOM     17  C   UNL     1       1.446   4.609  20.657  0.00  0.00    +0.000 C 
ATOM     18  C   UNL     1       1.102   3.680  19.509  0.00  0.00    +0.000 C 
ENDBRANCH  16  18
ENDBRANCH  14  16
ENDBRANCH  12  14
BRANCH  12  19
ATOM     19  C   UNL     1       4.616   3.594  18.827  0.00  0.00    +0.000 C 
ATOM     20  N   UNL     1       5.280   3.191  19.702  0.00  0.00    +0.000 NA
ENDBRANCH  12  19
ENDBRANCH   1  13
BRANCH   3  21
ATOM     21  C   UNL     1       8.139   7.825  18.197  0.00  0.00    +0.000 C 
BRANCH  21  22
ATOM     22  C   UNL     1       7.996   9.265  17.708  0.00  0.00    +0.000 C 
BRANCH  22  23
ATOM     23  C   UNL     1       8.937  10.193  18.426  0.00  0.00    +0.000 C 
ATOM     24  O   UNL     1       9.321  11.270  17.998  0.00  0.00    +0.000 OA
BRANCH  23  25
ATOM     25  O   UNL     1       9.341   9.700  19.619  0.00  0.00    +0.000 OA
ATOM     26  H   UNL     1      10.302   9.540  19.688  0.00  0.00    +0.000 HD
ENDBRANCH  23  25
ENDBRANCH  22  23
ENDBRANCH  21  22
ENDBRANCH   3  21
TORSDOF 10
ENDMDL
