MODEL 1
REMARK VINA RESULT:      -4.5      0.000      0.000
REMARK  Name = 
REMARK  11 active torsions:
REMARK  status: ('A' for Active; 'I' for Inactive)
REMARK    1  A    between atoms: C_1  and  C_2
REMARK    2  A    between atoms: C_2  and  C_3
REMARK    3  A    between atoms: C_3  and  C_4
REMARK    4  A    between atoms: C_4  and  C_5
REMARK    5  A    between atoms: C_5  and  C_6
REMARK    6  A    between atoms: C_6  and  C_7
REMARK    7  A    between atoms: C_7  and  C_8
REMARK    8  A    between atoms: C_8  and  C_9
REMARK    9  A    between atoms: C_9  and  C_10
REMARK   10  A    between atoms: C_10  and  C_11
REMARK   11  A    between atoms: C_11  and  O_12
REMARK                            x       y       z     vdW  Elec       q    Type
REMARK                         _______ _______ _______ _____ _____    ______ ____
ROOT
ATOM      1  C   UNL     1       3.523   5.695  17.902  0.00  0.00    +0.000 C 
ENDROOT
BRANCH   1   2
ATOM      2  C   UNL     1       2.076   5.364  18.243  0.00  0.00    +0.000 C 
BRANCH   2   3
ATOM      3  C   UNL     1       1.689   4.005  17.675  0.00  0.00    +0.000 C 
BRANCH   3   4
ATOM      4  C   UNL     1       1.273   3.056  18.793  0.00  0.00    +0.000 C 
BRANCH   4   5
ATOM      5  C   UNL     1       0.917   3.837  20.050  0.00  0.00    +0.000 C 
BRANCH   5   7
ATOM      6  C   UNL     1       2.897   2.665  21.046  0.00  0.00    +0.000 C 
ATOM      7  C   UNL     1       1.481   3.158  21.294  0.00  0.00    +0.000 C 
ENDBRANCH   5   7
ENDBRANCH   4   5
ENDBRANCH   3   4
ENDBRANCH   2   3
ENDBRANCH   1   2
BRANCH   1   8
ATOM      8  C   UNL     1       4.419   5.495  19.116  0.00  0.00    +0.000 C 
BRANCH   8   9
ATOM      9  C   UNL     1       5.537   4.507  18.800  0.00  0.00    +0.000 C 
BRANCH   9  10
ATOM     10  C   UNL     1       5.804   4.448  17.302  0.00  0.00    +0.000 C 
BRANCH  10  11
ATOM     11  C   UNL     1       7.272   4.717  17.000  0.00  0.00    +0.000 C 
BRANCH  11  12
ATOM     12  O   UNL     1       7.384   5.777  16.063  0.00  0.00    +0.000 OA
ATOM     13  H   UNL     1       6.776   5.583  15.329  0.00  0.00    +0.000 HD
ENDBRANCH  11  12
ENDBRANCH  10  11
ENDBRANCH   9  10
ENDBRANCH   8   9
ENDBRANCH   1   8
TORSDOF 10
ENDMDL
MODEL 2
REMARK VINA RESULT:      -4.5      1.811      1.944
REMARK  Name = 
REMARK  11 active torsions:
REMARK  status: ('A' for Active; 'I' for Inactive)
REMARK    1  A    between atoms: C_1  and  C_2
REMARK    2  A    between atoms: C_2  and  C_3
REMARK    3  A    between atoms: C_3  and  C_4
REMARK    4  A    between atoms: C_4  and  C_5
REMARK    5  A    between atoms: C_5  and  C_6
REMARK    6  A    between atoms: C_6  and  C_7
REMARK    7  A    between atoms: C_7  and  C_8
REMARK    8  A    between atoms: C_8  and  C_9
REMARK    9  A    between atoms: C_9  and  C_10
REMARK   10  A    between atoms: C_10  and  C_11
REMARK   11  A    between atoms: C_11  and  O_12
REMARK                            x       y       z     vdW  Elec       q    Type
REMARK                         _______ _______ _______ _____ _____    ______ ____
ROOT
ATOM      1  C   UNL     1       4.380   4.063  18.272  0.00  0.00    +0.000 C 
ENDROOT
BRANCH   1   2
ATOM      2  C   UNL     1       3.389   3.728  17.164  0.00  0.00    +0.000 C 
BRANCH   2   3
ATOM      3  C   UNL     1       1.959   3.808  17.682  0.00  0.00    +0.000 C 
BRANCH   3   4
ATOM      4  C   UNL     1       1.633   2.594  18.544  0.00  0.00    +0.000 C 
BRANCH   4   5
ATOM      5  C   UNL     1       0.628   2.962  19.626  0.00  0.00    +0.000 C 
BRANCH   5   7
ATOM      6  C   UNL     1       2.192   3.152  21.575  0.00  0.00    +0.000 C 
ATOM      7  C   UNL     1       1.249   3.904  20.652  0.00  0.00    +0.000 C 
ENDBRANCH   5   7
ENDBRANCH   4   5
ENDBRANCH   3   4
ENDBRANCH   2   3
ENDBRANCH   1   2
BRANCH   1   8
ATOM      8  C   UNL     1       4.476   5.570  18.466  0.00  0.00    +0.000 C 
BRANCH   8   9
ATOM      9  C   UNL     1       5.814   6.091  17.952  0.00  0.00    +0.000 C 
BRANCH   9  10
ATOM     10  C   UNL     1       6.941   5.124  18.289  0.00  0.00    +0.000 C 
BRANCH  10  11
ATOM     11  C   UNL     1       8.011   5.807  19.129  0.00  0.00    +0.000 C 
BRANCH  11  12
ATOM     12  O   UNL     1       7.887   5.407  20.485  0.00  0.00    +0.000 OA
ATOM     13  H   UNL     1       7.005   5.013  20.593  0.00  0.00    +0.000 HD
ENDBRANCH  11  12
ENDBRANCH  10  11
ENDBRANCH   9  10
ENDBRANCH   8   9
ENDBRANCH   1   8
TORSDOF 10
ENDMDL
MODEL 3
REMARK VINA RESULT:      -4.4      1.925      2.336
REMARK  Name = 
REMARK  11 active torsions:
REMARK  status: ('A' for Active; 'I' for Inactive)
REMARK    1  A    between atoms: C_1  and  C_2
REMARK    2  A    between atoms: C_2  and  C_3
REMARK    3  A    between atoms: C_3  and  C_4
REMARK    4  A    between atoms: C_4  and  C_5
REMARK    5  A    between atoms: C_5  and  C_6
REMARK    6  A    between atoms: C_6  and  C_7
REMARK    7  A    between atoms: C_7  and  C_8
REMARK    8  A    between atoms: C_8  and  C_9
REMARK    9  A    between atoms: C_9  and  C_10
REMARK   10  A    between atoms: C_10  and  C_11
REMARK   11  A    between atoms: C_11  and  O_12
REMARK                            x       y       z     vdW  Elec       q    Type
REMARK                         _______ _______ _______ _____ _____    ______ ____
ROOT
ATOM      1  C   UNL     1       3.816   5.202  17.961  0.00  0.00    +0.000 C 
ENDROOT
BRANCH   1   2
ATOM      2  C   UNL     1       2.442   5.767  18.297  0.00  0.00    +0.000 C 
BRANCH   2   3
ATOM      3  C   UNL     1       2.392   6.223  19.749  0.00  0.00    +0.000 C 
BRANCH   3   4
ATOM      4  C   UNL     1       2.317   5.022  20.685  0.00  0.00    +0.000 C 
BRANCH   4   5
ATOM      5  C   UNL     1       1.060   4.210  20.411  0.00  0.00    +0.000 C 
BRANCH   5   7
ATOM      6  C   UNL     1       1.712   2.085  19.252  0.00  0.00    +0.000 C 
ATOM      7  C   UNL     1       1.325   2.717  20.578  0.00  0.00    +0.000 C 
ENDBRANCH   5   7
ENDBRANCH   4   5
ENDBRANCH   3   4
ENDBRANCH   2   3
ENDBRANCH   1   2
BRANCH   1   8
ATOM      8  C   UNL     1       4.676   6.256  17.275  0.00  0.00    +0.000 C 
BRANCH   8   9
ATOM      9  C   UNL     1       6.156   5.946  17.468  0.00  0.00    +0.000 C 
BRANCH   9  10
ATOM     10  C   UNL     1       6.428   5.435  18.876  0.00  0.00    +0.000 C 
BRANCH  10  11
ATOM     11  C   UNL     1       7.851   5.756  19.307  0.00  0.00    +0.000 C 
BRANCH  11  12
ATOM     12  O   UNL     1       8.034   5.403  20.669  0.00  0.00    +0.000 OA
ATOM     13  H   UNL     1       7.344   5.855  21.183  0.00  0.00    +0.000 HD
ENDBRANCH  11  12
ENDBRANCH  10  11
ENDBRANCH   9  10
ENDBRANCH   8   9
ENDBRANCH   1   8
TORSDOF 10
ENDMDL
MODEL 4
REMARK VINA RESULT:      -4.4      1.202      1.747
REMARK  Name = 
REMARK  11 active torsions:
REMARK  status: ('A' for Active; 'I' for Inactive)
REMARK    1  A    between atoms: C_1  and  C_2
REMARK    2  A    between atoms: C_2  and  C_3
REMARK    3  A    between atoms: C_3  and  C_4
REMARK    4  A    between atoms: C_4  and  C_5
REMARK    5  A    between atoms: C_5  and  C_6
REMARK    6  A    between atoms: C_6  and  C_7
REMARK    7  A    between atoms: C_7  and  C_8
REMARK    8  A    between atoms: C_8  and  C_9
REMARK    9  A    between atoms: C_9  and  C_10
REMARK   10  A    between atoms: C_10  and  C_11
REMARK   11  A    between atoms: C_11  and  O_12
REMARK                            x       y       z     vdW  Elec       q    Type
REMARK                         _______ _______ _______ _____ _____    ______ ____
ROOT
ATOM      1  C   UNL     1       4.480   4.538  17.897  0.00  0.00    +0.000 C 
ENDROOT
BRANCH   1   2
ATOM      2  C   UNL     1       3.387   5.598  17.909  0.00  0.00    +0.000 C 
BRANCH   2   3
ATOM      3  C   UNL     1       2.010   4.948  17.949  0.00  0.00    +0.000 C 
BRANCH   3   4
ATOM      4  C   UNL     1       2.126   3.440  17.756  0.00  0.00    +0.000 C 
BRANCH   4   5
ATOM      5  C   UNL     1       1.198   2.707  18.714  0.00  0.00    +0.000 C 
BRANCH   5   7
ATOM      6  C   UNL     1       1.406   2.790  21.211  0.00  0.00    +0.000 C 
ATOM      7  C   UNL     1       0.943   3.534  19.970  0.00  0.00    +0.000 C 
ENDBRANCH   5   7
ENDBRANCH   4   5
ENDBRANCH   3   4
ENDBRANCH   2   3
ENDBRANCH   1   2
BRANCH   1   8
ATOM      8  C   UNL     1       5.857   5.189  17.909  0.00  0.00    +0.000 C 
BRANCH   8   9
ATOM      9  C   UNL     1       6.755   4.559  16.848  0.00  0.00    +0.000 C 
BRANCH   9  10
ATOM     10  C   UNL     1       5.940   4.102  15.646  0.00  0.00    +0.000 C 
BRANCH  10  11
ATOM     11  C   UNL     1       6.709   4.323  14.352  0.00  0.00    +0.000 C 
BRANCH  11  12
ATOM     12  O   UNL     1       7.617   5.402  14.508  0.00  0.00    +0.000 OA
ATOM     13  H   UNL     1       7.335   5.909  15.288  0.00  0.00    +0.000 HD
ENDBRANCH  11  12
ENDBRANCH  10  11
ENDBRANCH   9  10
ENDBRANCH   8   9
ENDBRANCH   1   8
TORSDOF 10
ENDMDL
MODEL 5
REMARK VINA RESULT:      -4.4      1.407      1.623
REMARK  Name = 
REMARK  11 active torsions:
REMARK  status: ('A' for Active; 'I' for Inactive)
REMARK    1  A    between atoms: C_1  and  C_2
REMARK    2  A    between atoms: C_2  and  C_3
REMARK    3  A    between atoms: C_3  and  C_4
REMARK    4  A    between atoms: C_4  and  C_5
REMARK    5  A    between atoms: C_5  and  C_6
REMARK    6  A    between atoms: C_6  and  C_7
REMARK    7  A    between atoms: C_7  and  C_8
REMARK    8  A    between atoms: C_8  and  C_9
REMARK    9  A    between atoms: C_9  and  C_10
REMARK   10  A    between atoms: C_10  and  C_11
REMARK   11  A    between atoms: C_11  and  O_12
REMARK                            x       y       z     vdW  Elec       q    Type
REMARK                         _______ _______ _______ _____ _____    ______ ____
ROOT
ATOM      1  C   UNL     1       3.296   5.103  17.643  0.00  0.00    +0.000 C 
ENDROOT
BRANCH   1   2
ATOM      2  C   UNL     1       3.680   3.713  17.152  0.00  0.00    +0.000 C 
BRANCH   2   3
ATOM      3  C   UNL     1       2.537   2.731  17.377  0.00  0.00    +0.000 C 
BRANCH   3   4
ATOM      4  C   UNL     1       2.384   2.420  18.861  0.00  0.00    +0.000 C 
BRANCH   4   5
ATOM      5  C   UNL     1       0.972   2.741  19.331  0.00  0.00    +0.000 C 
BRANCH   5   7
ATOM      6  C   UNL     1       1.679   2.638  21.733  0.00  0.00    +0.000 C 
ATOM      7  C   UNL     1       0.994   3.476  20.667  0.00  0.00    +0.000 C 
ENDBRANCH   5   7
ENDBRANCH   4   5
ENDBRANCH   3   4
ENDBRANCH   2   3
ENDBRANCH   1   2
BRANCH   1   8
ATOM      8  C   UNL     1       4.448   5.735  18.413  0.00  0.00    +0.000 C 
BRANCH   8   9
ATOM      9  C   UNL     1       5.456   6.356  17.452  0.00  0.00    +0.000 C 
BRANCH   9  10
ATOM     10  C   UNL     1       6.876   5.938  17.807  0.00  0.00    +0.000 C 
BRANCH  10  11
ATOM     11  C   UNL     1       7.296   4.708  17.014  0.00  0.00    +0.000 C 
BRANCH  11  12
ATOM     12  O   UNL     1       8.300   3.998  17.722  0.00  0.00    +0.000 OA
ATOM     13  H   UNL     1       7.924   3.139  17.978  0.00  0.00    +0.000 HD
ENDBRANCH  11  12
ENDBRANCH  10  11
ENDBRANCH   9  10
ENDBRANCH   8   9
ENDBRANCH   1   8
TORSDOF 10
ENDMDL
MODEL 6
REMARK VINA RESULT:      -4.4      1.835      2.483
REMARK  Name = 
REMARK  11 active torsions:
REMARK  status: ('A' for Active; 'I' for Inactive)
REMARK    1  A    between atoms: C_1  and  C_2
REMARK    2  A    between atoms: C_2  and  C_3
REMARK    3  A    between atoms: C_3  and  C_4
REMARK    4  A    between atoms: C_4  and  C_5
REMARK    5  A    between atoms: C_5  and  C_6
REMARK    6  A    between atoms: C_6  and  C_7
REMARK    7  A    between atoms: C_7  and  C_8
REMARK    8  A    between atoms: C_8  and  C_9
REMARK    9  A    between atoms: C_9  and  C_10
REMARK   10  A    between atoms: C_10  and  C_11
REMARK   11  A    between atoms: C_11  and  O_12
REMARK                            x       y       z     vdW  Elec       q    Type
REMARK                         _______ _______ _______ _____ _____    ______ ____
ROOT
ATOM      1  C   UNL     1       2.978   3.795  17.111  0.00  0.00    +0.000 C 
ENDROOT
BRANCH   1   2
ATOM      2  C   UNL     1       2.558   2.352  17.359  0.00  0.00    +0.000 C 
BRANCH   2   3
ATOM      3  C   UNL     1       3.116   1.853  18.686  0.00  0.00    +0.000 C 
BRANCH   3   4
ATOM      4  C   UNL     1       2.138   2.142  19.819  0.00  0.00    +0.000 C 
BRANCH   4   5
ATOM      5  C   UNL     1       2.863   2.763  21.004  0.00  0.00    +0.000 C 
BRANCH   5   7
ATOM      6  C   UNL     1       1.406   4.700  20.365  0.00  0.00    +0.000 C 
ATOM      7  C   UNL     1       2.131   4.004  21.505  0.00  0.00    +0.000 C 
ENDBRANCH   5   7
ENDBRANCH   4   5
ENDBRANCH   3   4
ENDBRANCH   2   3
ENDBRANCH   1   2
BRANCH   1   8
ATOM      8  C   UNL     1       4.463   3.978  17.399  0.00  0.00    +0.000 C 
BRANCH   8   9
ATOM      9  C   UNL     1       4.697   5.249  18.209  0.00  0.00    +0.000 C 
BRANCH   9  10
ATOM     10  C   UNL     1       5.627   4.982  19.384  0.00  0.00    +0.000 C 
BRANCH  10  11
ATOM     11  C   UNL     1       7.008   5.570  19.131  0.00  0.00    +0.000 C 
BRANCH  11  12
ATOM     12  O   UNL     1       7.784   5.504  20.317  0.00  0.00    +0.000 OA
ATOM     13  H   UNL     1       7.208   5.167  21.024  0.00  0.00    +0.000 HD
ENDBRANCH  11  12
ENDBRANCH  10  11
ENDBRANCH   9  10
ENDBRANCH   8   9
ENDBRANCH   1   8
TORSDOF 10
ENDMDL
MODEL 7
REMARK VINA RESULT:      -4.3      1.215      1.413
REMARK  Name = 
REMARK  11 active torsions:
REMARK  status: ('A' for Active; 'I' for Inactive)
REMARK    1  A    between atoms: C_1  and  C_2
REMARK    2  A    between atoms: C_2  and  C_3
REMARK    3  A    between atoms: C_3  and  C_4
REMARK    4  A    between atoms: C_4  and  C_5
REMARK    5  A    between atoms: C_5  and  C_6
REMARK    6  A    between atoms: C_6  and  C_7
REMARK    7  A    between atoms: C_7  and  C_8
REMARK    8  A    between atoms: C_8  and  C_9
REMARK    9  A    between atoms: C_9  and  C_10
REMARK   10  A    between atoms: C_10  and  C_11
REMARK   11  A    between atoms: C_11  and  O_12
REMARK                            x       y       z     vdW  Elec       q    Type
REMARK                         _______ _______ _______ _____ _____    ______ ____
ROOT
ATOM      1  C   UNL     1       4.463   3.658  18.315  0.00  0.00    +0.000 C 
ENDROOT
BRANCH   1   2
ATOM      2  C   UNL     1       3.174   3.605  17.505  0.00  0.00    +0.000 C 
BRANCH   2   3
ATOM      3  C   UNL     1       2.510   2.241  17.646  0.00  0.00    +0.000 C 
BRANCH   3   4
ATOM      4  C   UNL     1       2.035   2.023  19.078  0.00  0.00    +0.000 C 
BRANCH   4   5
ATOM      5  C   UNL     1       0.932   3.011  19.430  0.00  0.00    +0.000 C 
BRANCH   5   7
ATOM      6  C   UNL     1       2.394   3.019  21.466  0.00  0.00    +0.000 C 
ATOM      7  C   UNL     1       1.129   3.574  20.834  0.00  0.00    +0.000 C 
ENDBRANCH   5   7
ENDBRANCH   4   5
ENDBRANCH   3   4
ENDBRANCH   2   3
ENDBRANCH   1   2
BRANCH   1   8
ATOM      8  C   UNL     1       4.815   5.098  18.667  0.00  0.00    +0.000 C 
BRANCH   8   9
ATOM      9  C   UNL     1       6.307   5.230  18.950  0.00  0.00    +0.000 C 
BRANCH   9  10
ATOM     10  C   UNL     1       7.132   4.725  17.775  0.00  0.00    +0.000 C 
BRANCH  10  11
ATOM     11  C   UNL     1       6.903   5.583  16.539  0.00  0.00    +0.000 C 
BRANCH  11  12
ATOM     12  O   UNL     1       7.615   6.804  16.662  0.00  0.00    +0.000 OA
ATOM     13  H   UNL     1       6.982   7.483  16.952  0.00  0.00    +0.000 HD
ENDBRANCH  11  12
ENDBRANCH  10  11
ENDBRANCH   9  10
ENDBRANCH   8   9
ENDBRANCH   1   8
TORSDOF 10
ENDMDL
MODEL 8
REMARK VINA RESULT:      -4.3      1.400      1.746
REMARK  Name = 
REMARK  11 active torsions:
REMARK  status: ('A' for Active; 'I' for Inactive)
REMARK    1  A    between atoms: C_1  and  C_2
REMARK    2  A    between atoms: C_2  and  C_3
REMARK    3  A    between atoms: C_3  and  C_4
REMARK    4  A    between atoms: C_4  and  C_5
REMARK    5  A    between atoms: C_5  and  C_6
REMARK    6  A    between atoms: C_6  and  C_7
REMARK    7  A    between atoms: C_7  and  C_8
REMARK    8  A    between atoms: C_8  and  C_9
REMARK    9  A    between atoms: C_9  and  C_10
REMARK   10  A    between atoms: C_10  and  C_11
REMARK   11  A    between atoms: C_11  and  O_12
REMARK                            x       y       z     vdW  Elec       q    Type
REMARK                         _______ _______ _______ _____ _____    ______ ____
ROOT
ATOM      1  C   UNL     1       4.415   4.029  18.592  0.00  0.00    +0.000 C 
ENDROOT
BRANCH   1   2
ATOM      2  C   UNL     1       3.747   3.196  17.506  0.00  0.00    +0.000 C 
BRANCH   2   3
ATOM      3  C   UNL     1       2.232   3.250  17.646  0.00  0.00    +0.000 C 
BRANCH   3   4
ATOM      4  C   UNL     1       1.755   2.254  18.696  0.00  0.00    +0.000 C 
BRANCH   4   5
ATOM      5  C   UNL     1       0.677   2.876  19.572  0.00  0.00    +0.000 C 
BRANCH   5   7
ATOM      6  C   UNL     1       2.055   3.159  21.646  0.00  0.00    +0.000 C 
ATOM      7  C   UNL     1       1.279   3.875  20.555  0.00  0.00    +0.000 C 
ENDBRANCH   5   7
ENDBRANCH   4   5
ENDBRANCH   3   4
ENDBRANCH   2   3
ENDBRANCH   1   2
BRANCH   1   8
ATOM      8  C   UNL     1       5.359   5.054  17.976  0.00  0.00    +0.000 C 
BRANCH   8   9
ATOM      9  C   UNL     1       4.581   6.059  17.134  0.00  0.00    +0.000 C 
BRANCH   9  10
ATOM     10  C   UNL     1       5.262   6.288  15.792  0.00  0.00    +0.000 C 
BRANCH  10  11
ATOM     11  C   UNL     1       6.167   5.119  15.433  0.00  0.00    +0.000 C 
BRANCH  11  12
ATOM     12  O   UNL     1       7.481   5.589  15.172  0.00  0.00    +0.000 OA
ATOM     13  H   UNL     1       7.666   6.302  15.806  0.00  0.00    +0.000 HD
ENDBRANCH  11  12
ENDBRANCH  10  11
ENDBRANCH   9  10
ENDBRANCH   8   9
ENDBRANCH   1   8
TORSDOF 10
ENDMDL
MODEL 9
REMARK VINA RESULT:      -4.3      1.496      1.872
REMARK  Name = 
REMARK  11 active torsions:
REMARK  status: ('A' for Active; 'I' for Inactive)
REMARK    1  A    between atoms: C_1  and  C_2
REMARK    2  A    between atoms: C_2  and  C_3
REMARK    3  A    between atoms: C_3  and  C_4
REMARK    4  A    between atoms: C_4  and  C_5
REMARK    5  A    between atoms: C_5  and  C_6
REMARK    6  A    between atoms: C_6  and  C_7
REMARK    7  A    between atoms: C_7  and  C_8
REMARK    8  A    between atoms: C_8  and  C_9
REMARK    9  A    between atoms: C_9  and  C_10
REMARK   10  A    between atoms: C_10  and  C_11
REMARK   11  A    between atoms: C_11  and  O_12
REMARK                            x       y       z     vdW  Elec       q    Type
REMARK                         _______ _______ _______ _____ _____    ______ ____
ROOT
ATOM      1  C   UNL     1       3.433   5.529  17.706  0.00  0.00    +0.000 C 
ENDROOT
BRANCH   1   2
ATOM      2  C   UNL     1       3.857   4.074  17.558  0.00  0.00    +0.000 C 
BRANCH   2   3
ATOM      3  C   UNL     1       2.640   3.178  17.366  0.00  0.00    +0.000 C 
BRANCH   3   4
ATOM      4  C   UNL     1       1.424   3.771  18.068  0.00  0.00    +0.000 C 
BRANCH   4   5
ATOM      5  C   UNL     1       0.986   2.878  19.220  0.00  0.00    +0.000 C 
BRANCH   5   7
ATOM      6  C   UNL     1       1.919   2.878  21.547  0.00  0.00    +0.000 C 
ATOM      7  C   UNL     1       1.051   3.625  20.548  0.00  0.00    +0.000 C 
ENDBRANCH   5   7
ENDBRANCH   4   5
ENDBRANCH   3   4
ENDBRANCH   2   3
ENDBRANCH   1   2
BRANCH   1   8
ATOM      8  C   UNL     1       4.596   6.461  17.394  0.00  0.00    +0.000 C 
BRANCH   8   9
ATOM      9  C   UNL     1       5.469   5.875  16.290  0.00  0.00    +0.000 C 
BRANCH   9  10
ATOM     10  C   UNL     1       6.939   5.897  16.687  0.00  0.00    +0.000 C 
BRANCH  10  11
ATOM     11  C   UNL     1       7.279   7.171  17.446  0.00  0.00    +0.000 C 
BRANCH  11  12
ATOM     12  O   UNL     1       8.046   6.855  18.598  0.00  0.00    +0.000 OA
ATOM     13  H   UNL     1       8.902   7.308  18.511  0.00  0.00    +0.000 HD
ENDBRANCH  11  12
ENDBRANCH  10  11
ENDBRANCH   9  10
ENDBRANCH   8   9
ENDBRANCH   1   8
TORSDOF 10
ENDMDL
