MODEL 1
REMARK VINA RESULT:      -9.2      0.000      0.000
REMARK  Name = 
REMARK  5 active torsions:
REMARK  status: ('A' for Active; 'I' for Inactive)
REMARK    1  A    between atoms: C_1  and  C_2
REMARK    2  A    between atoms: C_2  and  C_4
REMARK    3  A    between atoms: N_15  and  C_16
REMARK    4  A    between atoms: C_16  and  C_17
REMARK    5  A    between atoms: N_19  and  C_20
REMARK                            x       y       z     vdW  Elec       q    Type
REMARK                         _______ _______ _______ _____ _____    ______ ____
ROOT
ATOM      1  C   UNL     1      -0.909  11.204  18.601  0.00  0.00    +0.000 C 
ATOM      2  C   UNL     1      -1.562  12.225  19.520  0.00  0.00    +0.000 C 
ATOM      3  O   UNL     1      -0.543  12.638  20.434  0.00  0.00    +0.000 OA
ATOM      4  C   UNL     1       0.446  11.689  20.428  0.00  0.00    +0.000 C 
ATOM      5  O   UNL     1       1.385  11.717  21.205  0.00  0.00    +0.000 OA
ATOM      6  N   UNL     1       0.241  10.835  19.374  0.00  0.00    +0.000 N 
ATOM      7  C   UNL     1       1.105   9.784  19.069  0.00  0.00    +0.000 A 
ATOM      8  C   UNL     1       1.848   9.820  17.913  0.00  0.00    +0.000 A 
ATOM      9  C   UNL     1       2.696   8.756  17.731  0.00  0.00    +0.000 A 
ATOM     10  N   UNL     1       2.765   7.708  18.568  0.00  0.00    +0.000 NA
ATOM     11  C   UNL     1       1.973   7.740  19.650  0.00  0.00    +0.000 A 
ATOM     12  N   UNL     1       1.975   6.700  20.586  0.00  0.00    +0.000 N 
ATOM     13  N   UNL     1       1.156   8.764  19.938  0.00  0.00    +0.000 NA
ATOM     14  H   UNL     1       1.087   6.800  21.073  0.00  0.00    +0.000 HD
ENDROOT
BRANCH   1  16
ATOM     15  C   UNL     1      -1.924   9.718  16.782  0.00  0.00    +0.000 C 
ATOM     16  C   UNL     1      -1.862  10.046  18.266  0.00  0.00    +0.000 C 
ATOM     17  F   UNL     1      -3.126  10.388  18.648  0.00  0.00    +0.000 F 
ENDBRANCH   1  16
BRANCH  12  18
ATOM     18  C   UNL     1       2.306   5.327  20.186  0.00  0.00    +0.000 C 
ATOM     19  C   UNL     1       1.850   4.115  20.986  0.00  0.00    +0.000 C 
ATOM     20  C   UNL     1       1.123   4.468  19.738  0.00  0.00    +0.000 C 
BRANCH  18  21
ATOM     21  C   UNL     1       3.585   5.191  19.330  0.00  0.00    +0.000 A 
ATOM     22  C   UNL     1       3.636   4.993  17.968  0.00  0.00    +0.000 A 
ATOM     23  N   UNL     1       4.969   4.975  17.626  0.00  0.00    +0.000 N 
ATOM     24  C   UNL     1       5.650   5.184  18.809  0.00  0.00    +0.000 A 
ATOM     25  N   UNL     1       4.848   5.300  19.847  0.00  0.00    +0.000 NA
BRANCH  23  26
ATOM     26  C   UNL     1       5.516   4.781  16.324  0.00  0.00    +0.000 A 
ATOM     27  C   UNL     1       4.764   4.130  15.330  0.00  0.00    +0.000 A 
ATOM     28  C   UNL     1       5.297   3.929  14.052  0.00  0.00    +0.000 A 
ATOM     29  C   UNL     1       6.581   4.374  13.759  0.00  0.00    +0.000 A 
ATOM     30 CL   UNL     1       7.237   4.118  12.189  0.00  0.00    +0.000 Cl
ATOM     31  C   UNL     1       7.336   5.023  14.731  0.00  0.00    +0.000 A 
ATOM     32  C   UNL     1       6.809   5.230  16.012  0.00  0.00    +0.000 A 
ENDBRANCH  23  26
ENDBRANCH  18  21
ENDBRANCH  12  18
TORSDOF 4
ENDMDL
MODEL 2
REMARK VINA RESULT:      -8.1      4.661      7.891
REMARK  Name = 
REMARK  5 active torsions:
REMARK  status: ('A' for Active; 'I' for Inactive)
REMARK    1  A    between atoms: C_1  and  C_2
REMARK    2  A    between atoms: C_2  and  C_4
REMARK    3  A    between atoms: N_15  and  C_16
REMARK    4  A    between atoms: C_16  and  C_17
REMARK    5  A    between atoms: N_19  and  C_20
REMARK                            x       y       z     vdW  Elec       q    Type
REMARK                         _______ _______ _______ _____ _____    ______ ____
ROOT
ATOM      1  C   UNL     1       2.585  16.624  18.698  0.00  0.00    +0.000 C 
ATOM      2  C   UNL     1       2.584  17.245  17.310  0.00  0.00    +0.000 C 
ATOM      3  O   UNL     1       1.451  18.117  17.272  0.00  0.00    +0.000 OA
ATOM      4  C   UNL     1       0.592  17.746  18.272  0.00  0.00    +0.000 C 
ATOM      5  O   UNL     1      -0.516  18.237  18.400  0.00  0.00    +0.000 OA
ATOM      6  N   UNL     1       1.232  16.864  19.107  0.00  0.00    +0.000 N 
ATOM      7  C   UNL     1       0.637  16.334  20.252  0.00  0.00    +0.000 A 
ATOM      8  C   UNL     1       1.113  16.681  21.494  0.00  0.00    +0.000 A 
ATOM      9  C   UNL     1       0.429  16.136  22.554  0.00  0.00    +0.000 A 
ATOM     10  N   UNL     1      -0.588  15.270  22.416  0.00  0.00    +0.000 NA
ATOM     11  C   UNL     1      -0.958  14.959  21.165  0.00  0.00    +0.000 A 
ATOM     12  N   UNL     1      -2.010  14.072  20.914  0.00  0.00    +0.000 N 
ATOM     13  N   UNL     1      -0.386  15.486  20.072  0.00  0.00    +0.000 NA
ATOM     14  H   UNL     1      -1.851  13.757  19.959  0.00  0.00    +0.000 HD
ENDROOT
BRANCH   1  16
ATOM     15  C   UNL     1       4.327  14.899  17.966  0.00  0.00    +0.000 C 
ATOM     16  C   UNL     1       2.997  15.145  18.661  0.00  0.00    +0.000 C 
ATOM     17  F   UNL     1       2.055  14.440  17.972  0.00  0.00    +0.000 F 
ENDBRANCH   1  16
BRANCH  12  18
ATOM     18  C   UNL     1      -2.339  13.004  21.867  0.00  0.00    +0.000 C 
ATOM     19  C   UNL     1      -3.133  13.266  23.139  0.00  0.00    +0.000 C 
ATOM     20  C   UNL     1      -3.823  12.652  21.974  0.00  0.00    +0.000 C 
BRANCH  18  21
ATOM     21  C   UNL     1      -1.372  11.800  21.851  0.00  0.00    +0.000 A 
ATOM     22  C   UNL     1      -0.804  11.226  20.735  0.00  0.00    +0.000 A 
ATOM     23  N   UNL     1       0.015  10.218  21.189  0.00  0.00    +0.000 N 
ATOM     24  C   UNL     1      -0.092  10.255  22.565  0.00  0.00    +0.000 A 
ATOM     25  N   UNL     1      -0.928  11.180  22.988  0.00  0.00    +0.000 NA
BRANCH  23  26
ATOM     26  C   UNL     1       0.802   9.332  20.395  0.00  0.00    +0.000 A 
ATOM     27  C   UNL     1       1.064   9.633  19.047  0.00  0.00    +0.000 A 
ATOM     28  C   UNL     1       1.828   8.765  18.260  0.00  0.00    +0.000 A 
ATOM     29  C   UNL     1       2.332   7.592  18.811  0.00  0.00    +0.000 A 
ATOM     30 CL   UNL     1       3.265   6.522  17.839  0.00  0.00    +0.000 Cl
ATOM     31  C   UNL     1       2.084   7.282  20.145  0.00  0.00    +0.000 A 
ATOM     32  C   UNL     1       1.322   8.148  20.940  0.00  0.00    +0.000 A 
ENDBRANCH  23  26
ENDBRANCH  18  21
ENDBRANCH  12  18
TORSDOF 4
ENDMDL
MODEL 3
REMARK VINA RESULT:      -8.0      4.773      7.990
REMARK  Name = 
REMARK  5 active torsions:
REMARK  status: ('A' for Active; 'I' for Inactive)
REMARK    1  A    between atoms: C_1  and  C_2
REMARK    2  A    between atoms: C_2  and  C_4
REMARK    3  A    between atoms: N_15  and  C_16
REMARK    4  A    between atoms: C_16  and  C_17
REMARK    5  A    between atoms: N_19  and  C_20
REMARK                            x       y       z     vdW  Elec       q    Type
REMARK                         _______ _______ _______ _____ _____    ______ ____
ROOT
ATOM      1  C   UNL     1       2.837  16.548  18.366  0.00  0.00    +0.000 C 
ATOM      2  C   UNL     1       2.919  17.209  16.998  0.00  0.00    +0.000 C 
ATOM      3  O   UNL     1       1.858  18.167  16.962  0.00  0.00    +0.000 OA
ATOM      4  C   UNL     1       0.948  17.833  17.930  0.00  0.00    +0.000 C 
ATOM      5  O   UNL     1      -0.122  18.405  18.048  0.00  0.00    +0.000 OA
ATOM      6  N   UNL     1       1.497  16.880  18.751  0.00  0.00    +0.000 N 
ATOM      7  C   UNL     1       0.834  16.364  19.865  0.00  0.00    +0.000 A 
ATOM      8  C   UNL     1       1.303  16.635  21.128  0.00  0.00    +0.000 A 
ATOM      9  C   UNL     1       0.553  16.114  22.153  0.00  0.00    +0.000 A 
ATOM     10  N   UNL     1      -0.524  15.334  21.964  0.00  0.00    +0.000 NA
ATOM     11  C   UNL     1      -0.884  15.090  20.696  0.00  0.00    +0.000 A 
ATOM     12  N   UNL     1      -1.994  14.294  20.393  0.00  0.00    +0.000 N 
ATOM     13  N   UNL     1      -0.245  15.603  19.634  0.00  0.00    +0.000 NA
ATOM     14  H   UNL     1      -1.836  13.997  19.433  0.00  0.00    +0.000 HD
ENDROOT
BRANCH   1  16
ATOM     15  C   UNL     1       3.758  14.481  19.560  0.00  0.00    +0.000 C 
ATOM     16  C   UNL     1       3.136  15.043  18.291  0.00  0.00    +0.000 C 
ATOM     17  F   UNL     1       4.025  14.818  17.282  0.00  0.00    +0.000 F 
ENDBRANCH   1  16
BRANCH  12  18
ATOM     18  C   UNL     1      -2.428  13.228  21.304  0.00  0.00    +0.000 C 
ATOM     19  C   UNL     1      -3.348  13.493  22.487  0.00  0.00    +0.000 C 
ATOM     20  C   UNL     1      -3.919  12.887  21.255  0.00  0.00    +0.000 C 
BRANCH  18  21
ATOM     21  C   UNL     1      -1.474  12.015  21.385  0.00  0.00    +0.000 A 
ATOM     22  C   UNL     1      -0.871  11.382  20.321  0.00  0.00    +0.000 A 
ATOM     23  N   UNL     1      -0.080  10.390  20.856  0.00  0.00    +0.000 N 
ATOM     24  C   UNL     1      -0.238  10.498  22.223  0.00  0.00    +0.000 A 
ATOM     25  N   UNL     1      -1.079  11.450  22.567  0.00  0.00    +0.000 NA
BRANCH  23  26
ATOM     26  C   UNL     1       0.727   9.459  20.138  0.00  0.00    +0.000 A 
ATOM     27  C   UNL     1       1.225   8.312  20.779  0.00  0.00    +0.000 A 
ATOM     28  C   UNL     1       2.024   7.398  20.084  0.00  0.00    +0.000 A 
ATOM     29  C   UNL     1       2.332   7.624  18.747  0.00  0.00    +0.000 A 
ATOM     30 CL   UNL     1       3.321   6.502  17.896  0.00  0.00    +0.000 Cl
ATOM     31  C   UNL     1       1.843   8.753  18.097  0.00  0.00    +0.000 A 
ATOM     32  C   UNL     1       1.041   9.671  18.787  0.00  0.00    +0.000 A 
ENDBRANCH  23  26
ENDBRANCH  18  21
ENDBRANCH  12  18
TORSDOF 4
ENDMDL
MODEL 4
REMARK VINA RESULT:      -8.0      6.469     10.537
REMARK  Name = 
REMARK  5 active torsions:
REMARK  status: ('A' for Active; 'I' for Inactive)
REMARK    1  A    between atoms: C_1  and  C_2
REMARK    2  A    between atoms: C_2  and  C_4
REMARK    3  A    between atoms: N_15  and  C_16
REMARK    4  A    between atoms: C_16  and  C_17
REMARK    5  A    between atoms: N_19  and  C_20
REMARK                            x       y       z     vdW  Elec       q    Type
REMARK                         _______ _______ _______ _____ _____    ______ ____
ROOT
ATOM      1  C   UNL     1       0.300  10.471  22.222  0.00  0.00    +0.000 C 
ATOM      2  C   UNL     1       0.856   9.272  22.976  0.00  0.00    +0.000 C 
ATOM      3  O   UNL     1       1.659   8.555  22.034  0.00  0.00    +0.000 OA
ATOM      4  C   UNL     1       1.284   8.940  20.773  0.00  0.00    +0.000 C 
ATOM      5  O   UNL     1       1.716   8.402  19.769  0.00  0.00    +0.000 OA
ATOM      6  N   UNL     1       0.480  10.049  20.864  0.00  0.00    +0.000 N 
ATOM      7  C   UNL     1      -0.030  10.710  19.747  0.00  0.00    +0.000 A 
ATOM      8  C   UNL     1       0.400  11.981  19.447  0.00  0.00    +0.000 A 
ATOM      9  C   UNL     1      -0.134  12.523  18.304  0.00  0.00    +0.000 A 
ATOM     10  N   UNL     1      -1.063  11.909  17.553  0.00  0.00    +0.000 NA
ATOM     11  C   UNL     1      -1.452  10.687  17.945  0.00  0.00    +0.000 A 
ATOM     12  N   UNL     1      -2.409   9.961  17.229  0.00  0.00    +0.000 N 
ATOM     13  N   UNL     1      -0.943  10.057  19.015  0.00  0.00    +0.000 NA
ATOM     14  H   UNL     1      -2.758   9.277  17.896  0.00  0.00    +0.000 HD
ENDROOT
BRANCH   1  16
ATOM     15  C   UNL     1      -1.390  12.220  23.017  0.00  0.00    +0.000 C 
ATOM     16  C   UNL     1      -1.153  10.771  22.619  0.00  0.00    +0.000 C 
ATOM     17  F   UNL     1      -1.484  10.006  23.699  0.00  0.00    +0.000 F 
ENDBRANCH   1  16
BRANCH  12  18
ATOM     18  C   UNL     1      -3.448  10.647  16.451  0.00  0.00    +0.000 C 
ATOM     19  C   UNL     1      -3.227  11.094  15.014  0.00  0.00    +0.000 C 
ATOM     20  C   UNL     1      -4.014   9.859  15.269  0.00  0.00    +0.000 C 
BRANCH  18  21
ATOM     21  C   UNL     1      -4.491  11.412  17.297  0.00  0.00    +0.000 A 
ATOM     22  C   UNL     1      -4.563  11.439  18.671  0.00  0.00    +0.000 A 
ATOM     23  N   UNL     1      -5.612  12.272  18.991  0.00  0.00    +0.000 N 
ATOM     24  C   UNL     1      -6.102  12.718  17.780  0.00  0.00    +0.000 A 
ATOM     25  N   UNL     1      -5.462  12.206  16.749  0.00  0.00    +0.000 NA
BRANCH  23  26
ATOM     26  C   UNL     1      -6.079  12.597  20.298  0.00  0.00    +0.000 A 
ATOM     27  C   UNL     1      -7.451  12.792  20.531  0.00  0.00    +0.000 A 
ATOM     28  C   UNL     1      -7.916  13.119  21.810  0.00  0.00    +0.000 A 
ATOM     29  C   UNL     1      -7.017  13.255  22.860  0.00  0.00    +0.000 A 
ATOM     30 CL   UNL     1      -7.590  13.666  24.429  0.00  0.00    +0.000 Cl
ATOM     31  C   UNL     1      -5.655  13.061  22.646  0.00  0.00    +0.000 A 
ATOM     32  C   UNL     1      -5.183  12.732  21.370  0.00  0.00    +0.000 A 
ENDBRANCH  23  26
ENDBRANCH  18  21
ENDBRANCH  12  18
TORSDOF 4
ENDMDL
MODEL 5
REMARK VINA RESULT:      -8.0      3.902      5.869
REMARK  Name = 
REMARK  5 active torsions:
REMARK  status: ('A' for Active; 'I' for Inactive)
REMARK    1  A    between atoms: C_1  and  C_2
REMARK    2  A    between atoms: C_2  and  C_4
REMARK    3  A    between atoms: N_15  and  C_16
REMARK    4  A    between atoms: C_16  and  C_17
REMARK    5  A    between atoms: N_19  and  C_20
REMARK                            x       y       z     vdW  Elec       q    Type
REMARK                         _______ _______ _______ _____ _____    ______ ____
ROOT
ATOM      1  C   UNL     1       3.580  16.361  20.524  0.00  0.00    +0.000 C 
ATOM      2  C   UNL     1       4.794  17.035  19.904  0.00  0.00    +0.000 C 
ATOM      3  O   UNL     1       4.469  17.238  18.526  0.00  0.00    +0.000 OA
ATOM      4  C   UNL     1       3.437  16.396  18.202  0.00  0.00    +0.000 C 
ATOM      5  O   UNL     1       3.033  16.265  17.060  0.00  0.00    +0.000 OA
ATOM      6  N   UNL     1       2.915  15.865  19.355  0.00  0.00    +0.000 N 
ATOM      7  C   UNL     1       1.819  15.001  19.364  0.00  0.00    +0.000 A 
ATOM      8  C   UNL     1       0.628  15.413  19.912  0.00  0.00    +0.000 A 
ATOM      9  C   UNL     1      -0.397  14.501  19.832  0.00  0.00    +0.000 A 
ATOM     10  N   UNL     1      -0.255  13.266  19.324  0.00  0.00    +0.000 NA
ATOM     11  C   UNL     1       0.956  12.938  18.849  0.00  0.00    +0.000 A 
ATOM     12  N   UNL     1       1.205  11.679  18.294  0.00  0.00    +0.000 N 
ATOM     13  N   UNL     1       1.997  13.783  18.834  0.00  0.00    +0.000 NA
ATOM     14  H   UNL     1       2.217  11.578  18.344  0.00  0.00    +0.000 HD
ENDROOT
BRANCH   1  16
ATOM     15  C   UNL     1       4.885  15.806  22.654  0.00  0.00    +0.000 C 
ATOM     16  C   UNL     1       3.982  15.286  21.545  0.00  0.00    +0.000 C 
ATOM     17  F   UNL     1       4.673  14.302  20.902  0.00  0.00    +0.000 F 
ENDBRANCH   1  16
BRANCH  12  18
ATOM     18  C   UNL     1       0.448  10.499  18.731  0.00  0.00    +0.000 C 
ATOM     19  C   UNL     1      -0.819  10.610  19.567  0.00  0.00    +0.000 C 
ATOM     20  C   UNL     1      -0.941  10.342  18.109  0.00  0.00    +0.000 C 
BRANCH  18  21
ATOM     21  C   UNL     1       1.276   9.199  18.839  0.00  0.00    +0.000 A 
ATOM     22  C   UNL     1       1.990   8.602  17.824  0.00  0.00    +0.000 A 
ATOM     23  N   UNL     1       2.602   7.499  18.375  0.00  0.00    +0.000 N 
ATOM     24  C   UNL     1       2.235   7.507  19.705  0.00  0.00    +0.000 A 
ATOM     25  N   UNL     1       1.428   8.503  20.007  0.00  0.00    +0.000 NA
BRANCH  23  26
ATOM     26  C   UNL     1       3.437   6.559  17.702  0.00  0.00    +0.000 A 
ATOM     27  C   UNL     1       3.164   5.183  17.787  0.00  0.00    +0.000 A 
ATOM     28  C   UNL     1       3.983   4.253  17.137  0.00  0.00    +0.000 A 
ATOM     29  C   UNL     1       5.079   4.691  16.401  0.00  0.00    +0.000 A 
ATOM     30 CL   UNL     1       6.089   3.546  15.609  0.00  0.00    +0.000 Cl
ATOM     31  C   UNL     1       5.360   6.051  16.305  0.00  0.00    +0.000 A 
ATOM     32  C   UNL     1       4.543   6.986  16.951  0.00  0.00    +0.000 A 
ENDBRANCH  23  26
ENDBRANCH  18  21
ENDBRANCH  12  18
TORSDOF 4
ENDMDL
MODEL 6
REMARK VINA RESULT:      -8.0      2.311      3.978
REMARK  Name = 
REMARK  5 active torsions:
REMARK  status: ('A' for Active; 'I' for Inactive)
REMARK    1  A    between atoms: C_1  and  C_2
REMARK    2  A    between atoms: C_2  and  C_4
REMARK    3  A    between atoms: N_15  and  C_16
REMARK    4  A    between atoms: C_16  and  C_17
REMARK    5  A    between atoms: N_19  and  C_20
REMARK                            x       y       z     vdW  Elec       q    Type
REMARK                         _______ _______ _______ _____ _____    ______ ____
ROOT
ATOM      1  C   UNL     1      -3.194  11.450  16.491  0.00  0.00    +0.000 C 
ATOM      2  C   UNL     1      -4.694  11.264  16.329  0.00  0.00    +0.000 C 
ATOM      3  O   UNL     1      -5.282  11.744  17.541  0.00  0.00    +0.000 OA
ATOM      4  C   UNL     1      -4.310  11.768  18.507  0.00  0.00    +0.000 C 
ATOM      5  O   UNL     1      -4.553  12.019  19.674  0.00  0.00    +0.000 OA
ATOM      6  N   UNL     1      -3.086  11.584  17.915  0.00  0.00    +0.000 N 
ATOM      7  C   UNL     1      -1.887  11.602  18.628  0.00  0.00    +0.000 A 
ATOM      8  C   UNL     1      -0.986  12.620  18.426  0.00  0.00    +0.000 A 
ATOM      9  C   UNL     1       0.142  12.564  19.209  0.00  0.00    +0.000 A 
ATOM     10  N   UNL     1       0.403  11.563  20.065  0.00  0.00    +0.000 NA
ATOM     11  C   UNL     1      -0.516  10.591  20.166  0.00  0.00    +0.000 A 
ATOM     12  N   UNL     1      -0.340   9.508  21.033  0.00  0.00    +0.000 N 
ATOM     13  N   UNL     1      -1.670  10.593  19.483  0.00  0.00    +0.000 NA
ATOM     14  H   UNL     1      -0.965   8.791  20.669  0.00  0.00    +0.000 HD
ENDROOT
BRANCH   1  16
ATOM     15  C   UNL     1      -2.850   9.898  14.486  0.00  0.00    +0.000 C 
ATOM     16  C   UNL     1      -2.405  10.277  15.890  0.00  0.00    +0.000 C 
ATOM     17  F   UNL     1      -2.585   9.175  16.673  0.00  0.00    +0.000 F 
ENDBRANCH   1  16
BRANCH  12  18
ATOM     18  C   UNL     1       1.004   9.033  21.383  0.00  0.00    +0.000 C 
ATOM     19  C   UNL     1       2.072   9.958  21.947  0.00  0.00    +0.000 C 
ATOM     20  C   UNL     1       1.342   9.053  22.874  0.00  0.00    +0.000 C 
BRANCH  18  21
ATOM     21  C   UNL     1       1.466   7.773  20.616  0.00  0.00    +0.000 A 
ATOM     22  C   UNL     1       2.342   7.742  19.554  0.00  0.00    +0.000 A 
ATOM     23  N   UNL     1       2.497   6.417  19.215  0.00  0.00    +0.000 N 
ATOM     24  C   UNL     1       1.713   5.719  20.112  0.00  0.00    +0.000 A 
ATOM     25  N   UNL     1       1.072   6.506  20.951  0.00  0.00    +0.000 NA
BRANCH  23  26
ATOM     26  C   UNL     1       3.300   5.893  18.159  0.00  0.00    +0.000 A 
ATOM     27  C   UNL     1       3.240   4.526  17.837  0.00  0.00    +0.000 A 
ATOM     28  C   UNL     1       4.031   4.002  16.809  0.00  0.00    +0.000 A 
ATOM     29  C   UNL     1       4.886   4.836  16.099  0.00  0.00    +0.000 A 
ATOM     30 CL   UNL     1       5.863   4.188  14.840  0.00  0.00    +0.000 Cl
ATOM     31  C   UNL     1       4.953   6.193  16.403  0.00  0.00    +0.000 A 
ATOM     32  C   UNL     1       4.163   6.724  17.430  0.00  0.00    +0.000 A 
ENDBRANCH  23  26
ENDBRANCH  18  21
ENDBRANCH  12  18
TORSDOF 4
ENDMDL
MODEL 7
REMARK VINA RESULT:      -8.0      4.736      7.825
REMARK  Name = 
REMARK  5 active torsions:
REMARK  status: ('A' for Active; 'I' for Inactive)
REMARK    1  A    between atoms: C_1  and  C_2
REMARK    2  A    between atoms: C_2  and  C_4
REMARK    3  A    between atoms: N_15  and  C_16
REMARK    4  A    between atoms: C_16  and  C_17
REMARK    5  A    between atoms: N_19  and  C_20
REMARK                            x       y       z     vdW  Elec       q    Type
REMARK                         _______ _______ _______ _____ _____    ______ ____
ROOT
ATOM      1  C   UNL     1       3.442  16.014  18.546  0.00  0.00    +0.000 C 
ATOM      2  C   UNL     1       3.358  16.584  17.139  0.00  0.00    +0.000 C 
ATOM      3  O   UNL     1       2.372  17.618  17.193  0.00  0.00    +0.000 OA
ATOM      4  C   UNL     1       1.600  17.415  18.307  0.00  0.00    +0.000 C 
ATOM      5  O   UNL     1       0.603  18.074  18.542  0.00  0.00    +0.000 OA
ATOM      6  N   UNL     1       2.202  16.472  19.102  0.00  0.00    +0.000 N 
ATOM      7  C   UNL     1       1.684  16.076  20.336  0.00  0.00    +0.000 A 
ATOM      8  C   UNL     1       2.360  16.384  21.493  0.00  0.00    +0.000 A 
ATOM      9  C   UNL     1       1.742  15.984  22.652  0.00  0.00    +0.000 A 
ATOM     10  N   UNL     1       0.598  15.281  22.681  0.00  0.00    +0.000 NA
ATOM     11  C   UNL     1       0.031  14.992  21.501  0.00  0.00    +0.000 A 
ATOM     12  N   UNL     1      -1.164  14.269  21.423  0.00  0.00    +0.000 N 
ATOM     13  N   UNL     1       0.533  15.390  20.323  0.00  0.00    +0.000 NA
ATOM     14  H   UNL     1      -1.176  13.904  20.473  0.00  0.00    +0.000 HD
ENDROOT
BRANCH   1  16
ATOM     15  C   UNL     1       2.403  13.734  18.025  0.00  0.00    +0.000 C 
ATOM     16  C   UNL     1       3.621  14.488  18.535  0.00  0.00    +0.000 C 
ATOM     17  F   UNL     1       3.847  14.059  19.810  0.00  0.00    +0.000 F 
ENDBRANCH   1  16
BRANCH  12  18
ATOM     18  C   UNL     1      -1.526  13.296  22.461  0.00  0.00    +0.000 C 
ATOM     19  C   UNL     1      -1.945  13.718  23.862  0.00  0.00    +0.000 C 
ATOM     20  C   UNL     1      -2.993  13.306  22.891  0.00  0.00    +0.000 C 
BRANCH  18  21
ATOM     21  C   UNL     1      -0.897  11.895  22.284  0.00  0.00    +0.000 A 
ATOM     22  C   UNL     1      -0.237  11.435  21.166  0.00  0.00    +0.000 A 
ATOM     23  N   UNL     1       0.188  10.160  21.463  0.00  0.00    +0.000 N 
ATOM     24  C   UNL     1      -0.227   9.931  22.759  0.00  0.00    +0.000 A 
ATOM     25  N   UNL     1      -0.893  10.946  23.269  0.00  0.00    +0.000 NA
BRANCH  23  26
ATOM     26  C   UNL     1       0.905   9.276  20.603  0.00  0.00    +0.000 A 
ATOM     27  C   UNL     1       1.191   9.652  19.280  0.00  0.00    +0.000 A 
ATOM     28  C   UNL     1       1.887   8.787  18.428  0.00  0.00    +0.000 A 
ATOM     29  C   UNL     1       2.298   7.542  18.891  0.00  0.00    +0.000 A 
ATOM     30 CL   UNL     1       3.146   6.477  17.840  0.00  0.00    +0.000 Cl
ATOM     31  C   UNL     1       2.026   7.157  20.200  0.00  0.00    +0.000 A 
ATOM     32  C   UNL     1       1.332   8.019  21.059  0.00  0.00    +0.000 A 
ENDBRANCH  23  26
ENDBRANCH  18  21
ENDBRANCH  12  18
TORSDOF 4
ENDMDL
MODEL 8
REMARK VINA RESULT:      -8.0      7.015     10.260
REMARK  Name = 
REMARK  5 active torsions:
REMARK  status: ('A' for Active; 'I' for Inactive)
REMARK    1  A    between atoms: C_1  and  C_2
REMARK    2  A    between atoms: C_2  and  C_4
REMARK    3  A    between atoms: N_15  and  C_16
REMARK    4  A    between atoms: C_16  and  C_17
REMARK    5  A    between atoms: N_19  and  C_20
REMARK                            x       y       z     vdW  Elec       q    Type
REMARK                         _______ _______ _______ _____ _____    ______ ____
ROOT
ATOM      1  C   UNL     1      10.110  11.449  19.691  0.00  0.00    +0.000 C 
ATOM      2  C   UNL     1      11.360  11.843  18.919  0.00  0.00    +0.000 C 
ATOM      3  O   UNL     1      11.914  12.962  19.616  0.00  0.00    +0.000 OA
ATOM      4  C   UNL     1      10.931  13.507  20.399  0.00  0.00    +0.000 C 
ATOM      5  O   UNL     1      11.084  14.549  21.012  0.00  0.00    +0.000 OA
ATOM      6  N   UNL     1       9.865  12.644  20.444  0.00  0.00    +0.000 N 
ATOM      7  C   UNL     1       8.718  12.892  21.199  0.00  0.00    +0.000 A 
ATOM      8  C   UNL     1       8.431  12.104  22.288  0.00  0.00    +0.000 A 
ATOM      9  C   UNL     1       7.303  12.460  22.985  0.00  0.00    +0.000 A 
ATOM     10  N   UNL     1       6.483  13.457  22.613  0.00  0.00    +0.000 NA
ATOM     11  C   UNL     1       6.822  14.146  21.514  0.00  0.00    +0.000 A 
ATOM     12  N   UNL     1       6.038  15.206  21.047  0.00  0.00    +0.000 N 
ATOM     13  N   UNL     1       7.934  13.906  20.804  0.00  0.00    +0.000 NA
ATOM     14  H   UNL     1       6.307  15.307  20.070  0.00  0.00    +0.000 HD
ENDROOT
BRANCH   1  16
ATOM     15  C   UNL     1       8.837   9.523  18.588  0.00  0.00    +0.000 C 
ATOM     16  C   UNL     1       8.968  11.029  18.754  0.00  0.00    +0.000 C 
ATOM     17  F   UNL     1       9.202  11.544  17.513  0.00  0.00    +0.000 F 
ENDBRANCH   1  16
BRANCH  12  18
ATOM     18  C   UNL     1       4.591  15.239  21.292  0.00  0.00    +0.000 C 
ATOM     19  C   UNL     1       4.006  15.351  22.693  0.00  0.00    +0.000 C 
ATOM     20  C   UNL     1       4.044  16.562  21.831  0.00  0.00    +0.000 C 
BRANCH  18  21
ATOM     21  C   UNL     1       3.732  14.564  20.199  0.00  0.00    +0.000 A 
ATOM     22  C   UNL     1       2.644  13.746  20.409  0.00  0.00    +0.000 A 
ATOM     23  N   UNL     1       2.166  13.407  19.163  0.00  0.00    +0.000 N 
ATOM     24  C   UNL     1       2.988  14.062  18.269  0.00  0.00    +0.000 A 
ATOM     25  N   UNL     1       3.945  14.747  18.860  0.00  0.00    +0.000 NA
BRANCH  23  26
ATOM     26  C   UNL     1       1.055  12.561  18.874  0.00  0.00    +0.000 A 
ATOM     27  C   UNL     1       1.174  11.167  19.007  0.00  0.00    +0.000 A 
ATOM     28  C   UNL     1       0.092  10.329  18.717  0.00  0.00    +0.000 A 
ATOM     29  C   UNL     1      -1.114  10.877  18.292  0.00  0.00    +0.000 A 
ATOM     30 CL   UNL     1      -2.441   9.844  17.929  0.00  0.00    +0.000 Cl
ATOM     31  C   UNL     1      -1.248  12.256  18.160  0.00  0.00    +0.000 A 
ATOM     32  C   UNL     1      -0.169  13.100  18.451  0.00  0.00    +0.000 A 
ENDBRANCH  23  26
ENDBRANCH  18  21
ENDBRANCH  12  18
TORSDOF 4
ENDMDL
MODEL 9
REMARK VINA RESULT:      -8.0      3.631      6.447
REMARK  Name = 
REMARK  5 active torsions:
REMARK  status: ('A' for Active; 'I' for Inactive)
REMARK    1  A    between atoms: C_1  and  C_2
REMARK    2  A    between atoms: C_2  and  C_4
REMARK    3  A    between atoms: N_15  and  C_16
REMARK    4  A    between atoms: C_16  and  C_17
REMARK    5  A    between atoms: N_19  and  C_20
REMARK                            x       y       z     vdW  Elec       q    Type
REMARK                         _______ _______ _______ _____ _____    ______ ____
ROOT
ATOM      1  C   UNL     1       2.439  16.316  20.112  0.00  0.00    +0.000 C 
ATOM      2  C   UNL     1       3.121  17.412  19.309  0.00  0.00    +0.000 C 
ATOM      3  O   UNL     1       2.081  18.067  18.578  0.00  0.00    +0.000 OA
ATOM      4  C   UNL     1       1.000  17.226  18.528  0.00  0.00    +0.000 C 
ATOM      5  O   UNL     1       0.009  17.473  17.863  0.00  0.00    +0.000 OA
ATOM      6  N   UNL     1       1.197  16.191  19.407  0.00  0.00    +0.000 N 
ATOM      7  C   UNL     1       0.252  15.188  19.624  0.00  0.00    +0.000 A 
ATOM      8  C   UNL     1      -0.385  15.098  20.838  0.00  0.00    +0.000 A 
ATOM      9  C   UNL     1      -1.326  14.101  20.930  0.00  0.00    +0.000 A 
ATOM     10  N   UNL     1      -1.576  13.221  19.946  0.00  0.00    +0.000 NA
ATOM     11  C   UNL     1      -0.876  13.362  18.811  0.00  0.00    +0.000 A 
ATOM     12  N   UNL     1      -1.065  12.500  17.726  0.00  0.00    +0.000 N 
ATOM     13  N   UNL     1       0.021  14.339  18.612  0.00  0.00    +0.000 NA
ATOM     14  H   UNL     1      -0.215  12.598  17.175  0.00  0.00    +0.000 HD
ENDROOT
BRANCH   1  16
ATOM     15  C   UNL     1       3.578  14.442  18.794  0.00  0.00    +0.000 C 
ATOM     16  C   UNL     1       3.286  15.035  20.163  0.00  0.00    +0.000 C 
ATOM     17  F   UNL     1       2.608  14.084  20.869  0.00  0.00    +0.000 F 
ENDBRANCH   1  16
BRANCH  12  18
ATOM     18  C   UNL     1      -1.509  11.116  17.930  0.00  0.00    +0.000 C 
ATOM     19  C   UNL     1      -2.979  10.745  18.070  0.00  0.00    +0.000 C 
ATOM     20  C   UNL     1      -2.295  10.498  16.773  0.00  0.00    +0.000 C 
BRANCH  18  21
ATOM     21  C   UNL     1      -0.462  10.190  18.589  0.00  0.00    +0.000 A 
ATOM     22  C   UNL     1       0.437   9.380  17.932  0.00  0.00    +0.000 A 
ATOM     23  N   UNL     1       1.197   8.771  18.905  0.00  0.00    +0.000 N 
ATOM     24  C   UNL     1       0.720   9.268  20.101  0.00  0.00    +0.000 A 
ATOM     25  N   UNL     1      -0.283  10.106  19.944  0.00  0.00    +0.000 NA
BRANCH  23  26
ATOM     26  C   UNL     1       2.249   7.830  18.704  0.00  0.00    +0.000 A 
ATOM     27  C   UNL     1       2.424   6.762  19.601  0.00  0.00    +0.000 A 
ATOM     28  C   UNL     1       3.460   5.840  19.415  0.00  0.00    +0.000 A 
ATOM     29  C   UNL     1       4.327   5.979  18.337  0.00  0.00    +0.000 A 
ATOM     30 CL   UNL     1       5.604   4.848  18.116  0.00  0.00    +0.000 Cl
ATOM     31  C   UNL     1       4.164   7.029  17.439  0.00  0.00    +0.000 A 
ATOM     32  C   UNL     1       3.129   7.955  17.617  0.00  0.00    +0.000 A 
ENDBRANCH  23  26
ENDBRANCH  18  21
ENDBRANCH  12  18
TORSDOF 4
ENDMDL
