MODEL 1
REMARK VINA RESULT:      -8.1      0.000      0.000
REMARK  Name = 
REMARK  4 active torsions:
REMARK  status: ('A' for Active; 'I' for Inactive)
REMARK    1  A    between atoms: C_1  and  C_2
REMARK    2  A    between atoms: C_2  and  C_3
REMARK    3  A    between atoms: N_13  and  C_14
REMARK    4  A    between atoms: C_14  and  N_15
REMARK                            x       y       z     vdW  Elec       q    Type
REMARK                         _______ _______ _______ _____ _____    ______ ____
ROOT
ATOM      1  C   UNL     1       1.113   4.547  20.517  0.00  0.00    +0.000 C 
ATOM      2  C   UNL     1       2.226   5.110  19.646  0.00  0.00    +0.000 C 
ATOM      3  N   UNL     1       3.540   4.809  20.168  0.00  0.00    +0.000 N 
ATOM      4  C   UNL     1       4.419   4.438  19.174  0.00  0.00    +0.000 C 
ATOM      5  O   UNL     1       5.602   4.244  19.386  0.00  0.00    +0.000 OA
ATOM      6  N   UNL     1       3.729   4.284  18.014  0.00  0.00    +0.000 N 
ATOM      7  C   UNL     1       2.393   4.359  18.297  0.00  0.00    +0.000 C 
ATOM      8  O   UNL     1       1.475   3.961  17.588  0.00  0.00    +0.000 OA
ATOM      9  H   UNL     1       3.892   5.066  21.079  0.00  0.00    +0.000 HD
ENDROOT
BRANCH   2  10
ATOM     10  C   UNL     1       2.072   6.616  19.427  0.00  0.00    +0.000 A 
ATOM     11  C   UNL     1       2.317   7.197  18.168  0.00  0.00    +0.000 A 
ATOM     12  C   UNL     1       2.063   8.551  17.942  0.00  0.00    +0.000 A 
ATOM     13  C   UNL     1       1.578   9.347  18.975  0.00  0.00    +0.000 A 
ATOM     14 CL   UNL     1       1.218  11.003  18.684  0.00  0.00    +0.000 Cl
ATOM     15  C   UNL     1       1.381   8.808  20.241  0.00  0.00    +0.000 A 
ATOM     16  C   UNL     1       1.645   7.460  20.471  0.00  0.00    +0.000 A 
ENDBRANCH   2  10
BRANCH   6  17
ATOM     17  C   UNL     1       4.281   3.670  16.834  0.00  0.00    +0.000 C 
BRANCH  17  18
ATOM     18  N   UNL     1       5.127   4.542  16.037  0.00  0.00    +0.000 NA
ATOM     19  C   UNL     1       6.493   4.115  15.742  0.00  0.00    +0.000 C 
ATOM     20  C   UNL     1       7.557   4.838  16.581  0.00  0.00    +0.000 C 
ATOM     21  O   UNL     1       7.429   6.258  16.444  0.00  0.00    +0.000 OA
ATOM     22  C   UNL     1       6.149   6.688  16.917  0.00  0.00    +0.000 C 
ATOM     23  C   UNL     1       4.989   5.989  16.186  0.00  0.00    +0.000 C 
ENDBRANCH  17  18
ENDBRANCH   6  17
TORSDOF 3
ENDMDL
MODEL 2
REMARK VINA RESULT:      -7.7      0.191      1.046
REMARK  Name = 
REMARK  4 active torsions:
REMARK  status: ('A' for Active; 'I' for Inactive)
REMARK    1  A    between atoms: C_1  and  C_2
REMARK    2  A    between atoms: C_2  and  C_3
REMARK    3  A    between atoms: N_13  and  C_14
REMARK    4  A    between atoms: C_14  and  N_15
REMARK                            x       y       z     vdW  Elec       q    Type
REMARK                         _______ _______ _______ _____ _____    ______ ____
ROOT
ATOM      1  C   UNL     1       1.107   4.304  20.475  0.00  0.00    +0.000 C 
ATOM      2  C   UNL     1       2.194   4.920  19.607  0.00  0.00    +0.000 C 
ATOM      3  N   UNL     1       3.518   4.701  20.144  0.00  0.00    +0.000 N 
ATOM      4  C   UNL     1       4.426   4.370  19.161  0.00  0.00    +0.000 C 
ATOM      5  O   UNL     1       5.616   4.246  19.387  0.00  0.00    +0.000 OA
ATOM      6  N   UNL     1       3.756   4.163  17.998  0.00  0.00    +0.000 N 
ATOM      7  C   UNL     1       2.416   4.164  18.269  0.00  0.00    +0.000 C 
ATOM      8  O   UNL     1       1.528   3.707  17.557  0.00  0.00    +0.000 OA
ATOM      9  H   UNL     1       3.846   4.989  21.055  0.00  0.00    +0.000 HD
ENDROOT
BRANCH   2  10
ATOM     10  C   UNL     1       1.956   6.413  19.369  0.00  0.00    +0.000 A 
ATOM     11  C   UNL     1       1.567   7.264  20.420  0.00  0.00    +0.000 A 
ATOM     12  C   UNL     1       1.465   8.643  20.226  0.00  0.00    +0.000 A 
ATOM     13  C   UNL     1       1.732   9.187  18.974  0.00  0.00    +0.000 A 
ATOM     14 CL   UNL     1       1.654  10.890  18.746  0.00  0.00    +0.000 Cl
ATOM     15  C   UNL     1       2.064   8.361  17.907  0.00  0.00    +0.000 A 
ATOM     16  C   UNL     1       2.155   6.984  18.096  0.00  0.00    +0.000 A 
ENDBRANCH   2  10
BRANCH   6  17
ATOM     17  C   UNL     1       4.353   3.568  16.830  0.00  0.00    +0.000 C 
BRANCH  17  18
ATOM     18  N   UNL     1       5.140   4.483  16.020  0.00  0.00    +0.000 NA
ATOM     19  C   UNL     1       6.505   4.106  15.663  0.00  0.00    +0.000 C 
ATOM     20  C   UNL     1       7.579   4.845  16.474  0.00  0.00    +0.000 C 
ATOM     21  O   UNL     1       7.401   6.263  16.373  0.00  0.00    +0.000 OA
ATOM     22  C   UNL     1       6.128   6.642  16.904  0.00  0.00    +0.000 C 
ATOM     23  C   UNL     1       4.962   5.921  16.205  0.00  0.00    +0.000 C 
ENDBRANCH  17  18
ENDBRANCH   6  17
TORSDOF 3
ENDMDL
MODEL 3
REMARK VINA RESULT:      -7.5      3.237      6.085
REMARK  Name = 
REMARK  4 active torsions:
REMARK  status: ('A' for Active; 'I' for Inactive)
REMARK    1  A    between atoms: C_1  and  C_2
REMARK    2  A    between atoms: C_2  and  C_3
REMARK    3  A    between atoms: N_13  and  C_14
REMARK    4  A    between atoms: C_14  and  N_15
REMARK                            x       y       z     vdW  Elec       q    Type
REMARK                         _______ _______ _______ _____ _____    ______ ____
ROOT
ATOM      1  C   UNL     1       7.418   6.829  17.454  0.00  0.00    +0.000 C 
ATOM      2  C   UNL     1       6.327   5.769  17.435  0.00  0.00    +0.000 C 
ATOM      3  N   UNL     1       6.464   4.817  18.514  0.00  0.00    +0.000 N 
ATOM      4  C   UNL     1       5.250   4.513  19.091  0.00  0.00    +0.000 C 
ATOM      5  O   UNL     1       5.131   3.656  19.948  0.00  0.00    +0.000 OA
ATOM      6  N   UNL     1       4.305   5.350  18.591  0.00  0.00    +0.000 N 
ATOM      7  C   UNL     1       4.933   6.312  17.850  0.00  0.00    +0.000 C 
ATOM      8  O   UNL     1       4.464   7.394  17.513  0.00  0.00    +0.000 OA
ATOM      9  H   UNL     1       7.266   4.230  18.693  0.00  0.00    +0.000 HD
ENDROOT
BRANCH   2  10
ATOM     10  C   UNL     1       6.261   5.042  16.089  0.00  0.00    +0.000 A 
ATOM     11  C   UNL     1       5.098   4.359  15.687  0.00  0.00    +0.000 A 
ATOM     12  C   UNL     1       5.000   3.799  14.413  0.00  0.00    +0.000 A 
ATOM     13  C   UNL     1       6.070   3.897  13.529  0.00  0.00    +0.000 A 
ATOM     14 CL   UNL     1       5.933   3.249  11.942  0.00  0.00    +0.000 Cl
ATOM     15  C   UNL     1       7.250   4.518  13.923  0.00  0.00    +0.000 A 
ATOM     16  C   UNL     1       7.352   5.069  15.199  0.00  0.00    +0.000 A 
ENDBRANCH   2  10
BRANCH   6  17
ATOM     17  C   UNL     1       2.981   5.479  19.144  0.00  0.00    +0.000 C 
BRANCH  17  18
ATOM     18  N   UNL     1       2.028   4.488  18.672  0.00  0.00    +0.000 NA
ATOM     19  C   UNL     1       1.188   3.801  19.650  0.00  0.00    +0.000 C 
ATOM     20  C   UNL     1       1.636   2.361  19.940  0.00  0.00    +0.000 C 
ATOM     21  O   UNL     1       1.722   1.605  18.726  0.00  0.00    +0.000 OA
ATOM     22  C   UNL     1       2.693   2.186  17.850  0.00  0.00    +0.000 C 
ATOM     23  C   UNL     1       2.384   3.657  17.524  0.00  0.00    +0.000 C 
ENDBRANCH  17  18
ENDBRANCH   6  17
TORSDOF 3
ENDMDL
MODEL 4
REMARK VINA RESULT:      -7.4      3.274      6.069
REMARK  Name = 
REMARK  4 active torsions:
REMARK  status: ('A' for Active; 'I' for Inactive)
REMARK    1  A    between atoms: C_1  and  C_2
REMARK    2  A    between atoms: C_2  and  C_3
REMARK    3  A    between atoms: N_13  and  C_14
REMARK    4  A    between atoms: C_14  and  N_15
REMARK                            x       y       z     vdW  Elec       q    Type
REMARK                         _______ _______ _______ _____ _____    ______ ____
ROOT
ATOM      1  C   UNL     1       7.514   6.783  17.439  0.00  0.00    +0.000 C 
ATOM      2  C   UNL     1       6.382   5.767  17.377  0.00  0.00    +0.000 C 
ATOM      3  N   UNL     1       6.524   4.723  18.366  0.00  0.00    +0.000 N 
ATOM      4  C   UNL     1       5.323   4.413  18.967  0.00  0.00    +0.000 C 
ATOM      5  O   UNL     1       5.205   3.491  19.752  0.00  0.00    +0.000 OA
ATOM      6  N   UNL     1       4.392   5.323  18.579  0.00  0.00    +0.000 N 
ATOM      7  C   UNL     1       5.028   6.322  17.896  0.00  0.00    +0.000 C 
ATOM      8  O   UNL     1       4.588   7.445  17.671  0.00  0.00    +0.000 OA
ATOM      9  H   UNL     1       7.310   4.095  18.460  0.00  0.00    +0.000 HD
ENDROOT
BRANCH   2  10
ATOM     10  C   UNL     1       6.236   5.161  15.979  0.00  0.00    +0.000 A 
ATOM     11  C   UNL     1       7.289   5.222  15.047  0.00  0.00    +0.000 A 
ATOM     12  C   UNL     1       7.195   4.567  13.817  0.00  0.00    +0.000 A 
ATOM     13  C   UNL     1       6.042   3.858  13.496  0.00  0.00    +0.000 A 
ATOM     14 CL   UNL     1       5.946   3.011  12.002  0.00  0.00    +0.000 Cl
ATOM     15  C   UNL     1       4.968   3.831  14.377  0.00  0.00    +0.000 A 
ATOM     16  C   UNL     1       5.055   4.493  15.600  0.00  0.00    +0.000 A 
ENDBRANCH   2  10
BRANCH   6  17
ATOM     17  C   UNL     1       3.097   5.451  19.197  0.00  0.00    +0.000 C 
BRANCH  17  18
ATOM     18  N   UNL     1       2.094   4.527  18.696  0.00  0.00    +0.000 NA
ATOM     19  C   UNL     1       1.236   3.836  19.656  0.00  0.00    +0.000 C 
ATOM     20  C   UNL     1       1.620   2.365  19.876  0.00  0.00    +0.000 C 
ATOM     21  O   UNL     1       1.656   1.661  18.629  0.00  0.00    +0.000 OA
ATOM     22  C   UNL     1       2.641   2.235  17.764  0.00  0.00    +0.000 C 
ATOM     23  C   UNL     1       2.396   3.732  17.508  0.00  0.00    +0.000 C 
ENDBRANCH  17  18
ENDBRANCH   6  17
TORSDOF 3
ENDMDL
MODEL 5
REMARK VINA RESULT:      -7.3      3.437      6.068
REMARK  Name = 
REMARK  4 active torsions:
REMARK  status: ('A' for Active; 'I' for Inactive)
REMARK    1  A    between atoms: C_1  and  C_2
REMARK    2  A    between atoms: C_2  and  C_3
REMARK    3  A    between atoms: N_13  and  C_14
REMARK    4  A    between atoms: C_14  and  N_15
REMARK                            x       y       z     vdW  Elec       q    Type
REMARK                         _______ _______ _______ _____ _____    ______ ____
ROOT
ATOM      1  C   UNL     1       6.227   5.538  18.819  0.00  0.00    +0.000 C 
ATOM      2  C   UNL     1       5.330   4.668  17.949  0.00  0.00    +0.000 C 
ATOM      3  N   UNL     1       5.228   3.314  18.445  0.00  0.00    +0.000 N 
ATOM      4  C   UNL     1       3.938   2.834  18.372  0.00  0.00    +0.000 C 
ATOM      5  O   UNL     1       3.655   1.681  18.642  0.00  0.00    +0.000 OA
ATOM      6  N   UNL     1       3.110   3.854  18.029  0.00  0.00    +0.000 N 
ATOM      7  C   UNL     1       3.823   5.019  18.074  0.00  0.00    +0.000 C 
ATOM      8  O   UNL     1       3.362   6.154  18.137  0.00  0.00    +0.000 OA
ATOM      9  H   UNL     1       5.995   2.674  18.590  0.00  0.00    +0.000 HD
ENDROOT
BRANCH   2  10
ATOM     10  C   UNL     1       5.782   4.668  16.487  0.00  0.00    +0.000 A 
ATOM     11  C   UNL     1       7.108   4.985  16.135  0.00  0.00    +0.000 A 
ATOM     12  C   UNL     1       7.546   4.869  14.815  0.00  0.00    +0.000 A 
ATOM     13  C   UNL     1       6.661   4.453  13.825  0.00  0.00    +0.000 A 
ATOM     14 CL   UNL     1       7.212   4.264  12.207  0.00  0.00    +0.000 Cl
ATOM     15  C   UNL     1       5.333   4.189  14.139  0.00  0.00    +0.000 A 
ATOM     16  C   UNL     1       4.891   4.314  15.455  0.00  0.00    +0.000 A 
ENDBRANCH   2  10
BRANCH   6  17
ATOM     17  C   UNL     1       1.673   3.772  18.100  0.00  0.00    +0.000 C 
BRANCH  17  18
ATOM     18  N   UNL     1       1.129   3.833  19.446  0.00  0.00    +0.000 NA
ATOM     19  C   UNL     1       1.539   4.931  20.319  0.00  0.00    +0.000 C 
ATOM     20  C   UNL     1       2.557   4.516  21.391  0.00  0.00    +0.000 C 
ATOM     21  O   UNL     1       2.059   3.415  22.161  0.00  0.00    +0.000 OA
ATOM     22  C   UNL     1       1.841   2.280  21.317  0.00  0.00    +0.000 C 
ATOM     23  C   UNL     1       0.872   2.585  20.161  0.00  0.00    +0.000 C 
ENDBRANCH  17  18
ENDBRANCH   6  17
TORSDOF 3
ENDMDL
MODEL 6
REMARK VINA RESULT:      -7.3      3.383      6.072
REMARK  Name = 
REMARK  4 active torsions:
REMARK  status: ('A' for Active; 'I' for Inactive)
REMARK    1  A    between atoms: C_1  and  C_2
REMARK    2  A    between atoms: C_2  and  C_3
REMARK    3  A    between atoms: N_13  and  C_14
REMARK    4  A    between atoms: C_14  and  N_15
REMARK                            x       y       z     vdW  Elec       q    Type
REMARK                         _______ _______ _______ _____ _____    ______ ____
ROOT
ATOM      1  C   UNL     1       6.396   5.510  18.850  0.00  0.00    +0.000 C 
ATOM      2  C   UNL     1       5.472   4.656  17.993  0.00  0.00    +0.000 C 
ATOM      3  N   UNL     1       5.270   3.337  18.548  0.00  0.00    +0.000 N 
ATOM      4  C   UNL     1       3.955   2.934  18.457  0.00  0.00    +0.000 C 
ATOM      5  O   UNL     1       3.591   1.816  18.771  0.00  0.00    +0.000 OA
ATOM      6  N   UNL     1       3.203   3.985  18.039  0.00  0.00    +0.000 N 
ATOM      7  C   UNL     1       3.987   5.105  18.052  0.00  0.00    +0.000 C 
ATOM      8  O   UNL     1       3.597   6.268  18.047  0.00  0.00    +0.000 OA
ATOM      9  H   UNL     1       5.990   2.658  18.749  0.00  0.00    +0.000 HD
ENDROOT
BRANCH   2  10
ATOM     10  C   UNL     1       5.966   4.556  16.548  0.00  0.00    +0.000 A 
ATOM     11  C   UNL     1       5.130   4.068  15.526  0.00  0.00    +0.000 A 
ATOM     12  C   UNL     1       5.542   4.088  14.192  0.00  0.00    +0.000 A 
ATOM     13  C   UNL     1       6.801   4.579  13.864  0.00  0.00    +0.000 A 
ATOM     14 CL   UNL     1       7.291   4.649  12.217  0.00  0.00    +0.000 Cl
ATOM     15  C   UNL     1       7.666   5.014  14.861  0.00  0.00    +0.000 A 
ATOM     16  C   UNL     1       7.260   4.984  16.194  0.00  0.00    +0.000 A 
ENDBRANCH   2  10
BRANCH   6  17
ATOM     17  C   UNL     1       1.763   3.996  18.066  0.00  0.00    +0.000 C 
BRANCH  17  18
ATOM     18  N   UNL     1       1.183   4.070  19.397  0.00  0.00    +0.000 NA
ATOM     19  C   UNL     1       1.707   5.060  20.336  0.00  0.00    +0.000 C 
ATOM     20  C   UNL     1       2.619   4.460  21.415  0.00  0.00    +0.000 C 
ATOM     21  O   UNL     1       1.948   3.404  22.113  0.00  0.00    +0.000 OA
ATOM     22  C   UNL     1       1.608   2.350  21.208  0.00  0.00    +0.000 C 
ATOM     23  C   UNL     1       0.733   2.839  20.041  0.00  0.00    +0.000 C 
ENDBRANCH  17  18
ENDBRANCH   6  17
TORSDOF 3
ENDMDL
MODEL 7
REMARK VINA RESULT:      -7.3      1.025      1.501
REMARK  Name = 
REMARK  4 active torsions:
REMARK  status: ('A' for Active; 'I' for Inactive)
REMARK    1  A    between atoms: C_1  and  C_2
REMARK    2  A    between atoms: C_2  and  C_3
REMARK    3  A    between atoms: N_13  and  C_14
REMARK    4  A    between atoms: C_14  and  N_15
REMARK                            x       y       z     vdW  Elec       q    Type
REMARK                         _______ _______ _______ _____ _____    ______ ____
ROOT
ATOM      1  C   UNL     1       0.840   3.728  20.368  0.00  0.00    +0.000 C 
ATOM      2  C   UNL     1       2.064   4.358  19.719  0.00  0.00    +0.000 C 
ATOM      3  N   UNL     1       3.298   3.919  20.329  0.00  0.00    +0.000 N 
ATOM      4  C   UNL     1       4.273   3.657  19.391  0.00  0.00    +0.000 C 
ATOM      5  O   UNL     1       5.417   3.375  19.699  0.00  0.00    +0.000 OA
ATOM      6  N   UNL     1       3.716   3.709  18.154  0.00  0.00    +0.000 N 
ATOM      7  C   UNL     1       2.360   3.807  18.298  0.00  0.00    +0.000 C 
ATOM      8  O   UNL     1       1.516   3.564  17.442  0.00  0.00    +0.000 OA
ATOM      9  H   UNL     1       3.551   4.021  21.302  0.00  0.00    +0.000 HD
ENDROOT
BRANCH   2  10
ATOM     10  C   UNL     1       1.984   5.886  19.717  0.00  0.00    +0.000 A 
ATOM     11  C   UNL     1       2.366   6.632  18.586  0.00  0.00    +0.000 A 
ATOM     12  C   UNL     1       2.182   8.016  18.545  0.00  0.00    +0.000 A 
ATOM     13  C   UNL     1       1.631   8.674  19.640  0.00  0.00    +0.000 A 
ATOM     14 CL   UNL     1       1.359  10.371  19.572  0.00  0.00    +0.000 Cl
ATOM     15  C   UNL     1       1.298   7.966  20.789  0.00  0.00    +0.000 A 
ATOM     16  C   UNL     1       1.491   6.587  20.835  0.00  0.00    +0.000 A 
ENDBRANCH   2  10
BRANCH   6  17
ATOM     17  C   UNL     1       4.379   3.250  16.960  0.00  0.00    +0.000 C 
BRANCH  17  18
ATOM     18  N   UNL     1       5.543   4.031  16.577  0.00  0.00    +0.000 NA
ATOM     19  C   UNL     1       5.501   5.482  16.744  0.00  0.00    +0.000 C 
ATOM     20  C   UNL     1       5.296   6.246  15.428  0.00  0.00    +0.000 C 
ATOM     21  O   UNL     1       6.293   5.875  14.468  0.00  0.00    +0.000 OA
ATOM     22  C   UNL     1       6.199   4.478  14.171  0.00  0.00    +0.000 C 
ATOM     23  C   UNL     1       6.335   3.600  15.427  0.00  0.00    +0.000 C 
ENDBRANCH  17  18
ENDBRANCH   6  17
TORSDOF 3
ENDMDL
MODEL 8
REMARK VINA RESULT:      -7.2      1.698      4.381
REMARK  Name = 
REMARK  4 active torsions:
REMARK  status: ('A' for Active; 'I' for Inactive)
REMARK    1  A    between atoms: C_1  and  C_2
REMARK    2  A    between atoms: C_2  and  C_3
REMARK    3  A    between atoms: N_13  and  C_14
REMARK    4  A    between atoms: C_14  and  N_15
REMARK                            x       y       z     vdW  Elec       q    Type
REMARK                         _______ _______ _______ _____ _____    ______ ____
ROOT
ATOM      1  C   UNL     1       5.759   7.043  17.274  0.00  0.00    +0.000 C 
ATOM      2  C   UNL     1       4.586   6.207  17.765  0.00  0.00    +0.000 C 
ATOM      3  N   UNL     1       4.128   5.262  16.772  0.00  0.00    +0.000 N 
ATOM      4  C   UNL     1       3.840   4.032  17.324  0.00  0.00    +0.000 C 
ATOM      5  O   UNL     1       3.343   3.128  16.679  0.00  0.00    +0.000 OA
ATOM      6  N   UNL     1       4.257   4.024  18.616  0.00  0.00    +0.000 N 
ATOM      7  C   UNL     1       4.983   5.160  18.840  0.00  0.00    +0.000 C 
ATOM      8  O   UNL     1       5.768   5.353  19.762  0.00  0.00    +0.000 OA
ATOM      9  H   UNL     1       3.799   5.486  15.844  0.00  0.00    +0.000 HD
ENDROOT
BRANCH   2  10
ATOM     10  C   UNL     1       3.424   7.081  18.244  0.00  0.00    +0.000 A 
ATOM     11  C   UNL     1       2.860   6.906  19.522  0.00  0.00    +0.000 A 
ATOM     12  C   UNL     1       1.882   7.780  20.000  0.00  0.00    +0.000 A 
ATOM     13  C   UNL     1       1.441   8.829  19.200  0.00  0.00    +0.000 A 
ATOM     14 CL   UNL     1       0.271   9.935  19.807  0.00  0.00    +0.000 Cl
ATOM     15  C   UNL     1       1.943   8.990  17.914  0.00  0.00    +0.000 A 
ATOM     16  C   UNL     1       2.912   8.112  17.432  0.00  0.00    +0.000 A 
ENDBRANCH   2  10
BRANCH   6  17
ATOM     17  C   UNL     1       4.337   2.831  19.420  0.00  0.00    +0.000 C 
BRANCH  17  18
ATOM     18  N   UNL     1       3.113   2.493  20.126  0.00  0.00    +0.000 NA
ATOM     19  C   UNL     1       2.095   1.711  19.430  0.00  0.00    +0.000 C 
ATOM     20  C   UNL     1       0.891   2.543  18.964  0.00  0.00    +0.000 C 
ATOM     21  O   UNL     1       0.317   3.258  20.065  0.00  0.00    +0.000 OA
ATOM     22  C   UNL     1       1.274   4.165  20.621  0.00  0.00    +0.000 C 
ATOM     23  C   UNL     1       2.559   3.453  21.078  0.00  0.00    +0.000 C 
ENDBRANCH  17  18
ENDBRANCH   6  17
TORSDOF 3
ENDMDL
MODEL 9
REMARK VINA RESULT:      -6.9      1.294      1.859
REMARK  Name = 
REMARK  4 active torsions:
REMARK  status: ('A' for Active; 'I' for Inactive)
REMARK    1  A    between atoms: C_1  and  C_2
REMARK    2  A    between atoms: C_2  and  C_3
REMARK    3  A    between atoms: N_13  and  C_14
REMARK    4  A    between atoms: C_14  and  N_15
REMARK                            x       y       z     vdW  Elec       q    Type
REMARK                         _______ _______ _______ _____ _____    ______ ____
ROOT
ATOM      1  C   UNL     1       0.638   2.855  19.339  0.00  0.00    +0.000 C 
ATOM      2  C   UNL     1       1.949   3.613  19.198  0.00  0.00    +0.000 C 
ATOM      3  N   UNL     1       3.012   3.025  19.981  0.00  0.00    +0.000 N 
ATOM      4  C   UNL     1       4.205   2.992  19.290  0.00  0.00    +0.000 C 
ATOM      5  O   UNL     1       5.247   2.632  19.804  0.00  0.00    +0.000 OA
ATOM      6  N   UNL     1       3.974   3.354  18.002  0.00  0.00    +0.000 N 
ATOM      7  C   UNL     1       2.622   3.427  17.812  0.00  0.00    +0.000 C 
ATOM      8  O   UNL     1       2.036   3.412  16.735  0.00  0.00    +0.000 OA
ATOM      9  H   UNL     1       3.007   2.881  20.980  0.00  0.00    +0.000 HD
ENDROOT
BRANCH   2  10
ATOM     10  C   UNL     1       1.790   5.095  19.544  0.00  0.00    +0.000 A 
ATOM     11  C   UNL     1       1.196   5.500  20.754  0.00  0.00    +0.000 A 
ATOM     12  C   UNL     1       1.159   6.847  21.119  0.00  0.00    +0.000 A 
ATOM     13  C   UNL     1       1.699   7.809  20.272  0.00  0.00    +0.000 A 
ATOM     14 CL   UNL     1       1.697   9.463  20.743  0.00  0.00    +0.000 Cl
ATOM     15  C   UNL     1       2.241   7.440  19.047  0.00  0.00    +0.000 A 
ATOM     16  C   UNL     1       2.269   6.097  18.676  0.00  0.00    +0.000 A 
ENDBRANCH   2  10
BRANCH   6  17
ATOM     17  C   UNL     1       4.940   3.197  16.945  0.00  0.00    +0.000 C 
BRANCH  17  18
ATOM     18  N   UNL     1       5.239   4.416  16.211  0.00  0.00    +0.000 NA
ATOM     19  C   UNL     1       5.801   4.305  14.867  0.00  0.00    +0.000 C 
ATOM     20  C   UNL     1       7.305   4.607  14.804  0.00  0.00    +0.000 C 
ATOM     21  O   UNL     1       7.586   5.894  15.367  0.00  0.00    +0.000 OA
ATOM     22  C   UNL     1       7.201   5.927  16.745  0.00  0.00    +0.000 C 
ATOM     23  C   UNL     1       5.715   5.584  16.948  0.00  0.00    +0.000 C 
ENDBRANCH  17  18
ENDBRANCH   6  17
TORSDOF 3
ENDMDL
