MODEL 1
REMARK VINA RESULT:      -7.9      0.000      0.000
REMARK  Name = 
REMARK  5 active torsions:
REMARK  status: ('A' for Active; 'I' for Inactive)
REMARK    1  A    between atoms: C_1  and  C_2
REMARK    2  A    between atoms: C_2  and  O_4
REMARK    3  A    between atoms: O_4  and  C_5
REMARK    4  A    between atoms: C_12  and  S_13
REMARK    5  A    between atoms: S_13  and  C_16
REMARK                            x       y       z     vdW  Elec       q    Type
REMARK                         _______ _______ _______ _____ _____    ______ ____
ROOT
ATOM      1  C   UNL     1       3.108   4.096  18.989  0.00  0.00    +0.000 C 
ATOM      2  C   UNL     1       3.830   5.143  19.866  0.00  0.00    +0.000 C 
ATOM      3  C   UNL     1       5.109   5.679  19.173  0.00  0.00    +0.000 C 
ATOM      4  C   UNL     1       4.840   6.150  17.703  0.00  0.00    +0.000 C 
ATOM      5  N   UNL     1       3.391   5.933  17.436  0.00  0.00    +0.000 NA
ATOM      6  C   UNL     1       3.303   4.441  17.493  0.00  0.00    +0.000 C 
ATOM      7  C   UNL     1       4.646   3.944  16.904  0.00  0.00    +0.000 C 
ATOM      8  C   UNL     1       5.341   5.254  16.583  0.00  0.00    +0.000 C 
ATOM      9  H   UNL     1       3.138   6.265  16.506  0.00  0.00    +0.000 HD
ENDROOT
BRANCH   8  10
ATOM     10  S   UNL     1       7.053   5.241  16.218  0.00  0.00    +0.000 S 
ATOM     11  O   UNL     1       7.536   6.607  16.260  0.00  0.00    +0.000 OA
ATOM     12  O   UNL     1       7.702   4.190  16.973  0.00  0.00    +0.000 OA
BRANCH  10  13
ATOM     13  C   UNL     1       7.044   4.745  14.488  0.00  0.00    +0.000 A 
ATOM     14  C   UNL     1       7.837   5.434  13.560  0.00  0.00    +0.000 A 
ATOM     15  C   UNL     1       7.735   5.121  12.201  0.00  0.00    +0.000 A 
ATOM     16  C   UNL     1       6.856   4.123  11.776  0.00  0.00    +0.000 A 
ATOM     17  C   UNL     1       6.090   3.421  12.709  0.00  0.00    +0.000 A 
ATOM     18  C   UNL     1       6.187   3.725  14.070  0.00  0.00    +0.000 A 
ENDBRANCH  10  13
ENDBRANCH   8  10
BRANCH   1  19
ATOM     19  O   UNL     1       1.679   4.148  19.224  0.00  0.00    +0.000 OA
BRANCH  19  21
ATOM     20  C   UNL     1       1.310   2.760  21.070  0.00  0.00    +0.000 C 
ATOM     21  C   UNL     1       1.070   2.999  19.607  0.00  0.00    +0.000 C 
ATOM     22  O   UNL     1       0.385   2.288  18.898  0.00  0.00    +0.000 OA
ENDBRANCH  19  21
ENDBRANCH   1  19
TORSDOF 4
ENDMDL
MODEL 2
REMARK VINA RESULT:      -7.9      0.212      1.078
REMARK  Name = 
REMARK  5 active torsions:
REMARK  status: ('A' for Active; 'I' for Inactive)
REMARK    1  A    between atoms: C_1  and  C_2
REMARK    2  A    between atoms: C_2  and  O_4
REMARK    3  A    between atoms: O_4  and  C_5
REMARK    4  A    between atoms: C_12  and  S_13
REMARK    5  A    between atoms: S_13  and  C_16
REMARK                            x       y       z     vdW  Elec       q    Type
REMARK                         _______ _______ _______ _____ _____    ______ ____
ROOT
ATOM      1  C   UNL     1       3.290   3.971  19.039  0.00  0.00    +0.000 C 
ATOM      2  C   UNL     1       4.085   4.962  19.920  0.00  0.00    +0.000 C 
ATOM      3  C   UNL     1       5.331   5.507  19.177  0.00  0.00    +0.000 C 
ATOM      4  C   UNL     1       4.985   6.054  17.750  0.00  0.00    +0.000 C 
ATOM      5  N   UNL     1       3.518   5.875  17.561  0.00  0.00    +0.000 NA
ATOM      6  C   UNL     1       3.404   4.385  17.552  0.00  0.00    +0.000 C 
ATOM      7  C   UNL     1       4.699   3.892  16.861  0.00  0.00    +0.000 C 
ATOM      8  C   UNL     1       5.400   5.204  16.560  0.00  0.00    +0.000 C 
ATOM      9  H   UNL     1       3.217   6.257  16.664  0.00  0.00    +0.000 HD
ENDROOT
BRANCH   8  10
ATOM     10  S   UNL     1       7.087   5.179  16.092  0.00  0.00    +0.000 S 
ATOM     11  O   UNL     1       7.603   6.530  16.185  0.00  0.00    +0.000 OA
ATOM     12  O   UNL     1       7.755   4.072  16.744  0.00  0.00    +0.000 OA
BRANCH  10  13
ATOM     13  C   UNL     1       6.964   4.787  14.340  0.00  0.00    +0.000 A 
ATOM     14  C   UNL     1       6.061   3.806  13.906  0.00  0.00    +0.000 A 
ATOM     15  C   UNL     1       6.056   3.423  12.561  0.00  0.00    +0.000 A 
ATOM     16  C   UNL     1       6.938   4.020  11.659  0.00  0.00    +0.000 A 
ATOM     17  C   UNL     1       7.815   5.016  12.093  0.00  0.00    +0.000 A 
ATOM     18  C   UNL     1       7.826   5.407  13.434  0.00  0.00    +0.000 A 
ENDBRANCH  10  13
ENDBRANCH   8  10
BRANCH   1  19
ATOM     19  O   UNL     1       1.879   4.036  19.362  0.00  0.00    +0.000 OA
BRANCH  19  21
ATOM     20  C   UNL     1       1.283   2.747  21.220  0.00  0.00    +0.000 C 
ATOM     21  C   UNL     1       1.270   2.881  19.725  0.00  0.00    +0.000 C 
ATOM     22  O   UNL     1       0.741   2.089  18.968  0.00  0.00    +0.000 OA
ENDBRANCH  19  21
ENDBRANCH   1  19
TORSDOF 4
ENDMDL
MODEL 3
REMARK VINA RESULT:      -7.8      0.933      1.488
REMARK  Name = 
REMARK  5 active torsions:
REMARK  status: ('A' for Active; 'I' for Inactive)
REMARK    1  A    between atoms: C_1  and  C_2
REMARK    2  A    between atoms: C_2  and  O_4
REMARK    3  A    between atoms: O_4  and  C_5
REMARK    4  A    between atoms: C_12  and  S_13
REMARK    5  A    between atoms: S_13  and  C_16
REMARK                            x       y       z     vdW  Elec       q    Type
REMARK                         _______ _______ _______ _____ _____    ______ ____
ROOT
ATOM      1  C   UNL     1       3.186   4.934  19.681  0.00  0.00    +0.000 C 
ATOM      2  C   UNL     1       2.966   6.309  19.011  0.00  0.00    +0.000 C 
ATOM      3  C   UNL     1       4.036   6.588  17.924  0.00  0.00    +0.000 C 
ATOM      4  C   UNL     1       4.186   5.399  16.914  0.00  0.00    +0.000 C 
ATOM      5  N   UNL     1       3.214   4.350  17.331  0.00  0.00    +0.000 NA
ATOM      6  C   UNL     1       3.776   3.939  18.653  0.00  0.00    +0.000 C 
ATOM      7  C   UNL     1       5.311   4.051  18.482  0.00  0.00    +0.000 C 
ATOM      8  C   UNL     1       5.422   4.527  17.045  0.00  0.00    +0.000 C 
ATOM      9  H   UNL     1       3.227   3.563  16.683  0.00  0.00    +0.000 HD
ENDROOT
BRANCH   8  10
ATOM     10  S   UNL     1       6.956   5.148  16.472  0.00  0.00    +0.000 S 
ATOM     11  O   UNL     1       6.936   6.592  16.601  0.00  0.00    +0.000 OA
ATOM     12  O   UNL     1       8.036   4.358  17.023  0.00  0.00    +0.000 OA
BRANCH  10  13
ATOM     13  C   UNL     1       6.853   4.781  14.713  0.00  0.00    +0.000 A 
ATOM     14  C   UNL     1       5.962   3.800  14.256  0.00  0.00    +0.000 A 
ATOM     15  C   UNL     1       5.973   3.437  12.905  0.00  0.00    +0.000 A 
ATOM     16  C   UNL     1       6.859   4.055  12.020  0.00  0.00    +0.000 A 
ATOM     17  C   UNL     1       7.723   5.052  12.477  0.00  0.00    +0.000 A 
ATOM     18  C   UNL     1       7.718   5.423  13.824  0.00  0.00    +0.000 A 
ENDBRANCH  10  13
ENDBRANCH   8  10
BRANCH   1  19
ATOM     19  O   UNL     1       1.916   4.371  20.093  0.00  0.00    +0.000 OA
BRANCH  19  21
ATOM     20  C   UNL     1       2.153   2.680  21.690  0.00  0.00    +0.000 C 
ATOM     21  C   UNL     1       1.856   3.028  20.260  0.00  0.00    +0.000 C 
ATOM     22  O   UNL     1       1.556   2.218  19.403  0.00  0.00    +0.000 OA
ENDBRANCH  19  21
ENDBRANCH   1  19
TORSDOF 4
ENDMDL
MODEL 4
REMARK VINA RESULT:      -7.7      1.114      1.400
REMARK  Name = 
REMARK  5 active torsions:
REMARK  status: ('A' for Active; 'I' for Inactive)
REMARK    1  A    between atoms: C_1  and  C_2
REMARK    2  A    between atoms: C_2  and  O_4
REMARK    3  A    between atoms: O_4  and  C_5
REMARK    4  A    between atoms: C_12  and  S_13
REMARK    5  A    between atoms: S_13  and  C_16
REMARK                            x       y       z     vdW  Elec       q    Type
REMARK                         _______ _______ _______ _____ _____    ______ ____
ROOT
ATOM      1  C   UNL     1       3.048   5.280  19.801  0.00  0.00    +0.000 C 
ATOM      2  C   UNL     1       2.882   6.622  19.053  0.00  0.00    +0.000 C 
ATOM      3  C   UNL     1       3.979   6.808  17.973  0.00  0.00    +0.000 C 
ATOM      4  C   UNL     1       4.110   5.562  17.033  0.00  0.00    +0.000 C 
ATOM      5  N   UNL     1       3.100   4.566  17.488  0.00  0.00    +0.000 NA
ATOM      6  C   UNL     1       3.626   4.213  18.842  0.00  0.00    +0.000 C 
ATOM      7  C   UNL     1       5.167   4.270  18.694  0.00  0.00    +0.000 C 
ATOM      8  C   UNL     1       5.317   4.662  17.236  0.00  0.00    +0.000 C 
ATOM      9  H   UNL     1       3.100   3.745  16.884  0.00  0.00    +0.000 HD
ENDROOT
BRANCH   8  10
ATOM     10  S   UNL     1       6.879   5.206  16.659  0.00  0.00    +0.000 S 
ATOM     11  O   UNL     1       6.880   6.655  16.653  0.00  0.00    +0.000 OA
ATOM     12  O   UNL     1       7.927   4.456  17.317  0.00  0.00    +0.000 OA
BRANCH  10  13
ATOM     13  C   UNL     1       6.826   4.678  14.939  0.00  0.00    +0.000 A 
ATOM     14  C   UNL     1       7.726   5.225  14.013  0.00  0.00    +0.000 A 
ATOM     15  C   UNL     1       7.601   4.899  12.659  0.00  0.00    +0.000 A 
ATOM     16  C   UNL     1       6.594   4.030  12.236  0.00  0.00    +0.000 A 
ATOM     17  C   UNL     1       5.719   3.467  13.168  0.00  0.00    +0.000 A 
ATOM     18  C   UNL     1       5.837   3.784  14.524  0.00  0.00    +0.000 A 
ENDBRANCH  10  13
ENDBRANCH   8  10
BRANCH   1  19
ATOM     19  O   UNL     1       1.754   4.778  20.219  0.00  0.00    +0.000 OA
BRANCH  19  21
ATOM     20  C   UNL     1       1.001   2.570  20.050  0.00  0.00    +0.000 C 
ATOM     21  C   UNL     1       1.730   3.592  20.874  0.00  0.00    +0.000 C 
ATOM     22  O   UNL     1       2.259   3.361  21.945  0.00  0.00    +0.000 OA
ENDBRANCH  19  21
ENDBRANCH   1  19
TORSDOF 4
ENDMDL
MODEL 5
REMARK VINA RESULT:      -7.6      1.163      1.622
REMARK  Name = 
REMARK  5 active torsions:
REMARK  status: ('A' for Active; 'I' for Inactive)
REMARK    1  A    between atoms: C_1  and  C_2
REMARK    2  A    between atoms: C_2  and  O_4
REMARK    3  A    between atoms: O_4  and  C_5
REMARK    4  A    between atoms: C_12  and  S_13
REMARK    5  A    between atoms: S_13  and  C_16
REMARK                            x       y       z     vdW  Elec       q    Type
REMARK                         _______ _______ _______ _____ _____    ______ ____
ROOT
ATOM      1  C   UNL     1       3.618   2.962  19.383  0.00  0.00    +0.000 C 
ATOM      2  C   UNL     1       3.751   4.364  20.020  0.00  0.00    +0.000 C 
ATOM      3  C   UNL     1       4.617   5.305  19.144  0.00  0.00    +0.000 C 
ATOM      4  C   UNL     1       4.154   5.323  17.648  0.00  0.00    +0.000 C 
ATOM      5  N   UNL     1       2.986   4.404  17.544  0.00  0.00    +0.000 NA
ATOM      6  C   UNL     1       3.623   3.085  17.841  0.00  0.00    +0.000 C 
ATOM      7  C   UNL     1       5.040   3.182  17.223  0.00  0.00    +0.000 C 
ATOM      8  C   UNL     1       5.022   4.584  16.643  0.00  0.00    +0.000 C 
ATOM      9  H   UNL     1       2.604   4.406  16.598  0.00  0.00    +0.000 HD
ENDROOT
BRANCH   8  10
ATOM     10  S   UNL     1       6.531   5.314  16.138  0.00  0.00    +0.000 S 
ATOM     11  O   UNL     1       6.368   6.754  16.159  0.00  0.00    +0.000 OA
ATOM     12  O   UNL     1       7.634   4.673  16.822  0.00  0.00    +0.000 OA
BRANCH  10  13
ATOM     13  C   UNL     1       6.603   4.824  14.408  0.00  0.00    +0.000 A 
ATOM     14  C   UNL     1       5.689   3.884  13.911  0.00  0.00    +0.000 A 
ATOM     15  C   UNL     1       5.826   3.419  12.599  0.00  0.00    +0.000 A 
ATOM     16  C   UNL     1       6.859   3.897  11.790  0.00  0.00    +0.000 A 
ATOM     17  C   UNL     1       7.748   4.854  12.283  0.00  0.00    +0.000 A 
ATOM     18  C   UNL     1       7.618   5.326  13.592  0.00  0.00    +0.000 A 
ENDBRANCH  10  13
ENDBRANCH   8  10
BRANCH   1  19
ATOM     19  O   UNL     1       2.339   2.375  19.730  0.00  0.00    +0.000 OA
BRANCH  19  21
ATOM     20  C   UNL     1       0.700   3.909  20.386  0.00  0.00    +0.000 C 
ATOM     21  C   UNL     1       1.700   2.875  20.815  0.00  0.00    +0.000 C 
ATOM     22  O   UNL     1       1.863   2.512  21.965  0.00  0.00    +0.000 OA
ENDBRANCH  19  21
ENDBRANCH   1  19
TORSDOF 4
ENDMDL
MODEL 6
REMARK VINA RESULT:      -7.5      1.131      1.202
REMARK  Name = 
REMARK  5 active torsions:
REMARK  status: ('A' for Active; 'I' for Inactive)
REMARK    1  A    between atoms: C_1  and  C_2
REMARK    2  A    between atoms: C_2  and  O_4
REMARK    3  A    between atoms: O_4  and  C_5
REMARK    4  A    between atoms: C_12  and  S_13
REMARK    5  A    between atoms: S_13  and  C_16
REMARK                            x       y       z     vdW  Elec       q    Type
REMARK                         _______ _______ _______ _____ _____    ______ ____
ROOT
ATOM      1  C   UNL     1       3.605   3.011  19.387  0.00  0.00    +0.000 C 
ATOM      2  C   UNL     1       3.725   4.418  20.016  0.00  0.00    +0.000 C 
ATOM      3  C   UNL     1       4.616   5.350  19.156  0.00  0.00    +0.000 C 
ATOM      4  C   UNL     1       4.193   5.356  17.647  0.00  0.00    +0.000 C 
ATOM      5  N   UNL     1       3.026   4.439  17.520  0.00  0.00    +0.000 NA
ATOM      6  C   UNL     1       3.652   3.121  17.845  0.00  0.00    +0.000 C 
ATOM      7  C   UNL     1       5.085   3.210  17.264  0.00  0.00    +0.000 C 
ATOM      8  C   UNL     1       5.085   4.607  16.672  0.00  0.00    +0.000 C 
ATOM      9  H   UNL     1       2.669   4.434  16.565  0.00  0.00    +0.000 HD
ENDROOT
BRANCH   8  10
ATOM     10  S   UNL     1       6.610   5.330  16.201  0.00  0.00    +0.000 S 
ATOM     11  O   UNL     1       6.433   6.768  16.152  0.00  0.00    +0.000 OA
ATOM     12  O   UNL     1       7.686   4.730  16.960  0.00  0.00    +0.000 OA
BRANCH  10  13
ATOM     13  C   UNL     1       6.761   4.765  14.499  0.00  0.00    +0.000 A 
ATOM     14  C   UNL     1       7.705   5.357  13.648  0.00  0.00    +0.000 A 
ATOM     15  C   UNL     1       7.735   4.996  12.298  0.00  0.00    +0.000 A 
ATOM     16  C   UNL     1       6.837   4.047  11.805  0.00  0.00    +0.000 A 
ATOM     17  C   UNL     1       5.918   3.440  12.665  0.00  0.00    +0.000 A 
ATOM     18  C   UNL     1       5.882   3.793  14.017  0.00  0.00    +0.000 A 
ENDBRANCH  10  13
ENDBRANCH   8  10
BRANCH   1  19
ATOM     19  O   UNL     1       2.316   2.430  19.705  0.00  0.00    +0.000 OA
BRANCH  19  21
ATOM     20  C   UNL     1       0.680   3.953  20.393  0.00  0.00    +0.000 C 
ATOM     21  C   UNL     1       1.674   2.904  20.800  0.00  0.00    +0.000 C 
ATOM     22  O   UNL     1       1.830   2.510  21.940  0.00  0.00    +0.000 OA
ENDBRANCH  19  21
ENDBRANCH   1  19
TORSDOF 4
ENDMDL
MODEL 7
REMARK VINA RESULT:      -7.4      2.557      6.655
REMARK  Name = 
REMARK  5 active torsions:
REMARK  status: ('A' for Active; 'I' for Inactive)
REMARK    1  A    between atoms: C_1  and  C_2
REMARK    2  A    between atoms: C_2  and  O_4
REMARK    3  A    between atoms: O_4  and  C_5
REMARK    4  A    between atoms: C_12  and  S_13
REMARK    5  A    between atoms: S_13  and  C_16
REMARK                            x       y       z     vdW  Elec       q    Type
REMARK                         _______ _______ _______ _____ _____    ______ ____
ROOT
ATOM      1  C   UNL     1       5.934   4.387  13.964  0.00  0.00    +0.000 C 
ATOM      2  C   UNL     1       7.117   5.264  14.432  0.00  0.00    +0.000 C 
ATOM      3  C   UNL     1       6.959   5.686  15.915  0.00  0.00    +0.000 C 
ATOM      4  C   UNL     1       6.654   4.469  16.854  0.00  0.00    +0.000 C 
ATOM      5  N   UNL     1       6.619   3.255  15.992  0.00  0.00    +0.000 NA
ATOM      6  C   UNL     1       5.418   3.530  15.145  0.00  0.00    +0.000 C 
ATOM      7  C   UNL     1       4.437   4.277  16.082  0.00  0.00    +0.000 C 
ATOM      8  C   UNL     1       5.232   4.331  17.373  0.00  0.00    +0.000 C 
ATOM      9  H   UNL     1       6.471   2.415  16.551  0.00  0.00    +0.000 HD
ENDROOT
BRANCH   8  10
ATOM     10  S   UNL     1       4.698   5.397  18.656  0.00  0.00    +0.000 S 
ATOM     11  O   UNL     1       5.749   5.470  19.651  0.00  0.00    +0.000 OA
ATOM     12  O   UNL     1       4.122   6.595  18.083  0.00  0.00    +0.000 OA
BRANCH  10  13
ATOM     13  C   UNL     1       3.359   4.439  19.380  0.00  0.00    +0.000 A 
ATOM     14  C   UNL     1       3.362   3.041  19.271  0.00  0.00    +0.000 A 
ATOM     15  C   UNL     1       2.261   2.313  19.731  0.00  0.00    +0.000 A 
ATOM     16  C   UNL     1       1.171   2.974  20.302  0.00  0.00    +0.000 A 
ATOM     17  C   UNL     1       1.187   4.364  20.433  0.00  0.00    +0.000 A 
ATOM     18  C   UNL     1       2.285   5.101  19.978  0.00  0.00    +0.000 A 
ENDBRANCH  10  13
ENDBRANCH   8  10
BRANCH   1  19
ATOM     19  O   UNL     1       6.378   3.446  12.956  0.00  0.00    +0.000 OA
BRANCH  19  21
ATOM     20  C   UNL     1       5.935   1.761  11.396  0.00  0.00    +0.000 C 
ATOM     21  C   UNL     1       5.461   3.027  12.050  0.00  0.00    +0.000 C 
ATOM     22  O   UNL     1       4.389   3.555  11.828  0.00  0.00    +0.000 OA
ENDBRANCH  19  21
ENDBRANCH   1  19
TORSDOF 4
ENDMDL
MODEL 8
REMARK VINA RESULT:      -7.4      2.573      6.670
REMARK  Name = 
REMARK  5 active torsions:
REMARK  status: ('A' for Active; 'I' for Inactive)
REMARK    1  A    between atoms: C_1  and  C_2
REMARK    2  A    between atoms: C_2  and  O_4
REMARK    3  A    between atoms: O_4  and  C_5
REMARK    4  A    between atoms: C_12  and  S_13
REMARK    5  A    between atoms: S_13  and  C_16
REMARK                            x       y       z     vdW  Elec       q    Type
REMARK                         _______ _______ _______ _____ _____    ______ ____
ROOT
ATOM      1  C   UNL     1       5.913   4.340  13.978  0.00  0.00    +0.000 C 
ATOM      2  C   UNL     1       7.084   5.255  14.401  0.00  0.00    +0.000 C 
ATOM      3  C   UNL     1       6.943   5.711  15.876  0.00  0.00    +0.000 C 
ATOM      4  C   UNL     1       6.682   4.512  16.851  0.00  0.00    +0.000 C 
ATOM      5  N   UNL     1       6.660   3.275  16.020  0.00  0.00    +0.000 NA
ATOM      6  C   UNL     1       5.438   3.502  15.189  0.00  0.00    +0.000 C 
ATOM      7  C   UNL     1       4.457   4.250  16.125  0.00  0.00    +0.000 C 
ATOM      8  C   UNL     1       5.274   4.355  17.399  0.00  0.00    +0.000 C 
ATOM      9  H   UNL     1       6.541   2.447  16.603  0.00  0.00    +0.000 HD
ENDROOT
BRANCH   8  10
ATOM     10  S   UNL     1       4.739   5.441  18.665  0.00  0.00    +0.000 S 
ATOM     11  O   UNL     1       5.773   5.501  19.678  0.00  0.00    +0.000 OA
ATOM     12  O   UNL     1       4.196   6.646  18.073  0.00  0.00    +0.000 OA
BRANCH  10  13
ATOM     13  C   UNL     1       3.368   4.515  19.372  0.00  0.00    +0.000 A 
ATOM     14  C   UNL     1       2.226   5.192  19.822  0.00  0.00    +0.000 A 
ATOM     15  C   UNL     1       1.218   4.479  20.478  0.00  0.00    +0.000 A 
ATOM     16  C   UNL     1       1.346   3.103  20.674  0.00  0.00    +0.000 A 
ATOM     17  C   UNL     1       2.473   2.430  20.199  0.00  0.00    +0.000 A 
ATOM     18  C   UNL     1       3.485   3.133  19.540  0.00  0.00    +0.000 A 
ENDBRANCH  10  13
ENDBRANCH   8  10
BRANCH   1  19
ATOM     19  O   UNL     1       6.360   3.384  12.985  0.00  0.00    +0.000 OA
BRANCH  19  21
ATOM     20  C   UNL     1       5.934   1.736  11.381  0.00  0.00    +0.000 C 
ATOM     21  C   UNL     1       5.463   2.998  12.046  0.00  0.00    +0.000 C 
ATOM     22  O   UNL     1       4.407   3.549  11.802  0.00  0.00    +0.000 OA
ENDBRANCH  19  21
ENDBRANCH   1  19
TORSDOF 4
ENDMDL
MODEL 9
REMARK VINA RESULT:      -7.3      1.349      1.971
REMARK  Name = 
REMARK  5 active torsions:
REMARK  status: ('A' for Active; 'I' for Inactive)
REMARK    1  A    between atoms: C_1  and  C_2
REMARK    2  A    between atoms: C_2  and  O_4
REMARK    3  A    between atoms: O_4  and  C_5
REMARK    4  A    between atoms: C_12  and  S_13
REMARK    5  A    between atoms: S_13  and  C_16
REMARK                            x       y       z     vdW  Elec       q    Type
REMARK                         _______ _______ _______ _____ _____    ______ ____
ROOT
ATOM      1  C   UNL     1       3.774   4.000  19.838  0.00  0.00    +0.000 C 
ATOM      2  C   UNL     1       2.632   4.567  18.964  0.00  0.00    +0.000 C 
ATOM      3  C   UNL     1       3.175   5.168  17.642  0.00  0.00    +0.000 C 
ATOM      4  C   UNL     1       4.132   4.184  16.886  0.00  0.00    +0.000 C 
ATOM      5  N   UNL     1       4.211   2.942  17.704  0.00  0.00    +0.000 NA
ATOM      6  C   UNL     1       4.899   3.443  18.933  0.00  0.00    +0.000 C 
ATOM      7  C   UNL     1       5.885   4.522  18.421  0.00  0.00    +0.000 C 
ATOM      8  C   UNL     1       5.619   4.492  16.928  0.00  0.00    +0.000 C 
ATOM      9  H   UNL     1       4.785   2.237  17.242  0.00  0.00    +0.000 HD
ENDROOT
BRANCH   8  10
ATOM     10  S   UNL     1       6.238   5.790  15.928  0.00  0.00    +0.000 S 
ATOM     11  O   UNL     1       5.205   6.799  15.806  0.00  0.00    +0.000 OA
ATOM     12  O   UNL     1       7.578   6.134  16.354  0.00  0.00    +0.000 OA
BRANCH  10  13
ATOM     13  C   UNL     1       6.365   4.977  14.328  0.00  0.00    +0.000 A 
ATOM     14  C   UNL     1       5.378   4.065  13.928  0.00  0.00    +0.000 A 
ATOM     15  C   UNL     1       5.545   3.350  12.738  0.00  0.00    +0.000 A 
ATOM     16  C   UNL     1       6.681   3.551  11.952  0.00  0.00    +0.000 A 
ATOM     17  C   UNL     1       7.646   4.482  12.343  0.00  0.00    +0.000 A 
ATOM     18  C   UNL     1       7.488   5.203  13.529  0.00  0.00    +0.000 A 
ENDBRANCH  10  13
ENDBRANCH   8  10
BRANCH   1  19
ATOM     19  O   UNL     1       3.296   2.875  20.615  0.00  0.00    +0.000 OA
BRANCH  19  21
ATOM     20  C   UNL     1       1.139   2.824  21.518  0.00  0.00    +0.000 C 
ATOM     21  C   UNL     1       2.034   2.444  20.374  0.00  0.00    +0.000 C 
ATOM     22  O   UNL     1       1.656   1.881  19.364  0.00  0.00    +0.000 OA
ENDBRANCH  19  21
ENDBRANCH   1  19
TORSDOF 4
ENDMDL
