MODEL 1
REMARK VINA RESULT:      -6.6      0.000      0.000
REMARK  Name = 
REMARK  10 active torsions:
REMARK  status: ('A' for Active; 'I' for Inactive)
REMARK    1  A    between atoms: C_1  and  C_2
REMARK    2  A    between atoms: C_2  and  N_3
REMARK    3  A    between atoms: C_7  and  C_8
REMARK    4  A    between atoms: C_11  and  O_12
REMARK    5  A    between atoms: O_12  and  C_13
REMARK    6  A    between atoms: C_14  and  O_15
REMARK    7  A    between atoms: O_15  and  C_16
REMARK    8  A    between atoms: C_16  and  C_17
REMARK    9  A    between atoms: N_21  and  C_22
REMARK   10  A    between atoms: C_22  and  C_23
REMARK                            x       y       z     vdW  Elec       q    Type
REMARK                         _______ _______ _______ _____ _____    ______ ____
ROOT
ATOM      1  N   UNL     1      -0.372   9.924  21.275  0.00  0.00    +0.000 NA
ATOM      2  C   UNL     1       0.426   9.534  20.349  0.00  0.00    +0.000 C 
ATOM      3  S   UNL     1       1.299   8.018  20.283  0.00  0.00    +0.000 S 
ATOM      4  C   UNL     1       2.036   8.406  18.782  0.00  0.00    +0.000 C 
ATOM      5  C   UNL     1       2.841   7.636  18.036  0.00  0.00    +0.000 C 
ATOM      6  C   UNL     1       1.605   9.760  18.336  0.00  0.00    +0.000 C 
ATOM      7  O   UNL     1       1.983  10.287  17.298  0.00  0.00    +0.000 OA
ATOM      8  N   UNL     1       0.714  10.298  19.245  0.00  0.00    +0.000 N 
ENDROOT
BRANCH   5   9
ATOM      9  C   UNL     1       3.176   6.237  18.325  0.00  0.00    +0.000 A 
ATOM     10  C   UNL     1       2.197   5.255  18.440  0.00  0.00    +0.000 A 
ATOM     11  C   UNL     1       2.573   3.939  18.717  0.00  0.00    +0.000 A 
ATOM     12  C   UNL     1       3.922   3.581  18.884  0.00  0.00    +0.000 A 
ATOM     13  C   UNL     1       4.914   4.571  18.775  0.00  0.00    +0.000 A 
ATOM     14  C   UNL     1       4.524   5.891  18.493  0.00  0.00    +0.000 A 
BRANCH  12  15
ATOM     15  O   UNL     1       4.075   2.243  19.146  0.00  0.00    +0.000 OA
ATOM     16  C   UNL     1       3.730   1.302  18.141  0.00  0.00    +0.000 C 
ENDBRANCH  12  15
BRANCH  13  17
ATOM     17  O   UNL     1       6.222   4.208  18.952  0.00  0.00    +0.000 OA
BRANCH  17  18
ATOM     18  C   UNL     1       7.233   4.894  18.218  0.00  0.00    +0.000 C 
ATOM     19  C   UNL     1       7.979   5.792  19.187  0.00  0.00    +0.000 C 
ENDBRANCH  17  18
ENDBRANCH  13  17
ENDBRANCH   5   9
BRANCH   1  21
ATOM     20  C   UNL     1       0.297   9.511  23.562  0.00  0.00    +0.000 C 
ATOM     21  C   UNL     1      -0.604   9.054  22.429  0.00  0.00    +0.000 C 
ENDBRANCH   1  21
BRANCH   8  22
ATOM     22  C   UNL     1       0.144  11.621  19.018  0.00  0.00    +0.000 C 
ATOM     23  C   UNL     1      -1.169  11.583  18.247  0.00  0.00    +0.000 C 
ENDBRANCH   8  22
TORSDOF 6
ENDMDL
MODEL 2
REMARK VINA RESULT:      -6.6      0.695      1.025
REMARK  Name = 
REMARK  10 active torsions:
REMARK  status: ('A' for Active; 'I' for Inactive)
REMARK    1  A    between atoms: C_1  and  C_2
REMARK    2  A    between atoms: C_2  and  N_3
REMARK    3  A    between atoms: C_7  and  C_8
REMARK    4  A    between atoms: C_11  and  O_12
REMARK    5  A    between atoms: O_12  and  C_13
REMARK    6  A    between atoms: C_14  and  O_15
REMARK    7  A    between atoms: O_15  and  C_16
REMARK    8  A    between atoms: C_16  and  C_17
REMARK    9  A    between atoms: N_21  and  C_22
REMARK   10  A    between atoms: C_22  and  C_23
REMARK                            x       y       z     vdW  Elec       q    Type
REMARK                         _______ _______ _______ _____ _____    ______ ____
ROOT
ATOM      1  N   UNL     1      -0.262   9.963  21.197  0.00  0.00    +0.000 NA
ATOM      2  C   UNL     1       0.551   9.647  20.256  0.00  0.00    +0.000 C 
ATOM      3  S   UNL     1       1.391   8.124  20.059  0.00  0.00    +0.000 S 
ATOM      4  C   UNL     1       2.176   8.641  18.622  0.00  0.00    +0.000 C 
ATOM      5  C   UNL     1       2.981   7.929  17.822  0.00  0.00    +0.000 C 
ATOM      6  C   UNL     1       1.786  10.042  18.303  0.00  0.00    +0.000 C 
ATOM      7  O   UNL     1       2.203  10.661  17.332  0.00  0.00    +0.000 OA
ATOM      8  N   UNL     1       0.884  10.510  19.240  0.00  0.00    +0.000 N 
ENDROOT
BRANCH   5   9
ATOM      9  C   UNL     1       3.278   6.500  17.978  0.00  0.00    +0.000 A 
ATOM     10  C   UNL     1       2.295   5.526  17.838  0.00  0.00    +0.000 A 
ATOM     11  C   UNL     1       2.633   4.181  17.998  0.00  0.00    +0.000 A 
ATOM     12  C   UNL     1       3.948   3.786  18.299  0.00  0.00    +0.000 A 
ATOM     13  C   UNL     1       4.944   4.767  18.447  0.00  0.00    +0.000 A 
ATOM     14  C   UNL     1       4.592   6.117  18.281  0.00  0.00    +0.000 A 
BRANCH  12  15
ATOM     15  O   UNL     1       4.068   2.424  18.411  0.00  0.00    +0.000 OA
ATOM     16  C   UNL     1       2.923   1.657  18.751  0.00  0.00    +0.000 C 
ENDBRANCH  12  15
BRANCH  13  17
ATOM     17  O   UNL     1       6.217   4.366  18.753  0.00  0.00    +0.000 OA
BRANCH  17  18
ATOM     18  C   UNL     1       7.302   4.878  17.984  0.00  0.00    +0.000 C 
ATOM     19  C   UNL     1       7.078   4.472  16.539  0.00  0.00    +0.000 C 
ENDBRANCH  17  18
ENDBRANCH  13  17
ENDBRANCH   5   9
BRANCH   1  21
ATOM     20  C   UNL     1       0.132   9.458  23.529  0.00  0.00    +0.000 C 
ATOM     21  C   UNL     1      -0.543   8.990  22.252  0.00  0.00    +0.000 C 
ENDBRANCH   1  21
BRANCH   8  22
ATOM     22  C   UNL     1       0.350  11.863  19.133  0.00  0.00    +0.000 C 
ATOM     23  C   UNL     1       1.227  12.908  19.812  0.00  0.00    +0.000 C 
ENDBRANCH   8  22
TORSDOF 6
ENDMDL
MODEL 3
REMARK VINA RESULT:      -6.5      3.276      7.598
REMARK  Name = 
REMARK  10 active torsions:
REMARK  status: ('A' for Active; 'I' for Inactive)
REMARK    1  A    between atoms: C_1  and  C_2
REMARK    2  A    between atoms: C_2  and  N_3
REMARK    3  A    between atoms: C_7  and  C_8
REMARK    4  A    between atoms: C_11  and  O_12
REMARK    5  A    between atoms: O_12  and  C_13
REMARK    6  A    between atoms: C_14  and  O_15
REMARK    7  A    between atoms: O_15  and  C_16
REMARK    8  A    between atoms: C_16  and  C_17
REMARK    9  A    between atoms: N_21  and  C_22
REMARK   10  A    between atoms: C_22  and  C_23
REMARK                            x       y       z     vdW  Elec       q    Type
REMARK                         _______ _______ _______ _____ _____    ______ ____
ROOT
ATOM      1  N   UNL     1       3.496   2.883  17.466  0.00  0.00    +0.000 NA
ATOM      2  C   UNL     1       3.600   4.162  17.420  0.00  0.00    +0.000 C 
ATOM      3  S   UNL     1       2.485   5.333  18.090  0.00  0.00    +0.000 S 
ATOM      4  C   UNL     1       3.424   6.666  17.550  0.00  0.00    +0.000 C 
ATOM      5  C   UNL     1       3.205   7.970  17.773  0.00  0.00    +0.000 C 
ATOM      6  C   UNL     1       4.623   6.182  16.813  0.00  0.00    +0.000 C 
ATOM      7  O   UNL     1       5.462   6.922  16.317  0.00  0.00    +0.000 OA
ATOM      8  N   UNL     1       4.648   4.800  16.802  0.00  0.00    +0.000 N 
ENDROOT
BRANCH   5   9
ATOM      9  C   UNL     1       2.143   8.514  18.626  0.00  0.00    +0.000 A 
ATOM     10  C   UNL     1       2.058   8.208  19.980  0.00  0.00    +0.000 A 
ATOM     11  C   UNL     1       1.026   8.755  20.745  0.00  0.00    +0.000 A 
ATOM     12  C   UNL     1       0.065   9.609  20.177  0.00  0.00    +0.000 A 
ATOM     13  C   UNL     1       0.144   9.918  18.807  0.00  0.00    +0.000 A 
ATOM     14  C   UNL     1       1.189   9.365  18.049  0.00  0.00    +0.000 A 
BRANCH  12  15
ATOM     15  O   UNL     1      -0.857  10.038  21.098  0.00  0.00    +0.000 OA
ATOM     16  C   UNL     1      -0.437  10.284  22.431  0.00  0.00    +0.000 C 
ENDBRANCH  12  15
BRANCH  13  17
ATOM     17  O   UNL     1      -0.807  10.742  18.268  0.00  0.00    +0.000 OA
BRANCH  17  18
ATOM     18  C   UNL     1      -2.099  10.211  17.988  0.00  0.00    +0.000 C 
ATOM     19  C   UNL     1      -2.277  10.197  16.480  0.00  0.00    +0.000 C 
ENDBRANCH  17  18
ENDBRANCH  13  17
ENDBRANCH   5   9
BRANCH   1  21
ATOM     20  C   UNL     1       2.661   2.100  19.597  0.00  0.00    +0.000 C 
ATOM     21  C   UNL     1       2.334   2.287  18.126  0.00  0.00    +0.000 C 
ENDBRANCH   1  21
BRANCH   8  22
ATOM     22  C   UNL     1       5.738   4.091  16.141  0.00  0.00    +0.000 C 
ATOM     23  C   UNL     1       5.632   4.115  14.621  0.00  0.00    +0.000 C 
ENDBRANCH   8  22
TORSDOF 6
ENDMDL
MODEL 4
REMARK VINA RESULT:      -6.5      2.987      7.751
REMARK  Name = 
REMARK  10 active torsions:
REMARK  status: ('A' for Active; 'I' for Inactive)
REMARK    1  A    between atoms: C_1  and  C_2
REMARK    2  A    between atoms: C_2  and  N_3
REMARK    3  A    between atoms: C_7  and  C_8
REMARK    4  A    between atoms: C_11  and  O_12
REMARK    5  A    between atoms: O_12  and  C_13
REMARK    6  A    between atoms: C_14  and  O_15
REMARK    7  A    between atoms: O_15  and  C_16
REMARK    8  A    between atoms: C_16  and  C_17
REMARK    9  A    between atoms: N_21  and  C_22
REMARK   10  A    between atoms: C_22  and  C_23
REMARK                            x       y       z     vdW  Elec       q    Type
REMARK                         _______ _______ _______ _____ _____    ______ ____
ROOT
ATOM      1  N   UNL     1       3.224   4.359  20.302  0.00  0.00    +0.000 NA
ATOM      2  C   UNL     1       3.127   5.391  19.546  0.00  0.00    +0.000 C 
ATOM      3  S   UNL     1       1.892   6.630  19.610  0.00  0.00    +0.000 S 
ATOM      4  C   UNL     1       2.576   7.505  18.301  0.00  0.00    +0.000 C 
ATOM      5  C   UNL     1       2.174   8.681  17.798  0.00  0.00    +0.000 C 
ATOM      6  C   UNL     1       3.784   6.800  17.791  0.00  0.00    +0.000 C 
ATOM      7  O   UNL     1       4.465   7.204  16.857  0.00  0.00    +0.000 OA
ATOM      8  N   UNL     1       4.021   5.662  18.538  0.00  0.00    +0.000 N 
ENDROOT
BRANCH   5   9
ATOM      9  C   UNL     1       1.100   9.513  18.351  0.00  0.00    +0.000 A 
ATOM     10  C   UNL     1       1.284  10.291  19.489  0.00  0.00    +0.000 A 
ATOM     11  C   UNL     1       0.225  11.064  19.972  0.00  0.00    +0.000 A 
ATOM     12  C   UNL     1      -1.027  11.073  19.333  0.00  0.00    +0.000 A 
ATOM     13  C   UNL     1      -1.219  10.284  18.186  0.00  0.00    +0.000 A 
ATOM     14  C   UNL     1      -0.147   9.513  17.708  0.00  0.00    +0.000 A 
BRANCH  12  15
ATOM     15  O   UNL     1      -1.924  11.898  19.963  0.00  0.00    +0.000 OA
ATOM     16  C   UNL     1      -1.437  12.909  20.832  0.00  0.00    +0.000 C 
ENDBRANCH  12  15
BRANCH  13  17
ATOM     17  O   UNL     1      -2.449  10.296  17.583  0.00  0.00    +0.000 OA
BRANCH  17  18
ATOM     18  C   UNL     1      -2.595  10.962  16.332  0.00  0.00    +0.000 C 
ATOM     19  C   UNL     1      -2.991   9.923  15.298  0.00  0.00    +0.000 C 
ENDBRANCH  17  18
ENDBRANCH  13  17
ENDBRANCH   5   9
BRANCH   1  21
ATOM     20  C   UNL     1       1.276   3.041  20.862  0.00  0.00    +0.000 C 
ATOM     21  C   UNL     1       2.214   4.136  21.337  0.00  0.00    +0.000 C 
ENDBRANCH   1  21
BRANCH   8  22
ATOM     22  C   UNL     1       5.161   4.806  18.230  0.00  0.00    +0.000 C 
ATOM     23  C   UNL     1       6.440   5.236  18.938  0.00  0.00    +0.000 C 
ENDBRANCH   8  22
TORSDOF 6
ENDMDL
MODEL 5
REMARK VINA RESULT:      -6.5      3.383      5.659
REMARK  Name = 
REMARK  10 active torsions:
REMARK  status: ('A' for Active; 'I' for Inactive)
REMARK    1  A    between atoms: C_1  and  C_2
REMARK    2  A    between atoms: C_2  and  N_3
REMARK    3  A    between atoms: C_7  and  C_8
REMARK    4  A    between atoms: C_11  and  O_12
REMARK    5  A    between atoms: O_12  and  C_13
REMARK    6  A    between atoms: C_14  and  O_15
REMARK    7  A    between atoms: O_15  and  C_16
REMARK    8  A    between atoms: C_16  and  C_17
REMARK    9  A    between atoms: N_21  and  C_22
REMARK   10  A    between atoms: C_22  and  C_23
REMARK                            x       y       z     vdW  Elec       q    Type
REMARK                         _______ _______ _______ _____ _____    ______ ____
ROOT
ATOM      1  N   UNL     1       1.798   6.133  20.363  0.00  0.00    +0.000 NA
ATOM      2  C   UNL     1       2.234   5.254  19.535  0.00  0.00    +0.000 C 
ATOM      3  S   UNL     1       3.381   5.509  18.238  0.00  0.00    +0.000 S 
ATOM      4  C   UNL     1       3.322   3.866  17.743  0.00  0.00    +0.000 C 
ATOM      5  C   UNL     1       4.041   3.270  16.781  0.00  0.00    +0.000 C 
ATOM      6  C   UNL     1       2.369   3.109  18.600  0.00  0.00    +0.000 C 
ATOM      7  O   UNL     1       2.132   1.915  18.464  0.00  0.00    +0.000 OA
ATOM      8  N   UNL     1       1.830   3.941  19.563  0.00  0.00    +0.000 N 
ENDROOT
BRANCH   5   9
ATOM      9  C   UNL     1       5.114   3.908  16.011  0.00  0.00    +0.000 A 
ATOM     10  C   UNL     1       5.327   3.618  14.667  0.00  0.00    +0.000 A 
ATOM     11  C   UNL     1       6.363   4.255  13.982  0.00  0.00    +0.000 A 
ATOM     12  C   UNL     1       7.201   5.185  14.621  0.00  0.00    +0.000 A 
ATOM     13  C   UNL     1       6.994   5.478  15.980  0.00  0.00    +0.000 A 
ATOM     14  C   UNL     1       5.946   4.834  16.658  0.00  0.00    +0.000 A 
BRANCH  12  15
ATOM     15  O   UNL     1       8.151   5.696  13.772  0.00  0.00    +0.000 OA
ATOM     16  C   UNL     1       8.016   5.477  12.376  0.00  0.00    +0.000 C 
ENDBRANCH  12  15
BRANCH  13  17
ATOM     17  O   UNL     1       7.827   6.378  16.590  0.00  0.00    +0.000 OA
BRANCH  17  18
ATOM     18  C   UNL     1       7.376   7.044  17.767  0.00  0.00    +0.000 C 
ATOM     19  C   UNL     1       7.979   6.328  18.962  0.00  0.00    +0.000 C 
ENDBRANCH  17  18
ENDBRANCH  13  17
ENDBRANCH   5   9
BRANCH   1  21
ATOM     20  C   UNL     1       1.293   8.276  19.363  0.00  0.00    +0.000 C 
ATOM     21  C   UNL     1       2.265   7.514  20.247  0.00  0.00    +0.000 C 
ENDBRANCH   1  21
BRANCH   8  22
ATOM     22  C   UNL     1       0.870   3.420  20.529  0.00  0.00    +0.000 C 
ATOM     23  C   UNL     1       1.531   2.795  21.751  0.00  0.00    +0.000 C 
ENDBRANCH   8  22
TORSDOF 6
ENDMDL
MODEL 6
REMARK VINA RESULT:      -6.4      2.840      7.457
REMARK  Name = 
REMARK  10 active torsions:
REMARK  status: ('A' for Active; 'I' for Inactive)
REMARK    1  A    between atoms: C_1  and  C_2
REMARK    2  A    between atoms: C_2  and  N_3
REMARK    3  A    between atoms: C_7  and  C_8
REMARK    4  A    between atoms: C_11  and  O_12
REMARK    5  A    between atoms: O_12  and  C_13
REMARK    6  A    between atoms: C_14  and  O_15
REMARK    7  A    between atoms: O_15  and  C_16
REMARK    8  A    between atoms: C_16  and  C_17
REMARK    9  A    between atoms: N_21  and  C_22
REMARK   10  A    between atoms: C_22  and  C_23
REMARK                            x       y       z     vdW  Elec       q    Type
REMARK                         _______ _______ _______ _____ _____    ______ ____
ROOT
ATOM      1  N   UNL     1       3.170   4.265  20.406  0.00  0.00    +0.000 NA
ATOM      2  C   UNL     1       3.077   5.315  19.674  0.00  0.00    +0.000 C 
ATOM      3  S   UNL     1       1.852   6.562  19.773  0.00  0.00    +0.000 S 
ATOM      4  C   UNL     1       2.536   7.461  18.481  0.00  0.00    +0.000 C 
ATOM      5  C   UNL     1       2.142   8.651  18.007  0.00  0.00    +0.000 C 
ATOM      6  C   UNL     1       3.737   6.759  17.950  0.00  0.00    +0.000 C 
ATOM      7  O   UNL     1       4.416   7.180  17.022  0.00  0.00    +0.000 OA
ATOM      8  N   UNL     1       3.969   5.602  18.669  0.00  0.00    +0.000 N 
ENDROOT
BRANCH   5   9
ATOM      9  C   UNL     1       1.076   9.479  18.584  0.00  0.00    +0.000 A 
ATOM     10  C   UNL     1      -0.076   9.796  17.871  0.00  0.00    +0.000 A 
ATOM     11  C   UNL     1      -1.058  10.588  18.470  0.00  0.00    +0.000 A 
ATOM     12  C   UNL     1      -0.909  11.075  19.780  0.00  0.00    +0.000 A 
ATOM     13  C   UNL     1       0.256  10.762  20.502  0.00  0.00    +0.000 A 
ATOM     14  C   UNL     1       1.235   9.962  19.891  0.00  0.00    +0.000 A 
BRANCH  12  15
ATOM     15  O   UNL     1      -1.985  11.827  20.178  0.00  0.00    +0.000 OA
ATOM     16  C   UNL     1      -1.946  13.235  19.999  0.00  0.00    +0.000 C 
ENDBRANCH  12  15
BRANCH  13  17
ATOM     17  O   UNL     1       0.389  11.255  21.772  0.00  0.00    +0.000 OA
BRANCH  17  18
ATOM     18  C   UNL     1      -0.548  10.853  22.768  0.00  0.00    +0.000 C 
ATOM     19  C   UNL     1      -0.201   9.436  23.184  0.00  0.00    +0.000 C 
ENDBRANCH  17  18
ENDBRANCH  13  17
ENDBRANCH   5   9
BRANCH   1  21
ATOM     20  C   UNL     1       1.357   2.800  21.050  0.00  0.00    +0.000 C 
ATOM     21  C   UNL     1       2.163   4.027  21.440  0.00  0.00    +0.000 C 
ENDBRANCH   1  21
BRANCH   8  22
ATOM     22  C   UNL     1       5.101   4.745  18.336  0.00  0.00    +0.000 C 
ATOM     23  C   UNL     1       6.411   5.218  18.955  0.00  0.00    +0.000 C 
ENDBRANCH   8  22
TORSDOF 6
ENDMDL
MODEL 7
REMARK VINA RESULT:      -6.3      3.225      7.543
REMARK  Name = 
REMARK  10 active torsions:
REMARK  status: ('A' for Active; 'I' for Inactive)
REMARK    1  A    between atoms: C_1  and  C_2
REMARK    2  A    between atoms: C_2  and  N_3
REMARK    3  A    between atoms: C_7  and  C_8
REMARK    4  A    between atoms: C_11  and  O_12
REMARK    5  A    between atoms: O_12  and  C_13
REMARK    6  A    between atoms: C_14  and  O_15
REMARK    7  A    between atoms: O_15  and  C_16
REMARK    8  A    between atoms: C_16  and  C_17
REMARK    9  A    between atoms: N_21  and  C_22
REMARK   10  A    between atoms: C_22  and  C_23
REMARK                            x       y       z     vdW  Elec       q    Type
REMARK                         _______ _______ _______ _____ _____    ______ ____
ROOT
ATOM      1  N   UNL     1       5.209   3.457  18.630  0.00  0.00    +0.000 NA
ATOM      2  C   UNL     1       4.786   4.602  18.230  0.00  0.00    +0.000 C 
ATOM      3  S   UNL     1       3.491   5.548  18.931  0.00  0.00    +0.000 S 
ATOM      4  C   UNL     1       3.672   6.810  17.782  0.00  0.00    +0.000 C 
ATOM      5  C   UNL     1       3.016   7.978  17.733  0.00  0.00    +0.000 C 
ATOM      6  C   UNL     1       4.755   6.472  16.819  0.00  0.00    +0.000 C 
ATOM      7  O   UNL     1       5.092   7.198  15.891  0.00  0.00    +0.000 OA
ATOM      8  N   UNL     1       5.320   5.255  17.146  0.00  0.00    +0.000 N 
ENDROOT
BRANCH   5   9
ATOM      9  C   UNL     1       2.058   8.452  18.738  0.00  0.00    +0.000 A 
ATOM     10  C   UNL     1       1.982   7.885  20.006  0.00  0.00    +0.000 A 
ATOM     11  C   UNL     1       1.050   8.375  20.923  0.00  0.00    +0.000 A 
ATOM     12  C   UNL     1       0.183   9.431  20.594  0.00  0.00    +0.000 A 
ATOM     13  C   UNL     1       0.252  10.004  19.312  0.00  0.00    +0.000 A 
ATOM     14  C   UNL     1       1.195   9.504  18.399  0.00  0.00    +0.000 A 
BRANCH  12  15
ATOM     15  O   UNL     1      -0.649   9.762  21.634  0.00  0.00    +0.000 OA
ATOM     16  C   UNL     1      -0.154   9.688  22.962  0.00  0.00    +0.000 C 
ENDBRANCH  12  15
BRANCH  13  17
ATOM     17  O   UNL     1      -0.608  11.023  19.005  0.00  0.00    +0.000 OA
BRANCH  17  18
ATOM     18  C   UNL     1      -1.343  10.958  17.785  0.00  0.00    +0.000 C 
ATOM     19  C   UNL     1      -2.395   9.874  17.936  0.00  0.00    +0.000 C 
ENDBRANCH  17  18
ENDBRANCH  13  17
ENDBRANCH   5   9
BRANCH   1  21
ATOM     20  C   UNL     1       3.547   1.821  19.269  0.00  0.00    +0.000 C 
ATOM     21  C   UNL     1       4.567   2.823  19.781  0.00  0.00    +0.000 C 
ENDBRANCH   1  21
BRANCH   8  22
ATOM     22  C   UNL     1       6.413   4.714  16.346  0.00  0.00    +0.000 C 
ATOM     23  C   UNL     1       5.933   3.923  15.135  0.00  0.00    +0.000 C 
ENDBRANCH   8  22
TORSDOF 6
ENDMDL
MODEL 8
REMARK VINA RESULT:      -6.3      3.030      7.539
REMARK  Name = 
REMARK  10 active torsions:
REMARK  status: ('A' for Active; 'I' for Inactive)
REMARK    1  A    between atoms: C_1  and  C_2
REMARK    2  A    between atoms: C_2  and  N_3
REMARK    3  A    between atoms: C_7  and  C_8
REMARK    4  A    between atoms: C_11  and  O_12
REMARK    5  A    between atoms: O_12  and  C_13
REMARK    6  A    between atoms: C_14  and  O_15
REMARK    7  A    between atoms: O_15  and  C_16
REMARK    8  A    between atoms: C_16  and  C_17
REMARK    9  A    between atoms: N_21  and  C_22
REMARK   10  A    between atoms: C_22  and  C_23
REMARK                            x       y       z     vdW  Elec       q    Type
REMARK                         _______ _______ _______ _____ _____    ______ ____
ROOT
ATOM      1  N   UNL     1       4.176   3.073  18.687  0.00  0.00    +0.000 NA
ATOM      2  C   UNL     1       3.976   4.296  18.352  0.00  0.00    +0.000 C 
ATOM      3  S   UNL     1       2.804   5.398  19.042  0.00  0.00    +0.000 S 
ATOM      4  C   UNL     1       3.273   6.685  18.007  0.00  0.00    +0.000 C 
ATOM      5  C   UNL     1       2.821   7.947  18.008  0.00  0.00    +0.000 C 
ATOM      6  C   UNL     1       4.356   6.235  17.091  0.00  0.00    +0.000 C 
ATOM      7  O   UNL     1       4.875   6.954  16.245  0.00  0.00    +0.000 OA
ATOM      8  N   UNL     1       4.689   4.921  17.357  0.00  0.00    +0.000 N 
ENDROOT
BRANCH   5   9
ATOM      9  C   UNL     1       1.881   8.507  18.985  0.00  0.00    +0.000 A 
ATOM     10  C   UNL     1       1.794   8.021  20.284  0.00  0.00    +0.000 A 
ATOM     11  C   UNL     1       0.880   8.591  21.173  0.00  0.00    +0.000 A 
ATOM     12  C   UNL     1       0.041   9.649  20.782  0.00  0.00    +0.000 A 
ATOM     13  C   UNL     1       0.120  10.141  19.468  0.00  0.00    +0.000 A 
ATOM     14  C   UNL     1       1.046   9.561  18.584  0.00  0.00    +0.000 A 
BRANCH  12  15
ATOM     15  O   UNL     1      -0.777  10.065  21.802  0.00  0.00    +0.000 OA
ATOM     16  C   UNL     1      -0.369   9.849  23.144  0.00  0.00    +0.000 C 
ENDBRANCH  12  15
BRANCH  13  17
ATOM     17  O   UNL     1      -0.712  11.164  19.101  0.00  0.00    +0.000 OA
BRANCH  17  18
ATOM     18  C   UNL     1      -0.148  12.334  18.515  0.00  0.00    +0.000 C 
ATOM     19  C   UNL     1      -0.196  13.440  19.553  0.00  0.00    +0.000 C 
ENDBRANCH  17  18
ENDBRANCH  13  17
ENDBRANCH   5   9
BRANCH   1  21
ATOM     20  C   UNL     1       2.123   1.866  19.103  0.00  0.00    +0.000 C 
ATOM     21  C   UNL     1       3.355   2.481  19.743  0.00  0.00    +0.000 C 
ENDBRANCH   1  21
BRANCH   8  22
ATOM     22  C   UNL     1       5.736   4.259  16.588  0.00  0.00    +0.000 C 
ATOM     23  C   UNL     1       7.133   4.502  17.146  0.00  0.00    +0.000 C 
ENDBRANCH   8  22
TORSDOF 6
ENDMDL
MODEL 9
REMARK VINA RESULT:      -6.3      3.029      7.657
REMARK  Name = 
REMARK  10 active torsions:
REMARK  status: ('A' for Active; 'I' for Inactive)
REMARK    1  A    between atoms: C_1  and  C_2
REMARK    2  A    between atoms: C_2  and  N_3
REMARK    3  A    between atoms: C_7  and  C_8
REMARK    4  A    between atoms: C_11  and  O_12
REMARK    5  A    between atoms: O_12  and  C_13
REMARK    6  A    between atoms: C_14  and  O_15
REMARK    7  A    between atoms: O_15  and  C_16
REMARK    8  A    between atoms: C_16  and  C_17
REMARK    9  A    between atoms: N_21  and  C_22
REMARK   10  A    between atoms: C_22  and  C_23
REMARK                            x       y       z     vdW  Elec       q    Type
REMARK                         _______ _______ _______ _____ _____    ______ ____
ROOT
ATOM      1  N   UNL     1       3.224   3.354  19.194  0.00  0.00    +0.000 NA
ATOM      2  C   UNL     1       3.277   4.566  18.777  0.00  0.00    +0.000 C 
ATOM      3  S   UNL     1       2.115   5.838  19.091  0.00  0.00    +0.000 S 
ATOM      4  C   UNL     1       2.999   6.992  18.177  0.00  0.00    +0.000 C 
ATOM      5  C   UNL     1       2.728   8.295  18.015  0.00  0.00    +0.000 C 
ATOM      6  C   UNL     1       4.217   6.361  17.599  0.00  0.00    +0.000 C 
ATOM      7  O   UNL     1       5.026   6.958  16.899  0.00  0.00    +0.000 OA
ATOM      8  N   UNL     1       4.298   5.038  17.989  0.00  0.00    +0.000 N 
ENDROOT
BRANCH   5   9
ATOM      9  C   UNL     1       1.644   9.022  18.685  0.00  0.00    +0.000 A 
ATOM     10  C   UNL     1       1.566   9.111  20.071  0.00  0.00    +0.000 A 
ATOM     11  C   UNL     1       0.512   9.816  20.656  0.00  0.00    +0.000 A 
ATOM     12  C   UNL     1      -0.476  10.439  19.875  0.00  0.00    +0.000 A 
ATOM     13  C   UNL     1      -0.404  10.348  18.474  0.00  0.00    +0.000 A 
ATOM     14  C   UNL     1       0.662   9.639  17.897  0.00  0.00    +0.000 A 
BRANCH  12  15
ATOM     15  O   UNL     1      -1.416  11.079  20.643  0.00  0.00    +0.000 OA
ATOM     16  C   UNL     1      -1.009  11.709  21.848  0.00  0.00    +0.000 C 
ENDBRANCH  12  15
BRANCH  13  17
ATOM     17  O   UNL     1      -1.382  10.951  17.729  0.00  0.00    +0.000 OA
BRANCH  17  18
ATOM     18  C   UNL     1      -2.228  10.139  16.918  0.00  0.00    +0.000 C 
ATOM     19  C   UNL     1      -3.597  10.101  17.572  0.00  0.00    +0.000 C 
ENDBRANCH  17  18
ENDBRANCH  13  17
ENDBRANCH   5   9
BRANCH   1  21
ATOM     20  C   UNL     1       2.560   2.775  21.446  0.00  0.00    +0.000 C 
ATOM     21  C   UNL     1       2.087   2.930  20.011  0.00  0.00    +0.000 C 
ENDBRANCH   1  21
BRANCH   8  22
ATOM     22  C   UNL     1       5.416   4.211  17.549  0.00  0.00    +0.000 C 
ATOM     23  C   UNL     1       5.297   3.767  16.096  0.00  0.00    +0.000 C 
ENDBRANCH   8  22
TORSDOF 6
ENDMDL
