MODEL 1
REMARK VINA RESULT:      -8.5      0.000      0.000
REMARK  Name = 
REMARK  14 active torsions:
REMARK  status: ('A' for Active; 'I' for Inactive)
REMARK    1  A    between atoms: C_1  and  C_2
REMARK    2  A    between atoms: C_2  and  C_3
REMARK    3  A    between atoms: C_2  and  N_4
REMARK    4  A    between atoms: N_4  and  C_5
REMARK    5  A    between atoms: N_4  and  C_32
REMARK    6  A    between atoms: C_5  and  C_6
REMARK    7  A    between atoms: C_6  and  O_7
REMARK    8  A    between atoms: O_7  and  C_8
REMARK    9  A    between atoms: C_11  and  C_12
REMARK   10  A    between atoms: C_12  and  C_13
REMARK   11  A    between atoms: N_22  and  C_23
REMARK   12  A    between atoms: C_23  and  C_24
REMARK   13  A    between atoms: C_32  and  C_33
REMARK   14  A    between atoms: C_32  and  C_34
REMARK                            x       y       z     vdW  Elec       q    Type
REMARK                         _______ _______ _______ _____ _____    ______ ____
ROOT
ATOM      1  C   UNL     1       3.584   5.928  19.495  0.00  0.00    +0.000 C 
ENDROOT
BRANCH   1   2
ATOM      2  C   UNL     1       4.615   5.752  18.365  0.00  0.00    +0.000 C 
ATOM      3  C   UNL     1       6.076   5.603  18.828  0.00  0.00    +0.000 C 
ATOM      4  O   UNL     1       7.013   5.509  17.740  0.00  0.00    +0.000 OA
ATOM      5  C   UNL     1       6.505   5.000  16.571  0.00  0.00    +0.000 A 
ATOM      6  C   UNL     1       7.390   4.928  15.495  0.00  0.00    +0.000 A 
ATOM      7  C   UNL     1       6.950   4.469  14.252  0.00  0.00    +0.000 A 
ATOM      8  C   UNL     1       5.623   4.077  14.082  0.00  0.00    +0.000 A 
ATOM      9  C   UNL     1       4.740   4.122  15.161  0.00  0.00    +0.000 A 
ATOM     10  C   UNL     1       5.171   4.580  16.412  0.00  0.00    +0.000 A 
ATOM     11  N   UNL     1       4.239   4.602  17.492  0.00  0.00    +0.000 N 
BRANCH  11  12
ATOM     12  C   UNL     1       4.190   3.255  18.116  0.00  0.00    +0.000 C 
BRANCH  12  13
ATOM     13  C   UNL     1       3.077   3.105  19.135  0.00  0.00    +0.000 A 
ATOM     14  C   UNL     1       1.728   3.349  18.841  0.00  0.00    +0.000 A 
ATOM     15  C   UNL     1       0.755   3.260  19.841  0.00  0.00    +0.000 A 
ATOM     16  C   UNL     1       1.113   2.913  21.141  0.00  0.00    +0.000 A 
ATOM     17  C   UNL     1       2.444   2.633  21.442  0.00  0.00    +0.000 A 
ATOM     18  C   UNL     1       3.418   2.723  20.445  0.00  0.00    +0.000 A 
ENDBRANCH  12  13
ENDBRANCH  11  12
ENDBRANCH   1   2
BRANCH   1  22
ATOM     19  C   UNL     1       0.954   9.357  19.276  0.00  0.00    +0.000 A 
ATOM     20  C   UNL     1       1.735   9.013  18.173  0.00  0.00    +0.000 A 
ATOM     21  C   UNL     1       2.591   7.906  18.228  0.00  0.00    +0.000 A 
ATOM     22  C   UNL     1       2.699   7.148  19.400  0.00  0.00    +0.000 A 
ATOM     23  C   UNL     1       1.926   7.507  20.507  0.00  0.00    +0.000 A 
ATOM     24  C   UNL     1       1.067   8.604  20.447  0.00  0.00    +0.000 A 
BRANCH  19  25
ATOM     25  O   UNL     1       0.135  10.451  19.132  0.00  0.00    +0.000 OA
BRANCH  25  26
ATOM     26  C   UNL     1       0.762  11.696  19.468  0.00  0.00    +0.000 C 
BRANCH  26  27
ATOM     27  C   UNL     1      -0.169  12.576  20.327  0.00  0.00    +0.000 C 
BRANCH  27  28
ATOM     28  N   UNL     1      -1.473  11.941  20.713  0.00  0.00    +0.000 NA
BRANCH  28  30
ATOM     29  C   UNL     1      -3.038  11.725  18.744  0.00  0.00    +0.000 C 
ATOM     30  C   UNL     1      -2.617  12.569  19.971  0.00  0.00    +0.000 C 
ATOM     31  C   UNL     1      -3.906  12.797  20.776  0.00  0.00    +0.000 C 
ENDBRANCH  28  30
BRANCH  28  32
ATOM     32  C   UNL     1      -1.605  11.858  22.206  0.00  0.00    +0.000 C 
ATOM     33  C   UNL     1      -0.923  10.654  22.877  0.00  0.00    +0.000 C 
ATOM     34  C   UNL     1      -1.007  13.101  22.914  0.00  0.00    +0.000 C 
ENDBRANCH  28  32
ENDBRANCH  27  28
ENDBRANCH  26  27
ENDBRANCH  25  26
ENDBRANCH  19  25
ENDBRANCH   1  22
TORSDOF 10
ENDMDL
MODEL 2
REMARK VINA RESULT:      -8.3      0.463      1.067
REMARK  Name = 
REMARK  14 active torsions:
REMARK  status: ('A' for Active; 'I' for Inactive)
REMARK    1  A    between atoms: C_1  and  C_2
REMARK    2  A    between atoms: C_2  and  C_3
REMARK    3  A    between atoms: C_2  and  N_4
REMARK    4  A    between atoms: N_4  and  C_5
REMARK    5  A    between atoms: N_4  and  C_32
REMARK    6  A    between atoms: C_5  and  C_6
REMARK    7  A    between atoms: C_6  and  O_7
REMARK    8  A    between atoms: O_7  and  C_8
REMARK    9  A    between atoms: C_11  and  C_12
REMARK   10  A    between atoms: C_12  and  C_13
REMARK   11  A    between atoms: N_22  and  C_23
REMARK   12  A    between atoms: C_23  and  C_24
REMARK   13  A    between atoms: C_32  and  C_33
REMARK   14  A    between atoms: C_32  and  C_34
REMARK                            x       y       z     vdW  Elec       q    Type
REMARK                         _______ _______ _______ _____ _____    ______ ____
ROOT
ATOM      1  C   UNL     1       3.332   5.877  19.370  0.00  0.00    +0.000 C 
ENDROOT
BRANCH   1   2
ATOM      2  C   UNL     1       4.434   5.756  18.300  0.00  0.00    +0.000 C 
ATOM      3  C   UNL     1       5.870   5.665  18.848  0.00  0.00    +0.000 C 
ATOM      4  O   UNL     1       6.872   5.622  17.815  0.00  0.00    +0.000 OA
ATOM      5  C   UNL     1       6.455   5.104  16.615  0.00  0.00    +0.000 A 
ATOM      6  C   UNL     1       7.404   5.081  15.593  0.00  0.00    +0.000 A 
ATOM      7  C   UNL     1       7.058   4.616  14.322  0.00  0.00    +0.000 A 
ATOM      8  C   UNL     1       5.761   4.170  14.071  0.00  0.00    +0.000 A 
ATOM      9  C   UNL     1       4.816   4.166  15.097  0.00  0.00    +0.000 A 
ATOM     10  C   UNL     1       5.153   4.630  16.375  0.00  0.00    +0.000 A 
ATOM     11  N   UNL     1       4.159   4.601  17.397  0.00  0.00    +0.000 N 
BRANCH  11  12
ATOM     12  C   UNL     1       4.131   3.247  18.007  0.00  0.00    +0.000 C 
BRANCH  12  13
ATOM     13  C   UNL     1       3.035   3.076  19.041  0.00  0.00    +0.000 A 
ATOM     14  C   UNL     1       1.670   3.168  18.737  0.00  0.00    +0.000 A 
ATOM     15  C   UNL     1       0.708   3.069  19.747  0.00  0.00    +0.000 A 
ATOM     16  C   UNL     1       1.095   2.863  21.068  0.00  0.00    +0.000 A 
ATOM     17  C   UNL     1       2.446   2.733  21.382  0.00  0.00    +0.000 A 
ATOM     18  C   UNL     1       3.408   2.834  20.376  0.00  0.00    +0.000 A 
ENDBRANCH  12  13
ENDBRANCH  11  12
ENDBRANCH   1   2
BRANCH   1  22
ATOM     19  C   UNL     1       1.087   9.573  19.219  0.00  0.00    +0.000 A 
ATOM     20  C   UNL     1       1.101   8.820  20.392  0.00  0.00    +0.000 A 
ATOM     21  C   UNL     1       1.822   7.623  20.458  0.00  0.00    +0.000 A 
ATOM     22  C   UNL     1       2.514   7.146  19.337  0.00  0.00    +0.000 A 
ATOM     23  C   UNL     1       2.484   7.897  18.159  0.00  0.00    +0.000 A 
ATOM     24  C   UNL     1       1.772   9.095  18.099  0.00  0.00    +0.000 A 
BRANCH  19  25
ATOM     25  O   UNL     1       0.362  10.740  19.246  0.00  0.00    +0.000 OA
BRANCH  25  26
ATOM     26  C   UNL     1       1.059  11.847  19.834  0.00  0.00    +0.000 C 
BRANCH  26  27
ATOM     27  C   UNL     1       0.200  12.542  20.909  0.00  0.00    +0.000 C 
BRANCH  27  28
ATOM     28  N   UNL     1      -1.231  12.091  20.974  0.00  0.00    +0.000 NA
BRANCH  28  30
ATOM     29  C   UNL     1      -3.598  12.899  20.636  0.00  0.00    +0.000 C 
ATOM     30  C   UNL     1      -2.121  13.012  20.190  0.00  0.00    +0.000 C 
ATOM     31  C   UNL     1      -1.782  14.509  20.263  0.00  0.00    +0.000 C 
ENDBRANCH  28  30
BRANCH  28  32
ATOM     32  C   UNL     1      -1.638  11.808  22.390  0.00  0.00    +0.000 C 
ATOM     33  C   UNL     1      -0.982  10.582  23.048  0.00  0.00    +0.000 C 
ATOM     34  C   UNL     1      -1.313  12.991  23.337  0.00  0.00    +0.000 C 
ENDBRANCH  28  32
ENDBRANCH  27  28
ENDBRANCH  26  27
ENDBRANCH  25  26
ENDBRANCH  19  25
ENDBRANCH   1  22
TORSDOF 10
ENDMDL
MODEL 3
REMARK VINA RESULT:      -8.1      1.279      2.066
REMARK  Name = 
REMARK  14 active torsions:
REMARK  status: ('A' for Active; 'I' for Inactive)
REMARK    1  A    between atoms: C_1  and  C_2
REMARK    2  A    between atoms: C_2  and  C_3
REMARK    3  A    between atoms: C_2  and  N_4
REMARK    4  A    between atoms: N_4  and  C_5
REMARK    5  A    between atoms: N_4  and  C_32
REMARK    6  A    between atoms: C_5  and  C_6
REMARK    7  A    between atoms: C_6  and  O_7
REMARK    8  A    between atoms: O_7  and  C_8
REMARK    9  A    between atoms: C_11  and  C_12
REMARK   10  A    between atoms: C_12  and  C_13
REMARK   11  A    between atoms: N_22  and  C_23
REMARK   12  A    between atoms: C_23  and  C_24
REMARK   13  A    between atoms: C_32  and  C_33
REMARK   14  A    between atoms: C_32  and  C_34
REMARK                            x       y       z     vdW  Elec       q    Type
REMARK                         _______ _______ _______ _____ _____    ______ ____
ROOT
ATOM      1  C   UNL     1       2.866   6.035  18.587  0.00  0.00    +0.000 C 
ENDROOT
BRANCH   1   2
ATOM      2  C   UNL     1       4.046   5.992  17.599  0.00  0.00    +0.000 C 
ATOM      3  C   UNL     1       5.412   6.385  18.193  0.00  0.00    +0.000 C 
ATOM      4  O   UNL     1       6.474   6.396  17.221  0.00  0.00    +0.000 OA
ATOM      5  C   UNL     1       6.296   5.560  16.148  0.00  0.00    +0.000 A 
ATOM      6  C   UNL     1       7.302   5.578  15.180  0.00  0.00    +0.000 A 
ATOM      7  C   UNL     1       7.184   4.796  14.030  0.00  0.00    +0.000 A 
ATOM      8  C   UNL     1       6.062   3.990  13.844  0.00  0.00    +0.000 A 
ATOM      9  C   UNL     1       5.067   3.948  14.821  0.00  0.00    +0.000 A 
ATOM     10  C   UNL     1       5.174   4.728  15.979  0.00  0.00    +0.000 A 
ATOM     11  N   UNL     1       4.139   4.649  16.956  0.00  0.00    +0.000 N 
BRANCH  11  12
ATOM     12  C   UNL     1       4.396   3.482  17.840  0.00  0.00    +0.000 C 
BRANCH  12  13
ATOM     13  C   UNL     1       3.210   3.116  18.711  0.00  0.00    +0.000 A 
ATOM     14  C   UNL     1       1.940   2.821  18.197  0.00  0.00    +0.000 A 
ATOM     15  C   UNL     1       0.869   2.558  19.056  0.00  0.00    +0.000 A 
ATOM     16  C   UNL     1       1.054   2.570  20.435  0.00  0.00    +0.000 A 
ATOM     17  C   UNL     1       2.318   2.826  20.962  0.00  0.00    +0.000 A 
ATOM     18  C   UNL     1       3.388   3.092  20.107  0.00  0.00    +0.000 A 
ENDBRANCH  12  13
ENDBRANCH  11  12
ENDBRANCH   1   2
BRANCH   1  22
ATOM     19  C   UNL     1       1.077   9.888  19.410  0.00  0.00    +0.000 A 
ATOM     20  C   UNL     1       1.528   9.596  18.124  0.00  0.00    +0.000 A 
ATOM     21  C   UNL     1       2.108   8.354  17.840  0.00  0.00    +0.000 A 
ATOM     22  C   UNL     1       2.275   7.399  18.851  0.00  0.00    +0.000 A 
ATOM     23  C   UNL     1       1.836   7.704  20.143  0.00  0.00    +0.000 A 
ATOM     24  C   UNL     1       1.249   8.938  20.420  0.00  0.00    +0.000 A 
BRANCH  19  25
ATOM     25  O   UNL     1       0.511  11.126  19.598  0.00  0.00    +0.000 OA
BRANCH  25  26
ATOM     26  C   UNL     1       0.354  11.884  18.390  0.00  0.00    +0.000 C 
BRANCH  26  27
ATOM     27  C   UNL     1      -0.869  12.819  18.472  0.00  0.00    +0.000 C 
BRANCH  27  28
ATOM     28  N   UNL     1      -2.185  12.182  18.130  0.00  0.00    +0.000 NA
BRANCH  28  30
ATOM     29  C   UNL     1      -2.574  12.927  20.511  0.00  0.00    +0.000 C 
ATOM     30  C   UNL     1      -3.027  11.996  19.360  0.00  0.00    +0.000 C 
ATOM     31  C   UNL     1      -4.534  12.247  19.196  0.00  0.00    +0.000 C 
ENDBRANCH  28  30
BRANCH  28  32
ATOM     32  C   UNL     1      -1.985  10.974  17.264  0.00  0.00    +0.000 C 
ATOM     33  C   UNL     1      -2.454   9.634  17.858  0.00  0.00    +0.000 C 
ATOM     34  C   UNL     1      -2.734  11.095  15.912  0.00  0.00    +0.000 C 
ENDBRANCH  28  32
ENDBRANCH  27  28
ENDBRANCH  26  27
ENDBRANCH  25  26
ENDBRANCH  19  25
ENDBRANCH   1  22
TORSDOF 10
ENDMDL
MODEL 4
REMARK VINA RESULT:      -8.1      0.857      1.184
REMARK  Name = 
REMARK  14 active torsions:
REMARK  status: ('A' for Active; 'I' for Inactive)
REMARK    1  A    between atoms: C_1  and  C_2
REMARK    2  A    between atoms: C_2  and  C_3
REMARK    3  A    between atoms: C_2  and  N_4
REMARK    4  A    between atoms: N_4  and  C_5
REMARK    5  A    between atoms: N_4  and  C_32
REMARK    6  A    between atoms: C_5  and  C_6
REMARK    7  A    between atoms: C_6  and  O_7
REMARK    8  A    between atoms: O_7  and  C_8
REMARK    9  A    between atoms: C_11  and  C_12
REMARK   10  A    between atoms: C_12  and  C_13
REMARK   11  A    between atoms: N_22  and  C_23
REMARK   12  A    between atoms: C_23  and  C_24
REMARK   13  A    between atoms: C_32  and  C_33
REMARK   14  A    between atoms: C_32  and  C_34
REMARK                            x       y       z     vdW  Elec       q    Type
REMARK                         _______ _______ _______ _____ _____    ______ ____
ROOT
ATOM      1  C   UNL     1       3.527   5.798  19.696  0.00  0.00    +0.000 C 
ENDROOT
BRANCH   1   2
ATOM      2  C   UNL     1       4.547   5.694  18.546  0.00  0.00    +0.000 C 
ATOM      3  C   UNL     1       6.015   5.541  18.985  0.00  0.00    +0.000 C 
ATOM      4  O   UNL     1       6.940   5.516  17.882  0.00  0.00    +0.000 OA
ATOM      5  C   UNL     1       6.424   5.060  16.695  0.00  0.00    +0.000 A 
ATOM      6  C   UNL     1       7.297   5.055  15.607  0.00  0.00    +0.000 A 
ATOM      7  C   UNL     1       6.848   4.654  14.347  0.00  0.00    +0.000 A 
ATOM      8  C   UNL     1       5.524   4.253  14.172  0.00  0.00    +0.000 A 
ATOM      9  C   UNL     1       4.654   4.231  15.262  0.00  0.00    +0.000 A 
ATOM     10  C   UNL     1       5.094   4.631  16.530  0.00  0.00    +0.000 A 
ATOM     11  N   UNL     1       4.175   4.585  17.620  0.00  0.00    +0.000 N 
BRANCH  11  12
ATOM     12  C   UNL     1       4.151   3.208  18.174  0.00  0.00    +0.000 C 
BRANCH  12  13
ATOM     13  C   UNL     1       3.065   2.997  19.212  0.00  0.00    +0.000 A 
ATOM     14  C   UNL     1       1.701   3.187  18.948  0.00  0.00    +0.000 A 
ATOM     15  C   UNL     1       0.753   3.044  19.965  0.00  0.00    +0.000 A 
ATOM     16  C   UNL     1       1.151   2.695  21.253  0.00  0.00    +0.000 A 
ATOM     17  C   UNL     1       2.498   2.467  21.524  0.00  0.00    +0.000 A 
ATOM     18  C   UNL     1       3.447   2.612  20.510  0.00  0.00    +0.000 A 
ENDBRANCH  12  13
ENDBRANCH  11  12
ENDBRANCH   1   2
BRANCH   1  22
ATOM     19  C   UNL     1       0.855   9.201  19.681  0.00  0.00    +0.000 A 
ATOM     20  C   UNL     1       1.668   8.956  18.576  0.00  0.00    +0.000 A 
ATOM     21  C   UNL     1       2.538   7.859  18.564  0.00  0.00    +0.000 A 
ATOM     22  C   UNL     1       2.628   7.011  19.675  0.00  0.00    +0.000 A 
ATOM     23  C   UNL     1       1.822   7.271  20.786  0.00  0.00    +0.000 A 
ATOM     24  C   UNL     1       0.949   8.359  20.791  0.00  0.00    +0.000 A 
BRANCH  19  25
ATOM     25  O   UNL     1       0.025  10.294  19.604  0.00  0.00    +0.000 OA
BRANCH  25  26
ATOM     26  C   UNL     1       0.009  10.924  18.315  0.00  0.00    +0.000 C 
BRANCH  26  27
ATOM     27  C   UNL     1      -1.043  12.050  18.257  0.00  0.00    +0.000 C 
BRANCH  27  28
ATOM     28  N   UNL     1      -2.277  11.816  19.080  0.00  0.00    +0.000 NA
BRANCH  28  30
ATOM     29  C   UNL     1      -3.605  10.189  17.680  0.00  0.00    +0.000 C 
ATOM     30  C   UNL     1      -3.482  11.641  18.203  0.00  0.00    +0.000 C 
ATOM     31  C   UNL     1      -4.841  11.964  18.842  0.00  0.00    +0.000 C 
ENDBRANCH  28  30
BRANCH  28  32
ATOM     32  C   UNL     1      -2.387  12.834  20.177  0.00  0.00    +0.000 C 
ATOM     33  C   UNL     1      -2.202  12.304  21.609  0.00  0.00    +0.000 C 
ATOM     34  C   UNL     1      -1.336  13.965  20.031  0.00  0.00    +0.000 C 
ENDBRANCH  28  32
ENDBRANCH  27  28
ENDBRANCH  26  27
ENDBRANCH  25  26
ENDBRANCH  19  25
ENDBRANCH   1  22
TORSDOF 10
ENDMDL
MODEL 5
REMARK VINA RESULT:      -8.0      0.976      1.785
REMARK  Name = 
REMARK  14 active torsions:
REMARK  status: ('A' for Active; 'I' for Inactive)
REMARK    1  A    between atoms: C_1  and  C_2
REMARK    2  A    between atoms: C_2  and  C_3
REMARK    3  A    between atoms: C_2  and  N_4
REMARK    4  A    between atoms: N_4  and  C_5
REMARK    5  A    between atoms: N_4  and  C_32
REMARK    6  A    between atoms: C_5  and  C_6
REMARK    7  A    between atoms: C_6  and  O_7
REMARK    8  A    between atoms: O_7  and  C_8
REMARK    9  A    between atoms: C_11  and  C_12
REMARK   10  A    between atoms: C_12  and  C_13
REMARK   11  A    between atoms: N_22  and  C_23
REMARK   12  A    between atoms: C_23  and  C_24
REMARK   13  A    between atoms: C_32  and  C_33
REMARK   14  A    between atoms: C_32  and  C_34
REMARK                            x       y       z     vdW  Elec       q    Type
REMARK                         _______ _______ _______ _____ _____    ______ ____
ROOT
ATOM      1  C   UNL     1       3.341   5.988  19.347  0.00  0.00    +0.000 C 
ENDROOT
BRANCH   1   2
ATOM      2  C   UNL     1       4.413   5.847  18.251  0.00  0.00    +0.000 C 
ATOM      3  C   UNL     1       5.869   5.845  18.755  0.00  0.00    +0.000 C 
ATOM      4  O   UNL     1       6.840   5.780  17.694  0.00  0.00    +0.000 OA
ATOM      5  C   UNL     1       6.408   5.175  16.541  0.00  0.00    +0.000 A 
ATOM      6  C   UNL     1       7.325   5.128  15.491  0.00  0.00    +0.000 A 
ATOM      7  C   UNL     1       6.959   4.574  14.262  0.00  0.00    +0.000 A 
ATOM      8  C   UNL     1       5.675   4.063  14.081  0.00  0.00    +0.000 A 
ATOM      9  C   UNL     1       4.762   4.084  15.136  0.00  0.00    +0.000 A 
ATOM     10  C   UNL     1       5.119   4.636  16.372  0.00  0.00    +0.000 A 
ATOM     11  N   UNL     1       4.159   4.630  17.427  0.00  0.00    +0.000 N 
BRANCH  11  12
ATOM     12  C   UNL     1       4.206   3.314  18.116  0.00  0.00    +0.000 C 
BRANCH  12  13
ATOM     13  C   UNL     1       3.064   3.106  19.092  0.00  0.00    +0.000 A 
ATOM     14  C   UNL     1       1.714   3.227  18.734  0.00  0.00    +0.000 A 
ATOM     15  C   UNL     1       0.709   3.091  19.696  0.00  0.00    +0.000 A 
ATOM     16  C   UNL     1       1.036   2.819  21.021  0.00  0.00    +0.000 A 
ATOM     17  C   UNL     1       2.370   2.659  21.387  0.00  0.00    +0.000 A 
ATOM     18  C   UNL     1       3.377   2.798  20.429  0.00  0.00    +0.000 A 
ENDBRANCH  12  13
ENDBRANCH  11  12
ENDBRANCH   1   2
BRANCH   1  22
ATOM     19  C   UNL     1       0.979   9.605  19.089  0.00  0.00    +0.000 A 
ATOM     20  C   UNL     1       1.033   8.898  20.289  0.00  0.00    +0.000 A 
ATOM     21  C   UNL     1       1.792   7.727  20.390  0.00  0.00    +0.000 A 
ATOM     22  C   UNL     1       2.484   7.229  19.278  0.00  0.00    +0.000 A 
ATOM     23  C   UNL     1       2.413   7.933  18.073  0.00  0.00    +0.000 A 
ATOM     24  C   UNL     1       1.664   9.105  17.978  0.00  0.00    +0.000 A 
BRANCH  19  25
ATOM     25  O   UNL     1       0.218  10.749  19.081  0.00  0.00    +0.000 OA
BRANCH  25  26
ATOM     26  C   UNL     1      -0.359  11.073  20.354  0.00  0.00    +0.000 C 
BRANCH  26  27
ATOM     27  C   UNL     1      -0.022  12.519  20.769  0.00  0.00    +0.000 C 
BRANCH  27  28
ATOM     28  N   UNL     1      -1.197  13.358  21.179  0.00  0.00    +0.000 NA
BRANCH  28  30
ATOM     29  C   UNL     1      -2.754  12.348  22.890  0.00  0.00    +0.000 C 
ATOM     30  C   UNL     1      -2.417  12.508  21.388  0.00  0.00    +0.000 C 
ATOM     31  C   UNL     1      -3.712  13.002  20.726  0.00  0.00    +0.000 C 
ENDBRANCH  28  30
BRANCH  28  32
ATOM     32  C   UNL     1      -1.352  14.542  20.270  0.00  0.00    +0.000 C 
ATOM     33  C   UNL     1      -1.278  15.923  20.944  0.00  0.00    +0.000 C 
ATOM     34  C   UNL     1      -0.261  14.577  19.168  0.00  0.00    +0.000 C 
ENDBRANCH  28  32
ENDBRANCH  27  28
ENDBRANCH  26  27
ENDBRANCH  25  26
ENDBRANCH  19  25
ENDBRANCH   1  22
TORSDOF 10
ENDMDL
MODEL 6
REMARK VINA RESULT:      -8.0      1.407      2.141
REMARK  Name = 
REMARK  14 active torsions:
REMARK  status: ('A' for Active; 'I' for Inactive)
REMARK    1  A    between atoms: C_1  and  C_2
REMARK    2  A    between atoms: C_2  and  C_3
REMARK    3  A    between atoms: C_2  and  N_4
REMARK    4  A    between atoms: N_4  and  C_5
REMARK    5  A    between atoms: N_4  and  C_32
REMARK    6  A    between atoms: C_5  and  C_6
REMARK    7  A    between atoms: C_6  and  O_7
REMARK    8  A    between atoms: O_7  and  C_8
REMARK    9  A    between atoms: C_11  and  C_12
REMARK   10  A    between atoms: C_12  and  C_13
REMARK   11  A    between atoms: N_22  and  C_23
REMARK   12  A    between atoms: C_23  and  C_24
REMARK   13  A    between atoms: C_32  and  C_33
REMARK   14  A    between atoms: C_32  and  C_34
REMARK                            x       y       z     vdW  Elec       q    Type
REMARK                         _______ _______ _______ _____ _____    ______ ____
ROOT
ATOM      1  C   UNL     1       3.391   5.990  19.244  0.00  0.00    +0.000 C 
ENDROOT
BRANCH   1   2
ATOM      2  C   UNL     1       4.453   5.841  18.139  0.00  0.00    +0.000 C 
ATOM      3  C   UNL     1       5.913   5.857  18.627  0.00  0.00    +0.000 C 
ATOM      4  O   UNL     1       6.873   5.784  17.557  0.00  0.00    +0.000 OA
ATOM      5  C   UNL     1       6.433   5.160  16.417  0.00  0.00    +0.000 A 
ATOM      6  C   UNL     1       7.340   5.105  15.357  0.00  0.00    +0.000 A 
ATOM      7  C   UNL     1       6.965   4.531  14.140  0.00  0.00    +0.000 A 
ATOM      8  C   UNL     1       5.682   4.008  13.980  0.00  0.00    +0.000 A 
ATOM      9  C   UNL     1       4.781   4.037  15.045  0.00  0.00    +0.000 A 
ATOM     10  C   UNL     1       5.147   4.609  16.269  0.00  0.00    +0.000 A 
ATOM     11  N   UNL     1       4.199   4.611  17.335  0.00  0.00    +0.000 N 
BRANCH  11  12
ATOM     12  C   UNL     1       4.263   3.305  18.041  0.00  0.00    +0.000 C 
BRANCH  12  13
ATOM     13  C   UNL     1       3.134   3.103  19.034  0.00  0.00    +0.000 A 
ATOM     14  C   UNL     1       1.779   3.191  18.686  0.00  0.00    +0.000 A 
ATOM     15  C   UNL     1       0.785   3.063  19.660  0.00  0.00    +0.000 A 
ATOM     16  C   UNL     1       1.128   2.831  20.989  0.00  0.00    +0.000 A 
ATOM     17  C   UNL     1       2.469   2.705  21.346  0.00  0.00    +0.000 A 
ATOM     18  C   UNL     1       3.464   2.835  20.375  0.00  0.00    +0.000 A 
ENDBRANCH  12  13
ENDBRANCH  11  12
ENDBRANCH   1   2
BRANCH   1  22
ATOM     19  C   UNL     1       1.100   9.656  19.053  0.00  0.00    +0.000 A 
ATOM     20  C   UNL     1       1.089   8.894  20.220  0.00  0.00    +0.000 A 
ATOM     21  C   UNL     1       1.825   7.706  20.299  0.00  0.00    +0.000 A 
ATOM     22  C   UNL     1       2.557   7.248  19.196  0.00  0.00    +0.000 A 
ATOM     23  C   UNL     1       2.552   8.008  18.023  0.00  0.00    +0.000 A 
ATOM     24  C   UNL     1       1.825   9.196  17.951  0.00  0.00    +0.000 A 
BRANCH  19  25
ATOM     25  O   UNL     1       0.358  10.812  19.066  0.00  0.00    +0.000 OA
BRANCH  25  26
ATOM     26  C   UNL     1       1.095  11.973  19.475  0.00  0.00    +0.000 C 
BRANCH  26  27
ATOM     27  C   UNL     1       0.683  13.213  18.658  0.00  0.00    +0.000 C 
BRANCH  27  28
ATOM     28  N   UNL     1      -0.185  14.200  19.385  0.00  0.00    +0.000 NA
BRANCH  28  30
ATOM     29  C   UNL     1       1.831  15.581  18.752  0.00  0.00    +0.000 C 
ATOM     30  C   UNL     1       0.375  15.589  19.276  0.00  0.00    +0.000 C 
ATOM     31  C   UNL     1      -0.388  16.560  18.362  0.00  0.00    +0.000 C 
ENDBRANCH  28  30
BRANCH  28  32
ATOM     32  C   UNL     1      -0.507  13.712  20.767  0.00  0.00    +0.000 C 
ATOM     33  C   UNL     1      -0.008  14.591  21.925  0.00  0.00    +0.000 C 
ATOM     34  C   UNL     1      -2.035  13.578  20.996  0.00  0.00    +0.000 C 
ENDBRANCH  28  32
ENDBRANCH  27  28
ENDBRANCH  26  27
ENDBRANCH  25  26
ENDBRANCH  19  25
ENDBRANCH   1  22
TORSDOF 10
ENDMDL
MODEL 7
REMARK VINA RESULT:      -8.0      1.002      1.359
REMARK  Name = 
REMARK  14 active torsions:
REMARK  status: ('A' for Active; 'I' for Inactive)
REMARK    1  A    between atoms: C_1  and  C_2
REMARK    2  A    between atoms: C_2  and  C_3
REMARK    3  A    between atoms: C_2  and  N_4
REMARK    4  A    between atoms: N_4  and  C_5
REMARK    5  A    between atoms: N_4  and  C_32
REMARK    6  A    between atoms: C_5  and  C_6
REMARK    7  A    between atoms: C_6  and  O_7
REMARK    8  A    between atoms: O_7  and  C_8
REMARK    9  A    between atoms: C_11  and  C_12
REMARK   10  A    between atoms: C_12  and  C_13
REMARK   11  A    between atoms: N_22  and  C_23
REMARK   12  A    between atoms: C_23  and  C_24
REMARK   13  A    between atoms: C_32  and  C_33
REMARK   14  A    between atoms: C_32  and  C_34
REMARK                            x       y       z     vdW  Elec       q    Type
REMARK                         _______ _______ _______ _____ _____    ______ ____
ROOT
ATOM      1  C   UNL     1       3.426   5.964  19.249  0.00  0.00    +0.000 C 
ENDROOT
BRANCH   1   2
ATOM      2  C   UNL     1       4.500   5.804  18.157  0.00  0.00    +0.000 C 
ATOM      3  C   UNL     1       5.951   5.730  18.671  0.00  0.00    +0.000 C 
ATOM      4  O   UNL     1       6.926   5.649  17.615  0.00  0.00    +0.000 OA
ATOM      5  C   UNL     1       6.478   5.089  16.445  0.00  0.00    +0.000 A 
ATOM      6  C   UNL     1       7.401   5.028  15.400  0.00  0.00    +0.000 A 
ATOM      7  C   UNL     1       7.022   4.519  14.156  0.00  0.00    +0.000 A 
ATOM      8  C   UNL     1       5.719   4.066  13.954  0.00  0.00    +0.000 A 
ATOM      9  C   UNL     1       4.800   4.100  15.003  0.00  0.00    +0.000 A 
ATOM     10  C   UNL     1       5.170   4.608  16.255  0.00  0.00    +0.000 A 
ATOM     11  N   UNL     1       4.203   4.617  17.303  0.00  0.00    +0.000 N 
BRANCH  11  12
ATOM     12  C   UNL     1       4.189   3.285  17.961  0.00  0.00    +0.000 C 
BRANCH  12  13
ATOM     13  C   UNL     1       3.050   3.114  18.947  0.00  0.00    +0.000 A 
ATOM     14  C   UNL     1       1.701   3.275  18.600  0.00  0.00    +0.000 A 
ATOM     15  C   UNL     1       0.700   3.171  19.570  0.00  0.00    +0.000 A 
ATOM     16  C   UNL     1       1.030   2.890  20.893  0.00  0.00    +0.000 A 
ATOM     17  C   UNL     1       2.362   2.691  21.248  0.00  0.00    +0.000 A 
ATOM     18  C   UNL     1       3.364   2.798  20.281  0.00  0.00    +0.000 A 
ENDBRANCH  12  13
ENDBRANCH  11  12
ENDBRANCH   1   2
BRANCH   1  22
ATOM     19  C   UNL     1       0.967   9.522  19.127  0.00  0.00    +0.000 A 
ATOM     20  C   UNL     1       1.650   9.114  17.982  0.00  0.00    +0.000 A 
ATOM     21  C   UNL     1       2.449   7.965  18.005  0.00  0.00    +0.000 A 
ATOM     22  C   UNL     1       2.601   7.227  19.185  0.00  0.00    +0.000 A 
ATOM     23  C   UNL     1       1.927   7.649  20.334  0.00  0.00    +0.000 A 
ATOM     24  C   UNL     1       1.123   8.789  20.306  0.00  0.00    +0.000 A 
BRANCH  19  25
ATOM     25  O   UNL     1       0.198  10.655  19.014  0.00  0.00    +0.000 OA
BRANCH  25  26
ATOM     26  C   UNL     1      -0.769  10.811  20.062  0.00  0.00    +0.000 C 
BRANCH  26  27
ATOM     27  C   UNL     1      -1.812  11.888  19.705  0.00  0.00    +0.000 C 
BRANCH  27  28
ATOM     28  N   UNL     1      -2.045  12.929  20.762  0.00  0.00    +0.000 NA
BRANCH  28  30
ATOM     29  C   UNL     1      -4.338  12.608  19.757  0.00  0.00    +0.000 C 
ATOM     30  C   UNL     1      -3.509  13.227  20.908  0.00  0.00    +0.000 C 
ATOM     31  C   UNL     1      -4.176  12.742  22.204  0.00  0.00    +0.000 C 
ENDBRANCH  28  30
BRANCH  28  32
ATOM     32  C   UNL     1      -1.137  14.106  20.561  0.00  0.00    +0.000 C 
ATOM     33  C   UNL     1      -0.559  14.278  19.146  0.00  0.00    +0.000 C 
ATOM     34  C   UNL     1      -1.847  15.450  20.869  0.00  0.00    +0.000 C 
ENDBRANCH  28  32
ENDBRANCH  27  28
ENDBRANCH  26  27
ENDBRANCH  25  26
ENDBRANCH  19  25
ENDBRANCH   1  22
TORSDOF 10
ENDMDL
MODEL 8
REMARK VINA RESULT:      -8.0      0.954      1.594
REMARK  Name = 
REMARK  14 active torsions:
REMARK  status: ('A' for Active; 'I' for Inactive)
REMARK    1  A    between atoms: C_1  and  C_2
REMARK    2  A    between atoms: C_2  and  C_3
REMARK    3  A    between atoms: C_2  and  N_4
REMARK    4  A    between atoms: N_4  and  C_5
REMARK    5  A    between atoms: N_4  and  C_32
REMARK    6  A    between atoms: C_5  and  C_6
REMARK    7  A    between atoms: C_6  and  O_7
REMARK    8  A    between atoms: O_7  and  C_8
REMARK    9  A    between atoms: C_11  and  C_12
REMARK   10  A    between atoms: C_12  and  C_13
REMARK   11  A    between atoms: N_22  and  C_23
REMARK   12  A    between atoms: C_23  and  C_24
REMARK   13  A    between atoms: C_32  and  C_33
REMARK   14  A    between atoms: C_32  and  C_34
REMARK                            x       y       z     vdW  Elec       q    Type
REMARK                         _______ _______ _______ _____ _____    ______ ____
ROOT
ATOM      1  C   UNL     1       3.497   5.953  19.280  0.00  0.00    +0.000 C 
ENDROOT
BRANCH   1   2
ATOM      2  C   UNL     1       4.587   5.758  18.209  0.00  0.00    +0.000 C 
ATOM      3  C   UNL     1       6.010   5.539  18.755  0.00  0.00    +0.000 C 
ATOM      4  O   UNL     1       7.007   5.428  17.723  0.00  0.00    +0.000 OA
ATOM      5  C   UNL     1       6.550   4.966  16.514  0.00  0.00    +0.000 A 
ATOM      6  C   UNL     1       7.495   4.879  15.492  0.00  0.00    +0.000 A 
ATOM      7  C   UNL     1       7.113   4.465  14.214  0.00  0.00    +0.000 A 
ATOM      8  C   UNL     1       5.784   4.132  13.956  0.00  0.00    +0.000 A 
ATOM      9  C   UNL     1       4.840   4.192  14.981  0.00  0.00    +0.000 A 
ATOM     10  C   UNL     1       5.212   4.606  16.266  0.00  0.00    +0.000 A 
ATOM     11  N   UNL     1       4.219   4.644  17.288  0.00  0.00    +0.000 N 
BRANCH  11  12
ATOM     12  C   UNL     1       4.077   3.287  17.876  0.00  0.00    +0.000 C 
BRANCH  12  13
ATOM     13  C   UNL     1       3.054   3.221  18.994  0.00  0.00    +0.000 A 
ATOM     14  C   UNL     1       3.387   2.939  20.326  0.00  0.00    +0.000 A 
ATOM     15  C   UNL     1       2.391   2.823  21.300  0.00  0.00    +0.000 A 
ATOM     16  C   UNL     1       1.053   3.002  20.960  0.00  0.00    +0.000 A 
ATOM     17  C   UNL     1       0.707   3.318  19.649  0.00  0.00    +0.000 A 
ATOM     18  C   UNL     1       1.700   3.431  18.674  0.00  0.00    +0.000 A 
ENDBRANCH  12  13
ENDBRANCH  11  12
ENDBRANCH   1   2
BRANCH   1  22
ATOM     19  C   UNL     1       1.005   9.477  18.973  0.00  0.00    +0.000 A 
ATOM     20  C   UNL     1       1.743   9.054  17.868  0.00  0.00    +0.000 A 
ATOM     21  C   UNL     1       2.554   7.916  17.951  0.00  0.00    +0.000 A 
ATOM     22  C   UNL     1       2.661   7.204  19.152  0.00  0.00    +0.000 A 
ATOM     23  C   UNL     1       1.931   7.643  20.260  0.00  0.00    +0.000 A 
ATOM     24  C   UNL     1       1.116   8.771  20.172  0.00  0.00    +0.000 A 
BRANCH  19  25
ATOM     25  O   UNL     1       0.228  10.598  18.801  0.00  0.00    +0.000 OA
BRANCH  25  26
ATOM     26  C   UNL     1      -0.734  10.806  19.844  0.00  0.00    +0.000 C 
BRANCH  26  27
ATOM     27  C   UNL     1      -0.176  11.735  20.941  0.00  0.00    +0.000 C 
BRANCH  27  28
ATOM     28  N   UNL     1      -1.196  12.592  21.633  0.00  0.00    +0.000 NA
BRANCH  28  30
ATOM     29  C   UNL     1      -1.943  14.869  20.839  0.00  0.00    +0.000 C 
ATOM     30  C   UNL     1      -0.832  14.046  21.534  0.00  0.00    +0.000 C 
ATOM     31  C   UNL     1      -0.552  14.768  22.860  0.00  0.00    +0.000 C 
ENDBRANCH  28  30
BRANCH  28  32
ATOM     32  C   UNL     1      -1.493  12.067  23.007  0.00  0.00    +0.000 C 
ATOM     33  C   UNL     1      -2.974  12.062  23.421  0.00  0.00    +0.000 C 
ATOM     34  C   UNL     1      -1.024  10.599  23.183  0.00  0.00    +0.000 C 
ENDBRANCH  28  32
ENDBRANCH  27  28
ENDBRANCH  26  27
ENDBRANCH  25  26
ENDBRANCH  19  25
ENDBRANCH   1  22
TORSDOF 10
ENDMDL
MODEL 9
REMARK VINA RESULT:      -7.9      1.603      2.702
REMARK  Name = 
REMARK  14 active torsions:
REMARK  status: ('A' for Active; 'I' for Inactive)
REMARK    1  A    between atoms: C_1  and  C_2
REMARK    2  A    between atoms: C_2  and  C_3
REMARK    3  A    between atoms: C_2  and  N_4
REMARK    4  A    between atoms: N_4  and  C_5
REMARK    5  A    between atoms: N_4  and  C_32
REMARK    6  A    between atoms: C_5  and  C_6
REMARK    7  A    between atoms: C_6  and  O_7
REMARK    8  A    between atoms: O_7  and  C_8
REMARK    9  A    between atoms: C_11  and  C_12
REMARK   10  A    between atoms: C_12  and  C_13
REMARK   11  A    between atoms: N_22  and  C_23
REMARK   12  A    between atoms: C_23  and  C_24
REMARK   13  A    between atoms: C_32  and  C_33
REMARK   14  A    between atoms: C_32  and  C_34
REMARK                            x       y       z     vdW  Elec       q    Type
REMARK                         _______ _______ _______ _____ _____    ______ ____
ROOT
ATOM      1  C   UNL     1       3.454   5.923  19.361  0.00  0.00    +0.000 C 
ENDROOT
BRANCH   1   2
ATOM      2  C   UNL     1       4.521   5.779  18.260  0.00  0.00    +0.000 C 
ATOM      3  C   UNL     1       5.974   5.694  18.764  0.00  0.00    +0.000 C 
ATOM      4  O   UNL     1       6.943   5.629  17.702  0.00  0.00    +0.000 OA
ATOM      5  C   UNL     1       6.487   5.090  16.525  0.00  0.00    +0.000 A 
ATOM      6  C   UNL     1       7.404   5.045  15.474  0.00  0.00    +0.000 A 
ATOM      7  C   UNL     1       7.016   4.558  14.223  0.00  0.00    +0.000 A 
ATOM      8  C   UNL     1       5.711   4.111  14.022  0.00  0.00    +0.000 A 
ATOM      9  C   UNL     1       4.799   4.129  15.077  0.00  0.00    +0.000 A 
ATOM     10  C   UNL     1       5.176   4.616  16.334  0.00  0.00    +0.000 A 
ATOM     11  N   UNL     1       4.216   4.609  17.388  0.00  0.00    +0.000 N 
BRANCH  11  12
ATOM     12  C   UNL     1       4.203   3.266  18.023  0.00  0.00    +0.000 C 
BRANCH  12  13
ATOM     13  C   UNL     1       3.086   3.089  19.033  0.00  0.00    +0.000 A 
ATOM     14  C   UNL     1       1.729   3.223  18.710  0.00  0.00    +0.000 A 
ATOM     15  C   UNL     1       0.748   3.116  19.700  0.00  0.00    +0.000 A 
ATOM     16  C   UNL     1       1.107   2.859  21.020  0.00  0.00    +0.000 A 
ATOM     17  C   UNL     1       2.449   2.687  21.352  0.00  0.00    +0.000 A 
ATOM     18  C   UNL     1       3.430   2.796  20.366  0.00  0.00    +0.000 A 
ENDBRANCH  12  13
ENDBRANCH  11  12
ENDBRANCH   1   2
BRANCH   1  22
ATOM     19  C   UNL     1       1.108   9.551  19.122  0.00  0.00    +0.000 A 
ATOM     20  C   UNL     1       1.139   8.825  20.311  0.00  0.00    +0.000 A 
ATOM     21  C   UNL     1       1.893   7.650  20.406  0.00  0.00    +0.000 A 
ATOM     22  C   UNL     1       2.601   7.168  19.298  0.00  0.00    +0.000 A 
ATOM     23  C   UNL     1       2.553   7.891  18.103  0.00  0.00    +0.000 A 
ATOM     24  C   UNL     1       1.809   9.067  18.015  0.00  0.00    +0.000 A 
BRANCH  19  25
ATOM     25  O   UNL     1       0.350  10.698  19.120  0.00  0.00    +0.000 OA
BRANCH  25  26
ATOM     26  C   UNL     1       1.069  11.871  18.716  0.00  0.00    +0.000 C 
BRANCH  26  27
ATOM     27  C   UNL     1       1.088  12.929  19.837  0.00  0.00    +0.000 C 
BRANCH  27  28
ATOM     28  N   UNL     1       0.925  14.350  19.379  0.00  0.00    +0.000 NA
BRANCH  28  30
ATOM     29  C   UNL     1       3.237  14.429  20.388  0.00  0.00    +0.000 C 
ATOM     30  C   UNL     1       2.240  15.074  19.396  0.00  0.00    +0.000 C 
ATOM     31  C   UNL     1       2.988  15.158  18.057  0.00  0.00    +0.000 C 
ENDBRANCH  28  30
BRANCH  28  32
ATOM     32  C   UNL     1      -0.217  15.013  20.091  0.00  0.00    +0.000 C 
ATOM     33  C   UNL     1      -0.763  16.296  19.442  0.00  0.00    +0.000 C 
ATOM     34  C   UNL     1      -1.446  14.077  20.220  0.00  0.00    +0.000 C 
ENDBRANCH  28  32
ENDBRANCH  27  28
ENDBRANCH  26  27
ENDBRANCH  25  26
ENDBRANCH  19  25
ENDBRANCH   1  22
TORSDOF 10
ENDMDL
