MODEL 1
REMARK VINA RESULT:      -9.1      0.000      0.000
REMARK  Name = 
REMARK  11 active torsions:
REMARK  status: ('A' for Active; 'I' for Inactive)
REMARK    1  A    between atoms: C_1  and  O_2
REMARK    2  A    between atoms: O_2  and  C_3
REMARK    3  A    between atoms: C_6  and  C_7
REMARK    4  A    between atoms: C_19  and  N_20
REMARK    5  A    between atoms: N_20  and  S_21
REMARK    6  A    between atoms: S_21  and  N_24
REMARK    7  A    between atoms: C_25  and  O_27
REMARK    8  A    between atoms: O_27  and  C_28
REMARK    9  A    between atoms: C_28  and  C_29
REMARK   10  A    between atoms: C_29  and  C_30
REMARK   11  A    between atoms: C_29  and  C_31
REMARK                            x       y       z     vdW  Elec       q    Type
REMARK                         _______ _______ _______ _____ _____    ______ ____
ROOT
ATOM      1  C   UNL     1       3.598   3.714  17.962  0.00  0.00    +0.000 A 
ATOM      2  C   UNL     1       2.311   4.166  17.655  0.00  0.00    +0.000 A 
ATOM      3  C   UNL     1       1.801   5.315  18.250  0.00  0.00    +0.000 A 
ATOM      4  C   UNL     1       2.562   6.056  19.159  0.00  0.00    +0.000 A 
ATOM      5  C   UNL     1       3.874   5.638  19.432  0.00  0.00    +0.000 A 
ATOM      6  C   UNL     1       4.405   4.486  18.827  0.00  0.00    +0.000 A 
ENDROOT
BRANCH   4   7
ATOM      7  C   UNL     1       1.936   7.215  19.800  0.00  0.00    +0.000 A 
ATOM      8  C   UNL     1       1.383   7.314  21.067  0.00  0.00    +0.000 A 
ATOM      9  C   UNL     1       0.898   8.630  21.254  0.00  0.00    +0.000 A 
ATOM     10  C   UNL     1       0.303   9.296  22.341  0.00  0.00    +0.000 A 
ATOM     11  C   UNL     1      -0.148  10.600  22.156  0.00  0.00    +0.000 A 
ATOM     12  F   UNL     1      -0.714  11.241  23.188  0.00  0.00    +0.000 F 
ATOM     13  C   UNL     1      -0.027  11.230  20.924  0.00  0.00    +0.000 A 
ATOM     14  F   UNL     1      -0.521  12.467  20.762  0.00  0.00    +0.000 F 
ATOM     15  C   UNL     1       0.599  10.605  19.842  0.00  0.00    +0.000 A 
ATOM     16  C   UNL     1       1.075   9.303  20.045  0.00  0.00    +0.000 A 
ATOM     17  N   UNL     1       1.763   8.447  19.205  0.00  0.00    +0.000 N 
ATOM     18  H   UNL     1       2.069   8.682  18.270  0.00  0.00    +0.000 HD
ENDBRANCH   4   7
BRANCH   1  20
ATOM     19  C   UNL     1       3.678   1.359  18.166  0.00  0.00    +0.000 C 
ATOM     20  O   UNL     1       4.106   2.535  17.464  0.00  0.00    +0.000 OA
ENDBRANCH   1  20
BRANCH   6  21
ATOM     21  N   UNL     1       5.793   4.124  19.085  0.00  0.00    +0.000 N 
ATOM     22  H   UNL     1       5.901   3.112  18.993  0.00  0.00    +0.000 HD
BRANCH  21  23
ATOM     23  S   UNL     1       6.902   4.876  18.050  0.00  0.00    +0.000 S 
ATOM     24  O   UNL     1       6.522   6.265  17.936  0.00  0.00    +0.000 OA
ATOM     25  O   UNL     1       8.252   4.509  18.414  0.00  0.00    +0.000 OA
BRANCH  23  26
ATOM     26  N   UNL     1       6.594   4.208  16.559  0.00  0.00    +0.000 N 
ATOM     27  C   UNL     1       6.827   4.913  15.383  0.00  0.00    +0.000 C 
ATOM     28  O   UNL     1       7.724   5.733  15.237  0.00  0.00    +0.000 OA
ATOM     29  H   UNL     1       5.690   3.739  16.570  0.00  0.00    +0.000 HD
BRANCH  27  30
ATOM     30  O   UNL     1       5.901   4.631  14.419  0.00  0.00    +0.000 OA
BRANCH  30  31
ATOM     31  C   UNL     1       5.954   3.292  13.878  0.00  0.00    +0.000 C 
BRANCH  31  32
ATOM     32  C   UNL     1       6.000   3.226  12.340  0.00  0.00    +0.000 C 
ATOM     33  C   UNL     1       4.636   3.497  11.703  0.00  0.00    +0.000 C 
ATOM     34  C   UNL     1       7.016   4.245  11.807  0.00  0.00    +0.000 C 
ENDBRANCH  31  32
ENDBRANCH  30  31
ENDBRANCH  27  30
ENDBRANCH  23  26
ENDBRANCH  21  23
ENDBRANCH   6  21
TORSDOF 8
ENDMDL
MODEL 2
REMARK VINA RESULT:      -8.9      1.085      1.339
REMARK  Name = 
REMARK  11 active torsions:
REMARK  status: ('A' for Active; 'I' for Inactive)
REMARK    1  A    between atoms: C_1  and  O_2
REMARK    2  A    between atoms: O_2  and  C_3
REMARK    3  A    between atoms: C_6  and  C_7
REMARK    4  A    between atoms: C_19  and  N_20
REMARK    5  A    between atoms: N_20  and  S_21
REMARK    6  A    between atoms: S_21  and  N_24
REMARK    7  A    between atoms: C_25  and  O_27
REMARK    8  A    between atoms: O_27  and  C_28
REMARK    9  A    between atoms: C_28  and  C_29
REMARK   10  A    between atoms: C_29  and  C_30
REMARK   11  A    between atoms: C_29  and  C_31
REMARK                            x       y       z     vdW  Elec       q    Type
REMARK                         _______ _______ _______ _____ _____    ______ ____
ROOT
ATOM      1  C   UNL     1       3.587   3.866  19.328  0.00  0.00    +0.000 A 
ATOM      2  C   UNL     1       2.627   4.000  20.335  0.00  0.00    +0.000 A 
ATOM      3  C   UNL     1       2.025   5.230  20.583  0.00  0.00    +0.000 A 
ATOM      4  C   UNL     1       2.353   6.360  19.828  0.00  0.00    +0.000 A 
ATOM      5  C   UNL     1       3.277   6.220  18.780  0.00  0.00    +0.000 A 
ATOM      6  C   UNL     1       3.882   4.980  18.512  0.00  0.00    +0.000 A 
ENDROOT
BRANCH   4   7
ATOM      7  C   UNL     1       1.732   7.637  20.189  0.00  0.00    +0.000 A 
ATOM      8  C   UNL     1       1.144   8.009  21.387  0.00  0.00    +0.000 A 
ATOM      9  C   UNL     1       0.680   9.341  21.276  0.00  0.00    +0.000 A 
ATOM     10  C   UNL     1       0.067  10.229  22.178  0.00  0.00    +0.000 A 
ATOM     11  C   UNL     1      -0.352  11.470  21.708  0.00  0.00    +0.000 A 
ATOM     12  F   UNL     1      -0.936  12.323  22.562  0.00  0.00    +0.000 F 
ATOM     13  C   UNL     1      -0.183  11.824  20.376  0.00  0.00    +0.000 A 
ATOM     14  F   UNL     1      -0.647  13.005  19.940  0.00  0.00    +0.000 F 
ATOM     15  C   UNL     1       0.462  10.976  19.471  0.00  0.00    +0.000 A 
ATOM     16  C   UNL     1       0.906   9.740  19.959  0.00  0.00    +0.000 A 
ATOM     17  N   UNL     1       1.602   8.717  19.342  0.00  0.00    +0.000 N 
ATOM     18  H   UNL     1       1.939   8.745  18.389  0.00  0.00    +0.000 HD
ENDBRANCH   4   7
BRANCH   1  20
ATOM     19  C   UNL     1       3.487   1.651  18.504  0.00  0.00    +0.000 C 
ATOM     20  O   UNL     1       4.270   2.690  19.110  0.00  0.00    +0.000 OA
ENDBRANCH   1  20
BRANCH   6  21
ATOM     21  N   UNL     1       4.786   4.863  17.374  0.00  0.00    +0.000 N 
ATOM     22  H   UNL     1       4.451   5.458  16.614  0.00  0.00    +0.000 HD
BRANCH  21  23
ATOM     23  S   UNL     1       6.387   5.290  17.722  0.00  0.00    +0.000 S 
ATOM     24  O   UNL     1       6.409   6.706  18.007  0.00  0.00    +0.000 OA
ATOM     25  O   UNL     1       6.966   4.343  18.648  0.00  0.00    +0.000 OA
BRANCH  23  26
ATOM     26  N   UNL     1       7.185   5.117  16.274  0.00  0.00    +0.000 N 
ATOM     27  C   UNL     1       6.538   5.310  15.058  0.00  0.00    +0.000 C 
ATOM     28  O   UNL     1       5.630   6.110  14.880  0.00  0.00    +0.000 OA
ATOM     29  H   UNL     1       7.756   4.274  16.293  0.00  0.00    +0.000 HD
BRANCH  27  30
ATOM     30  O   UNL     1       6.992   4.459  14.090  0.00  0.00    +0.000 OA
BRANCH  30  31
ATOM     31  C   UNL     1       6.029   3.499  13.603  0.00  0.00    +0.000 C 
BRANCH  31  32
ATOM     32  C   UNL     1       5.938   3.409  12.068  0.00  0.00    +0.000 C 
ATOM     33  C   UNL     1       6.698   2.205  11.508  0.00  0.00    +0.000 C 
ATOM     34  C   UNL     1       4.467   3.319  11.640  0.00  0.00    +0.000 C 
ENDBRANCH  31  32
ENDBRANCH  30  31
ENDBRANCH  27  30
ENDBRANCH  23  26
ENDBRANCH  21  23
ENDBRANCH   6  21
TORSDOF 8
ENDMDL
MODEL 3
REMARK VINA RESULT:      -8.6      1.209      1.469
REMARK  Name = 
REMARK  11 active torsions:
REMARK  status: ('A' for Active; 'I' for Inactive)
REMARK    1  A    between atoms: C_1  and  O_2
REMARK    2  A    between atoms: O_2  and  C_3
REMARK    3  A    between atoms: C_6  and  C_7
REMARK    4  A    between atoms: C_19  and  N_20
REMARK    5  A    between atoms: N_20  and  S_21
REMARK    6  A    between atoms: S_21  and  N_24
REMARK    7  A    between atoms: C_25  and  O_27
REMARK    8  A    between atoms: O_27  and  C_28
REMARK    9  A    between atoms: C_28  and  C_29
REMARK   10  A    between atoms: C_29  and  C_30
REMARK   11  A    between atoms: C_29  and  C_31
REMARK                            x       y       z     vdW  Elec       q    Type
REMARK                         _______ _______ _______ _____ _____    ______ ____
ROOT
ATOM      1  C   UNL     1       3.833   4.886  17.650  0.00  0.00    +0.000 A 
ATOM      2  C   UNL     1       2.721   4.603  18.449  0.00  0.00    +0.000 A 
ATOM      3  C   UNL     1       2.037   5.623  19.102  0.00  0.00    +0.000 A 
ATOM      4  C   UNL     1       2.433   6.957  18.971  0.00  0.00    +0.000 A 
ATOM      5  C   UNL     1       3.516   7.255  18.128  0.00  0.00    +0.000 A 
ATOM      6  C   UNL     1       4.206   6.234  17.453  0.00  0.00    +0.000 A 
ENDROOT
BRANCH   4   7
ATOM      7  C   UNL     1       1.711   7.972  19.743  0.00  0.00    +0.000 A 
ATOM      8  C   UNL     1       1.253   7.907  21.049  0.00  0.00    +0.000 A 
ATOM      9  C   UNL     1       0.613   9.126  21.372  0.00  0.00    +0.000 A 
ATOM     10  C   UNL     1       0.023   9.627  22.546  0.00  0.00    +0.000 A 
ATOM     11  C   UNL     1      -0.613  10.865  22.496  0.00  0.00    +0.000 A 
ATOM     12  F   UNL     1      -1.175  11.349  23.612  0.00  0.00    +0.000 F 
ATOM     13  C   UNL     1      -0.677  11.587  21.312  0.00  0.00    +0.000 A 
ATOM     14  F   UNL     1      -1.345  12.750  21.281  0.00  0.00    +0.000 F 
ATOM     15  C   UNL     1      -0.062  11.130  20.142  0.00  0.00    +0.000 A 
ATOM     16  C   UNL     1       0.600   9.897  20.209  0.00  0.00    +0.000 A 
ATOM     17  N   UNL     1       1.327   9.205  19.259  0.00  0.00    +0.000 N 
ATOM     18  H   UNL     1       1.522   9.543  18.326  0.00  0.00    +0.000 HD
ENDBRANCH   4   7
BRANCH   1  20
ATOM     19  C   UNL     1       4.102   2.567  17.274  0.00  0.00    +0.000 C 
ATOM     20  O   UNL     1       4.589   3.899  17.059  0.00  0.00    +0.000 OA
ENDBRANCH   1  20
BRANCH   6  21
ATOM     21  N   UNL     1       5.282   6.591  16.535  0.00  0.00    +0.000 N 
ATOM     22  H   UNL     1       5.289   7.604  16.401  0.00  0.00    +0.000 HD
BRANCH  21  23
ATOM     23  S   UNL     1       6.819   6.111  17.061  0.00  0.00    +0.000 S 
ATOM     24  O   UNL     1       7.770   7.083  16.575  0.00  0.00    +0.000 OA
ATOM     25  O   UNL     1       6.778   5.756  18.462  0.00  0.00    +0.000 OA
BRANCH  23  26
ATOM     26  N   UNL     1       7.131   4.719  16.208  0.00  0.00    +0.000 N 
ATOM     27  C   UNL     1       7.152   4.706  14.817  0.00  0.00    +0.000 C 
ATOM     28  O   UNL     1       7.514   5.648  14.124  0.00  0.00    +0.000 OA
ATOM     29  H   UNL     1       6.605   3.944  16.606  0.00  0.00    +0.000 HD
BRANCH  27  30
ATOM     30  O   UNL     1       6.663   3.538  14.304  0.00  0.00    +0.000 OA
BRANCH  30  31
ATOM     31  C   UNL     1       5.429   3.652  13.562  0.00  0.00    +0.000 C 
BRANCH  31  32
ATOM     32  C   UNL     1       5.571   3.418  12.046  0.00  0.00    +0.000 C 
ATOM     33  C   UNL     1       6.416   2.184  11.723  0.00  0.00    +0.000 C 
ATOM     34  C   UNL     1       4.182   3.257  11.413  0.00  0.00    +0.000 C 
ENDBRANCH  31  32
ENDBRANCH  30  31
ENDBRANCH  27  30
ENDBRANCH  23  26
ENDBRANCH  21  23
ENDBRANCH   6  21
TORSDOF 8
ENDMDL
MODEL 4
REMARK VINA RESULT:      -8.6      2.883      4.085
REMARK  Name = 
REMARK  11 active torsions:
REMARK  status: ('A' for Active; 'I' for Inactive)
REMARK    1  A    between atoms: C_1  and  O_2
REMARK    2  A    between atoms: O_2  and  C_3
REMARK    3  A    between atoms: C_6  and  C_7
REMARK    4  A    between atoms: C_19  and  N_20
REMARK    5  A    between atoms: N_20  and  S_21
REMARK    6  A    between atoms: S_21  and  N_24
REMARK    7  A    between atoms: C_25  and  O_27
REMARK    8  A    between atoms: O_27  and  C_28
REMARK    9  A    between atoms: C_28  and  C_29
REMARK   10  A    between atoms: C_29  and  C_30
REMARK   11  A    between atoms: C_29  and  C_31
REMARK                            x       y       z     vdW  Elec       q    Type
REMARK                         _______ _______ _______ _____ _____    ______ ____
ROOT
ATOM      1  C   UNL     1       3.418   3.963  17.482  0.00  0.00    +0.000 A 
ATOM      2  C   UNL     1       2.078   4.160  17.829  0.00  0.00    +0.000 A 
ATOM      3  C   UNL     1       1.634   5.400  18.276  0.00  0.00    +0.000 A 
ATOM      4  C   UNL     1       2.509   6.485  18.380  0.00  0.00    +0.000 A 
ATOM      5  C   UNL     1       3.844   6.310  17.983  0.00  0.00    +0.000 A 
ATOM      6  C   UNL     1       4.301   5.065  17.517  0.00  0.00    +0.000 A 
ENDROOT
BRANCH   4   7
ATOM      7  C   UNL     1       1.990   7.742  18.924  0.00  0.00    +0.000 A 
ATOM      8  C   UNL     1       1.614   8.036  20.225  0.00  0.00    +0.000 A 
ATOM      9  C   UNL     1       1.174   9.380  20.284  0.00  0.00    +0.000 A 
ATOM     10  C   UNL     1       0.739  10.210  21.332  0.00  0.00    +0.000 A 
ATOM     11  C   UNL     1       0.283  11.488  21.023  0.00  0.00    +0.000 A 
ATOM     12  F   UNL     1      -0.131  12.286  22.018  0.00  0.00    +0.000 F 
ATOM     13  C   UNL     1       0.243  11.934  19.709  0.00  0.00    +0.000 A 
ATOM     14  F   UNL     1      -0.255  13.150  19.436  0.00  0.00    +0.000 F 
ATOM     15  C   UNL     1       0.709  11.144  18.654  0.00  0.00    +0.000 A 
ATOM     16  C   UNL     1       1.194   9.869  18.978  0.00  0.00    +0.000 A 
ATOM     17  N   UNL     1       1.752   8.883  18.186  0.00  0.00    +0.000 N 
ATOM     18  H   UNL     1       1.931   8.974  17.195  0.00  0.00    +0.000 HD
ENDBRANCH   4   7
BRANCH   1  20
ATOM     19  C   UNL     1       3.786   1.719  18.129  0.00  0.00    +0.000 C 
ATOM     20  O   UNL     1       3.915   2.731  17.120  0.00  0.00    +0.000 OA
ENDBRANCH   1  20
BRANCH   6  21
ATOM     21  N   UNL     1       5.677   4.942  17.052  0.00  0.00    +0.000 N 
ATOM     22  H   UNL     1       5.916   5.758  16.485  0.00  0.00    +0.000 HD
BRANCH  21  23
ATOM     23  S   UNL     1       6.814   4.808  18.300  0.00  0.00    +0.000 S 
ATOM     24  O   UNL     1       6.148   4.218  19.437  0.00  0.00    +0.000 OA
ATOM     25  O   UNL     1       8.046   4.245  17.794  0.00  0.00    +0.000 OA
BRANCH  23  26
ATOM     26  N   UNL     1       7.133   6.379  18.739  0.00  0.00    +0.000 N 
ATOM     27  C   UNL     1       7.700   7.284  17.847  0.00  0.00    +0.000 C 
ATOM     28  O   UNL     1       7.505   7.274  16.639  0.00  0.00    +0.000 OA
ATOM     29  H   UNL     1       7.569   6.400  19.659  0.00  0.00    +0.000 HD
BRANCH  27  30
ATOM     30  O   UNL     1       8.553   8.154  18.466  0.00  0.00    +0.000 OA
BRANCH  30  31
ATOM     31  C   UNL     1       8.312   9.554  18.202  0.00  0.00    +0.000 C 
BRANCH  31  32
ATOM     32  C   UNL     1       9.448  10.492  18.653  0.00  0.00    +0.000 C 
ATOM     33  C   UNL     1       9.378  11.861  17.974  0.00  0.00    +0.000 C 
ATOM     34  C   UNL     1       9.391  10.681  20.175  0.00  0.00    +0.000 C 
ENDBRANCH  31  32
ENDBRANCH  30  31
ENDBRANCH  27  30
ENDBRANCH  23  26
ENDBRANCH  21  23
ENDBRANCH   6  21
TORSDOF 8
ENDMDL
MODEL 5
REMARK VINA RESULT:      -8.5      0.594      1.441
REMARK  Name = 
REMARK  11 active torsions:
REMARK  status: ('A' for Active; 'I' for Inactive)
REMARK    1  A    between atoms: C_1  and  O_2
REMARK    2  A    between atoms: O_2  and  C_3
REMARK    3  A    between atoms: C_6  and  C_7
REMARK    4  A    between atoms: C_19  and  N_20
REMARK    5  A    between atoms: N_20  and  S_21
REMARK    6  A    between atoms: S_21  and  N_24
REMARK    7  A    between atoms: C_25  and  O_27
REMARK    8  A    between atoms: O_27  and  C_28
REMARK    9  A    between atoms: C_28  and  C_29
REMARK   10  A    between atoms: C_29  and  C_30
REMARK   11  A    between atoms: C_29  and  C_31
REMARK                            x       y       z     vdW  Elec       q    Type
REMARK                         _______ _______ _______ _____ _____    ______ ____
ROOT
ATOM      1  C   UNL     1       3.708   3.683  17.999  0.00  0.00    +0.000 A 
ATOM      2  C   UNL     1       2.430   4.111  17.626  0.00  0.00    +0.000 A 
ATOM      3  C   UNL     1       1.894   5.284  18.149  0.00  0.00    +0.000 A 
ATOM      4  C   UNL     1       2.618   6.071  19.049  0.00  0.00    +0.000 A 
ATOM      5  C   UNL     1       3.922   5.674  19.386  0.00  0.00    +0.000 A 
ATOM      6  C   UNL     1       4.479   4.499  18.855  0.00  0.00    +0.000 A 
ENDROOT
BRANCH   4   7
ATOM      7  C   UNL     1       1.965   7.255  19.614  0.00  0.00    +0.000 A 
ATOM      8  C   UNL     1       1.773   8.499  19.036  0.00  0.00    +0.000 A 
ATOM      9  C   UNL     1       1.092   9.332  19.955  0.00  0.00    +0.000 A 
ATOM     10  C   UNL     1       0.600  10.647  19.887  0.00  0.00    +0.000 A 
ATOM     11  C   UNL     1       0.043  11.209  21.033  0.00  0.00    +0.000 A 
ATOM     12  F   UNL     1      -0.431  12.462  20.974  0.00  0.00    +0.000 F 
ATOM     13  C   UNL     1      -0.016  10.496  22.222  0.00  0.00    +0.000 A 
ATOM     14  F   UNL     1      -0.508  11.084  23.324  0.00  0.00    +0.000 F 
ATOM     15  C   UNL     1       0.428   9.173  22.304  0.00  0.00    +0.000 A 
ATOM     16  C   UNL     1       0.961   8.605  21.139  0.00  0.00    +0.000 A 
ATOM     17  N   UNL     1       1.437   7.332  20.886  0.00  0.00    +0.000 N 
ATOM     18  H   UNL     1       1.429   6.572  21.552  0.00  0.00    +0.000 HD
ENDBRANCH   4   7
BRANCH   1  20
ATOM     19  C   UNL     1       3.681   1.328  18.214  0.00  0.00    +0.000 C 
ATOM     20  O   UNL     1       4.238   2.485  17.574  0.00  0.00    +0.000 OA
ENDBRANCH   1  20
BRANCH   6  21
ATOM     21  N   UNL     1       5.860   4.158  19.178  0.00  0.00    +0.000 N 
ATOM     22  H   UNL     1       5.973   3.143  19.144  0.00  0.00    +0.000 HD
BRANCH  21  23
ATOM     23  S   UNL     1       7.000   4.859  18.140  0.00  0.00    +0.000 S 
ATOM     24  O   UNL     1       6.667   6.257  18.005  0.00  0.00    +0.000 OA
ATOM     25  O   UNL     1       8.335   4.452  18.519  0.00  0.00    +0.000 OA
BRANCH  23  26
ATOM     26  N   UNL     1       6.679   4.181  16.657  0.00  0.00    +0.000 N 
ATOM     27  C   UNL     1       6.278   4.956  15.573  0.00  0.00    +0.000 C 
ATOM     28  O   UNL     1       6.642   6.108  15.378  0.00  0.00    +0.000 OA
ATOM     29  H   UNL     1       6.119   3.339  16.775  0.00  0.00    +0.000 HD
BRANCH  27  30
ATOM     30  O   UNL     1       5.379   4.304  14.777  0.00  0.00    +0.000 OA
BRANCH  30  31
ATOM     31  C   UNL     1       5.934   3.285  13.917  0.00  0.00    +0.000 C 
BRANCH  31  32
ATOM     32  C   UNL     1       5.935   3.644  12.419  0.00  0.00    +0.000 C 
ATOM     33  C   UNL     1       7.074   2.966  11.656  0.00  0.00    +0.000 C 
ATOM     34  C   UNL     1       4.595   3.239  11.788  0.00  0.00    +0.000 C 
ENDBRANCH  31  32
ENDBRANCH  30  31
ENDBRANCH  27  30
ENDBRANCH  23  26
ENDBRANCH  21  23
ENDBRANCH   6  21
TORSDOF 8
ENDMDL
MODEL 6
REMARK VINA RESULT:      -8.5      1.424      2.109
REMARK  Name = 
REMARK  11 active torsions:
REMARK  status: ('A' for Active; 'I' for Inactive)
REMARK    1  A    between atoms: C_1  and  O_2
REMARK    2  A    between atoms: O_2  and  C_3
REMARK    3  A    between atoms: C_6  and  C_7
REMARK    4  A    between atoms: C_19  and  N_20
REMARK    5  A    between atoms: N_20  and  S_21
REMARK    6  A    between atoms: S_21  and  N_24
REMARK    7  A    between atoms: C_25  and  O_27
REMARK    8  A    between atoms: O_27  and  C_28
REMARK    9  A    between atoms: C_28  and  C_29
REMARK   10  A    between atoms: C_29  and  C_30
REMARK   11  A    between atoms: C_29  and  C_31
REMARK                            x       y       z     vdW  Elec       q    Type
REMARK                         _______ _______ _______ _____ _____    ______ ____
ROOT
ATOM      1  C   UNL     1       3.531   3.811  17.579  0.00  0.00    +0.000 A 
ATOM      2  C   UNL     1       2.173   4.069  17.793  0.00  0.00    +0.000 A 
ATOM      3  C   UNL     1       1.737   5.348  18.123  0.00  0.00    +0.000 A 
ATOM      4  C   UNL     1       2.638   6.411  18.238  0.00  0.00    +0.000 A 
ATOM      5  C   UNL     1       3.995   6.170  17.973  0.00  0.00    +0.000 A 
ATOM      6  C   UNL     1       4.446   4.885  17.627  0.00  0.00    +0.000 A 
ENDROOT
BRANCH   4   7
ATOM      7  C   UNL     1       2.119   7.715  18.657  0.00  0.00    +0.000 A 
ATOM      8  C   UNL     1       2.036   8.892  17.930  0.00  0.00    +0.000 A 
ATOM      9  C   UNL     1       1.462   9.895  18.746  0.00  0.00    +0.000 A 
ATOM     10  C   UNL     1       1.099  11.235  18.519  0.00  0.00    +0.000 A 
ATOM     11  C   UNL     1       0.629  11.988  19.591  0.00  0.00    +0.000 A 
ATOM     12  F   UNL     1       0.279  13.265  19.381  0.00  0.00    +0.000 F 
ATOM     13  C   UNL     1       0.530  11.437  20.862  0.00  0.00    +0.000 A 
ATOM     14  F   UNL     1       0.126  12.203  21.886  0.00  0.00    +0.000 F 
ATOM     15  C   UNL     1       0.844  10.097  21.104  0.00  0.00    +0.000 A 
ATOM     16  C   UNL     1       1.290   9.339  20.013  0.00  0.00    +0.000 A 
ATOM     17  N   UNL     1       1.633   8.002  19.916  0.00  0.00    +0.000 N 
ATOM     18  H   UNL     1       1.567   7.336  20.673  0.00  0.00    +0.000 HD
ENDBRANCH   4   7
BRANCH   1  20
ATOM     19  C   UNL     1       3.556   1.547  18.265  0.00  0.00    +0.000 C 
ATOM     20  O   UNL     1       4.014   2.544  17.339  0.00  0.00    +0.000 OA
ENDBRANCH   1  20
BRANCH   6  21
ATOM     21  N   UNL     1       5.853   4.691  17.294  0.00  0.00    +0.000 N 
ATOM     22  H   UNL     1       6.007   3.715  17.036  0.00  0.00    +0.000 HD
BRANCH  21  23
ATOM     23  S   UNL     1       6.398   5.672  16.025  0.00  0.00    +0.000 S 
ATOM     24  O   UNL     1       5.262   6.406  15.520  0.00  0.00    +0.000 OA
ATOM     25  O   UNL     1       7.609   6.361  16.414  0.00  0.00    +0.000 OA
BRANCH  23  26
ATOM     26  N   UNL     1       6.805   4.601  14.821  0.00  0.00    +0.000 N 
ATOM     27  C   UNL     1       7.539   5.000  13.708  0.00  0.00    +0.000 C 
ATOM     28  O   UNL     1       8.395   5.874  13.725  0.00  0.00    +0.000 OA
ATOM     29  H   UNL     1       6.000   4.026  14.583  0.00  0.00    +0.000 HD
BRANCH  27  30
ATOM     30  O   UNL     1       7.152   4.345  12.573  0.00  0.00    +0.000 OA
BRANCH  30  31
ATOM     31  C   UNL     1       6.044   3.432  12.728  0.00  0.00    +0.000 C 
BRANCH  31  32
ATOM     32  C   UNL     1       5.536   2.816  11.411  0.00  0.00    +0.000 C 
ATOM     33  C   UNL     1       5.779   1.307  11.341  0.00  0.00    +0.000 C 
ATOM     34  C   UNL     1       4.034   3.092  11.254  0.00  0.00    +0.000 C 
ENDBRANCH  31  32
ENDBRANCH  30  31
ENDBRANCH  27  30
ENDBRANCH  23  26
ENDBRANCH  21  23
ENDBRANCH   6  21
TORSDOF 8
ENDMDL
MODEL 7
REMARK VINA RESULT:      -8.5      2.839      4.069
REMARK  Name = 
REMARK  11 active torsions:
REMARK  status: ('A' for Active; 'I' for Inactive)
REMARK    1  A    between atoms: C_1  and  O_2
REMARK    2  A    between atoms: O_2  and  C_3
REMARK    3  A    between atoms: C_6  and  C_7
REMARK    4  A    between atoms: C_19  and  N_20
REMARK    5  A    between atoms: N_20  and  S_21
REMARK    6  A    between atoms: S_21  and  N_24
REMARK    7  A    between atoms: C_25  and  O_27
REMARK    8  A    between atoms: O_27  and  C_28
REMARK    9  A    between atoms: C_28  and  C_29
REMARK   10  A    between atoms: C_29  and  C_30
REMARK   11  A    between atoms: C_29  and  C_31
REMARK                            x       y       z     vdW  Elec       q    Type
REMARK                         _______ _______ _______ _____ _____    ______ ____
ROOT
ATOM      1  C   UNL     1       3.709   3.790  18.956  0.00  0.00    +0.000 A 
ATOM      2  C   UNL     1       2.495   3.849  19.647  0.00  0.00    +0.000 A 
ATOM      3  C   UNL     1       1.894   5.073  19.924  0.00  0.00    +0.000 A 
ATOM      4  C   UNL     1       2.478   6.274  19.512  0.00  0.00    +0.000 A 
ATOM      5  C   UNL     1       3.670   6.220  18.772  0.00  0.00    +0.000 A 
ATOM      6  C   UNL     1       4.279   4.989  18.474  0.00  0.00    +0.000 A 
ENDROOT
BRANCH   4   7
ATOM      7  C   UNL     1       1.827   7.528  19.900  0.00  0.00    +0.000 A 
ATOM      8  C   UNL     1       1.675   8.692  19.163  0.00  0.00    +0.000 A 
ATOM      9  C   UNL     1       0.979   9.643  19.946  0.00  0.00    +0.000 A 
ATOM     10  C   UNL     1       0.511  10.945  19.695  0.00  0.00    +0.000 A 
ATOM     11  C   UNL     1      -0.073  11.655  20.740  0.00  0.00    +0.000 A 
ATOM     12  F   UNL     1      -0.524  12.896  20.508  0.00  0.00    +0.000 F 
ATOM     13  C   UNL     1      -0.182  11.100  22.008  0.00  0.00    +0.000 A 
ATOM     14  F   UNL     1      -0.698  11.829  23.009  0.00  0.00    +0.000 F 
ATOM     15  C   UNL     1       0.237   9.792  22.272  0.00  0.00    +0.000 A 
ATOM     16  C   UNL     1       0.798   9.075  21.207  0.00  0.00    +0.000 A 
ATOM     17  N   UNL     1       1.261   7.774  21.133  0.00  0.00    +0.000 N 
ATOM     18  H   UNL     1       1.218   7.105  21.890  0.00  0.00    +0.000 HD
ENDBRANCH   4   7
BRANCH   1  20
ATOM     19  C   UNL     1       3.530   1.460  18.591  0.00  0.00    +0.000 C 
ATOM     20  O   UNL     1       4.380   2.608  18.739  0.00  0.00    +0.000 OA
ENDBRANCH   1  20
BRANCH   6  21
ATOM     21  N   UNL     1       5.479   4.973  17.646  0.00  0.00    +0.000 N 
ATOM     22  H   UNL     1       5.438   5.744  16.976  0.00  0.00    +0.000 HD
BRANCH  21  23
ATOM     23  S   UNL     1       6.921   5.105  18.525  0.00  0.00    +0.000 S 
ATOM     24  O   UNL     1       6.617   4.821  19.908  0.00  0.00    +0.000 OA
ATOM     25  O   UNL     1       7.986   4.402  17.845  0.00  0.00    +0.000 OA
BRANCH  23  26
ATOM     26  N   UNL     1       7.288   6.725  18.475  0.00  0.00    +0.000 N 
ATOM     27  C   UNL     1       7.275   7.438  17.280  0.00  0.00    +0.000 C 
ATOM     28  O   UNL     1       6.518   7.206  16.347  0.00  0.00    +0.000 OA
ATOM     29  H   UNL     1       8.113   6.911  19.041  0.00  0.00    +0.000 HD
BRANCH  27  30
ATOM     30  O   UNL     1       8.249   8.396  17.240  0.00  0.00    +0.000 OA
BRANCH  30  31
ATOM     31  C   UNL     1       8.018   9.554  18.072  0.00  0.00    +0.000 C 
BRANCH  31  32
ATOM     32  C   UNL     1       9.150  10.599  18.040  0.00  0.00    +0.000 C 
ATOM     33  C   UNL     1       8.647  11.993  17.665  0.00  0.00    +0.000 C 
ATOM     34  C   UNL     1       9.835  10.663  19.412  0.00  0.00    +0.000 C 
ENDBRANCH  31  32
ENDBRANCH  30  31
ENDBRANCH  27  30
ENDBRANCH  23  26
ENDBRANCH  21  23
ENDBRANCH   6  21
TORSDOF 8
ENDMDL
MODEL 8
REMARK VINA RESULT:      -8.4      2.258      4.744
REMARK  Name = 
REMARK  11 active torsions:
REMARK  status: ('A' for Active; 'I' for Inactive)
REMARK    1  A    between atoms: C_1  and  O_2
REMARK    2  A    between atoms: O_2  and  C_3
REMARK    3  A    between atoms: C_6  and  C_7
REMARK    4  A    between atoms: C_19  and  N_20
REMARK    5  A    between atoms: N_20  and  S_21
REMARK    6  A    between atoms: S_21  and  N_24
REMARK    7  A    between atoms: C_25  and  O_27
REMARK    8  A    between atoms: O_27  and  C_28
REMARK    9  A    between atoms: C_28  and  C_29
REMARK   10  A    between atoms: C_29  and  C_30
REMARK   11  A    between atoms: C_29  and  C_31
REMARK                            x       y       z     vdW  Elec       q    Type
REMARK                         _______ _______ _______ _____ _____    ______ ____
ROOT
ATOM      1  C   UNL     1       5.342   4.914  17.159  0.00  0.00    +0.000 A 
ATOM      2  C   UNL     1       4.799   6.020  16.497  0.00  0.00    +0.000 A 
ATOM      3  C   UNL     1       3.916   6.875  17.150  0.00  0.00    +0.000 A 
ATOM      4  C   UNL     1       3.557   6.662  18.484  0.00  0.00    +0.000 A 
ATOM      5  C   UNL     1       4.140   5.584  19.170  0.00  0.00    +0.000 A 
ATOM      6  C   UNL     1       5.042   4.721  18.526  0.00  0.00    +0.000 A 
ENDROOT
BRANCH   4   7
ATOM      7  C   UNL     1       2.569   7.560  19.086  0.00  0.00    +0.000 A 
ATOM      8  C   UNL     1       1.897   8.625  18.508  0.00  0.00    +0.000 A 
ATOM      9  C   UNL     1       1.037   9.203  19.472  0.00  0.00    +0.000 A 
ATOM     10  C   UNL     1       0.101  10.251  19.427  0.00  0.00    +0.000 A 
ATOM     11  C   UNL     1      -0.528  10.631  20.610  0.00  0.00    +0.000 A 
ATOM     12  F   UNL     1      -1.424  11.628  20.574  0.00  0.00    +0.000 F 
ATOM     13  C   UNL     1      -0.232  10.002  21.811  0.00  0.00    +0.000 A 
ATOM     14  F   UNL     1      -0.813  10.428  22.943  0.00  0.00    +0.000 F 
ATOM     15  C   UNL     1       0.663   8.930  21.874  0.00  0.00    +0.000 A 
ATOM     16  C   UNL     1       1.271   8.535  20.674  0.00  0.00    +0.000 A 
ATOM     17  N   UNL     1       2.151   7.505  20.399  0.00  0.00    +0.000 N 
ATOM     18  H   UNL     1       2.470   6.825  21.076  0.00  0.00    +0.000 HD
ENDBRANCH   4   7
BRANCH   1  20
ATOM     19  C   UNL     1       6.247   4.172  15.104  0.00  0.00    +0.000 C 
ATOM     20  O   UNL     1       6.148   3.996  16.525  0.00  0.00    +0.000 OA
ENDBRANCH   1  20
BRANCH   6  21
ATOM     21  N   UNL     1       5.676   3.655  19.292  0.00  0.00    +0.000 N 
ATOM     22  H   UNL     1       6.149   4.058  20.103  0.00  0.00    +0.000 HD
BRANCH  21  23
ATOM     23  S   UNL     1       4.598   2.468  19.837  0.00  0.00    +0.000 S 
ATOM     24  O   UNL     1       4.112   1.754  18.679  0.00  0.00    +0.000 OA
ATOM     25  O   UNL     1       5.167   1.754  20.958  0.00  0.00    +0.000 OA
BRANCH  23  26
ATOM     26  N   UNL     1       3.294   3.326  20.408  0.00  0.00    +0.000 N 
ATOM     27  C   UNL     1       2.427   2.789  21.355  0.00  0.00    +0.000 C 
ATOM     28  O   UNL     1       2.766   2.010  22.236  0.00  0.00    +0.000 OA
ATOM     29  H   UNL     1       2.809   3.776  19.634  0.00  0.00    +0.000 HD
BRANCH  27  30
ATOM     30  O   UNL     1       1.135   3.185  21.156  0.00  0.00    +0.000 OA
BRANCH  30  31
ATOM     31  C   UNL     1       0.935   4.150  20.100  0.00  0.00    +0.000 C 
BRANCH  31  32
ATOM     32  C   UNL     1       0.522   3.539  18.747  0.00  0.00    +0.000 C 
ATOM     33  C   UNL     1       1.412   4.013  17.597  0.00  0.00    +0.000 C 
ATOM     34  C   UNL     1       0.579   2.007  18.831  0.00  0.00    +0.000 C 
ENDBRANCH  31  32
ENDBRANCH  30  31
ENDBRANCH  27  30
ENDBRANCH  23  26
ENDBRANCH  21  23
ENDBRANCH   6  21
TORSDOF 8
ENDMDL
MODEL 9
REMARK VINA RESULT:      -8.3      1.194      1.484
REMARK  Name = 
REMARK  11 active torsions:
REMARK  status: ('A' for Active; 'I' for Inactive)
REMARK    1  A    between atoms: C_1  and  O_2
REMARK    2  A    between atoms: O_2  and  C_3
REMARK    3  A    between atoms: C_6  and  C_7
REMARK    4  A    between atoms: C_19  and  N_20
REMARK    5  A    between atoms: N_20  and  S_21
REMARK    6  A    between atoms: S_21  and  N_24
REMARK    7  A    between atoms: C_25  and  O_27
REMARK    8  A    between atoms: O_27  and  C_28
REMARK    9  A    between atoms: C_28  and  C_29
REMARK   10  A    between atoms: C_29  and  C_30
REMARK   11  A    between atoms: C_29  and  C_31
REMARK                            x       y       z     vdW  Elec       q    Type
REMARK                         _______ _______ _______ _____ _____    ______ ____
ROOT
ATOM      1  C   UNL     1       3.485   3.288  19.746  0.00  0.00    +0.000 A 
ATOM      2  C   UNL     1       2.181   3.554  20.176  0.00  0.00    +0.000 A 
ATOM      3  C   UNL     1       1.703   4.859  20.230  0.00  0.00    +0.000 A 
ATOM      4  C   UNL     1       2.505   5.938  19.846  0.00  0.00    +0.000 A 
ATOM      5  C   UNL     1       3.796   5.674  19.362  0.00  0.00    +0.000 A 
ATOM      6  C   UNL     1       4.285   4.359  19.291  0.00  0.00    +0.000 A 
ENDROOT
BRANCH   4   7
ATOM      7  C   UNL     1       1.962   7.291  19.995  0.00  0.00    +0.000 A 
ATOM      8  C   UNL     1       1.346   7.863  21.096  0.00  0.00    +0.000 A 
ATOM      9  C   UNL     1       0.986   9.194  20.780  0.00  0.00    +0.000 A 
ATOM     10  C   UNL     1       0.396  10.237  21.516  0.00  0.00    +0.000 A 
ATOM     11  C   UNL     1       0.090  11.425  20.859  0.00  0.00    +0.000 A 
ATOM     12  F   UNL     1      -0.470  12.425  21.555  0.00  0.00    +0.000 F 
ATOM     13  C   UNL     1       0.346  11.578  19.503  0.00  0.00    +0.000 A 
ATOM     14  F   UNL     1      -0.011  12.714  18.885  0.00  0.00    +0.000 F 
ATOM     15  C   UNL     1       0.970  10.572  18.759  0.00  0.00    +0.000 A 
ATOM     16  C   UNL     1       1.301   9.390  19.435  0.00  0.00    +0.000 A 
ATOM     17  N   UNL     1       1.949   8.248  19.002  0.00  0.00    +0.000 N 
ATOM     18  H   UNL     1       2.331   8.121  18.075  0.00  0.00    +0.000 HD
ENDBRANCH   4   7
BRANCH   1  20
ATOM     19  C   UNL     1       3.735   1.237  18.596  0.00  0.00    +0.000 C 
ATOM     20  O   UNL     1       4.025   2.022  19.762  0.00  0.00    +0.000 OA
ENDBRANCH   1  20
BRANCH   6  21
ATOM     21  N   UNL     1       5.606   4.122  18.721  0.00  0.00    +0.000 N 
ATOM     22  H   UNL     1       5.690   3.137  18.462  0.00  0.00    +0.000 HD
BRANCH  21  23
ATOM     23  S   UNL     1       5.942   5.065  17.355  0.00  0.00    +0.000 S 
ATOM     24  O   UNL     1       4.697   5.642  16.905  0.00  0.00    +0.000 OA
ATOM     25  O   UNL     1       7.097   5.900  17.597  0.00  0.00    +0.000 OA
BRANCH  23  26
ATOM     26  N   UNL     1       6.367   3.962  16.186  0.00  0.00    +0.000 N 
ATOM     27  C   UNL     1       6.732   4.362  14.904  0.00  0.00    +0.000 C 
ATOM     28  O   UNL     1       7.314   5.408  14.649  0.00  0.00    +0.000 OA
ATOM     29  H   UNL     1       5.710   3.184  16.189  0.00  0.00    +0.000 HD
BRANCH  27  30
ATOM     30  O   UNL     1       6.312   3.480  13.949  0.00  0.00    +0.000 OA
BRANCH  30  31
ATOM     31  C   UNL     1       6.674   3.814  12.591  0.00  0.00    +0.000 C 
BRANCH  31  32
ATOM     32  C   UNL     1       5.853   3.083  11.513  0.00  0.00    +0.000 C 
ATOM     33  C   UNL     1       6.116   1.576  11.500  0.00  0.00    +0.000 C 
ATOM     34  C   UNL     1       4.355   3.330  11.745  0.00  0.00    +0.000 C 
ENDBRANCH  31  32
ENDBRANCH  30  31
ENDBRANCH  27  30
ENDBRANCH  23  26
ENDBRANCH  21  23
ENDBRANCH   6  21
TORSDOF 8
ENDMDL
