MODEL 1
REMARK VINA RESULT:      -7.8      0.000      0.000
REMARK  Name = 
REMARK  3 active torsions:
REMARK  status: ('A' for Active; 'I' for Inactive)
REMARK    1  A    between atoms: C_2  and  C_3
REMARK    2  A    between atoms: C_8  and  N_9
REMARK    3  A    between atoms: N_16  and  C_17
REMARK                            x       y       z     vdW  Elec       q    Type
REMARK                         _______ _______ _______ _____ _____    ______ ____
ROOT
ATOM      1  O   UNL     1       2.260   5.566  20.566  0.00  0.00    +0.000 OA
ATOM      2  C   UNL     1       2.640   6.233  19.604  0.00  0.00    +0.000 C 
ATOM      3  N   UNL     1       2.286   7.567  19.425  0.00  0.00    +0.000 N 
ATOM      4  C   UNL     1       2.583   8.412  18.264  0.00  0.00    +0.000 C 
ATOM      5  C   UNL     1       1.398   9.272  17.804  0.00  0.00    +0.000 C 
ATOM      6  N   UNL     1       0.796   9.988  18.933  0.00  0.00    +0.000 N 
ATOM      7  C   UNL     1       0.421   9.121  20.068  0.00  0.00    +0.000 C 
ATOM      8  C   UNL     1       1.627   8.280  20.536  0.00  0.00    +0.000 C 
ENDROOT
BRANCH   2   9
ATOM      9  C   UNL     1       3.520   5.540  18.618  0.00  0.00    +0.000 A 
ATOM     10  C   UNL     1       2.923   4.710  17.655  0.00  0.00    +0.000 A 
ATOM     11  C   UNL     1       3.704   4.031  16.707  0.00  0.00    +0.000 A 
ATOM     12  C   UNL     1       5.092   4.189  16.696  0.00  0.00    +0.000 A 
ATOM     13 CL   UNL     1       5.990   3.380  15.466  0.00  0.00    +0.000 Cl
ATOM     14  C   UNL     1       5.675   4.997  17.668  0.00  0.00    +0.000 A 
ATOM     15  C   UNL     1       4.912   5.637  18.656  0.00  0.00    +0.000 A 
BRANCH  14  16
ATOM     16  N   UNL     1       7.091   5.268  17.655  0.00  0.00    +0.000 N 
ATOM     17  O   UNL     1       7.486   6.195  16.939  0.00  0.00    +0.000 OA
ATOM     18  O   UNL     1       7.806   4.498  18.312  0.00  0.00    +0.000 OA
ENDBRANCH  14  16
ENDBRANCH   2   9
BRANCH   6  19
ATOM     19  C   UNL     1       0.611  11.363  18.923  0.00  0.00    +0.000 A 
ATOM     20  C   UNL     1       1.718  12.210  19.141  0.00  0.00    +0.000 A 
ATOM     21  C   UNL     1       1.624  13.608  19.091  0.00  0.00    +0.000 A 
ATOM     22  C   UNL     1       0.412  14.214  18.796  0.00  0.00    +0.000 A 
ATOM     23  C   UNL     1      -0.709  13.422  18.588  0.00  0.00    +0.000 A 
ATOM     24  C   UNL     1      -0.622  12.022  18.674  0.00  0.00    +0.000 A 
ATOM     25 CL   UNL     1      -2.154  11.201  18.580  0.00  0.00    +0.000 Cl
ENDBRANCH   6  19
TORSDOF 3
ENDMDL
MODEL 2
REMARK VINA RESULT:      -7.5      1.093      1.409
REMARK  Name = 
REMARK  3 active torsions:
REMARK  status: ('A' for Active; 'I' for Inactive)
REMARK    1  A    between atoms: C_2  and  C_3
REMARK    2  A    between atoms: C_8  and  N_9
REMARK    3  A    between atoms: N_16  and  C_17
REMARK                            x       y       z     vdW  Elec       q    Type
REMARK                         _______ _______ _______ _____ _____    ______ ____
ROOT
ATOM      1  O   UNL     1       2.377   5.551  20.663  0.00  0.00    +0.000 OA
ATOM      2  C   UNL     1       2.665   6.226  19.675  0.00  0.00    +0.000 C 
ATOM      3  N   UNL     1       2.218   7.532  19.501  0.00  0.00    +0.000 N 
ATOM      4  C   UNL     1       2.403   8.378  18.317  0.00  0.00    +0.000 C 
ATOM      5  C   UNL     1       1.143   9.156  17.908  0.00  0.00    +0.000 C 
ATOM      6  N   UNL     1       0.555   9.848  19.058  0.00  0.00    +0.000 N 
ATOM      7  C   UNL     1       0.293   8.976  20.220  0.00  0.00    +0.000 C 
ATOM      8  C   UNL     1       1.572   8.219  20.635  0.00  0.00    +0.000 C 
ENDROOT
BRANCH   2   9
ATOM      9  C   UNL     1       3.536   5.576  18.653  0.00  0.00    +0.000 A 
ATOM     10  C   UNL     1       2.939   4.731  17.704  0.00  0.00    +0.000 A 
ATOM     11  C   UNL     1       3.712   4.090  16.724  0.00  0.00    +0.000 A 
ATOM     12  C   UNL     1       5.092   4.302  16.667  0.00  0.00    +0.000 A 
ATOM     13 CL   UNL     1       5.978   3.539  15.399  0.00  0.00    +0.000 Cl
ATOM     14  C   UNL     1       5.677   5.126  17.625  0.00  0.00    +0.000 A 
ATOM     15  C   UNL     1       4.924   5.728  18.645  0.00  0.00    +0.000 A 
BRANCH  14  16
ATOM     16  N   UNL     1       7.080   5.452  17.566  0.00  0.00    +0.000 N 
ATOM     17  O   UNL     1       7.423   6.344  16.782  0.00  0.00    +0.000 OA
ATOM     18  O   UNL     1       7.837   4.757  18.258  0.00  0.00    +0.000 OA
ENDBRANCH  14  16
ENDBRANCH   2   9
BRANCH   6  19
ATOM     19  C   UNL     1       0.283  11.209  19.043  0.00  0.00    +0.000 A 
ATOM     20  C   UNL     1      -0.994  11.661  19.436  0.00  0.00    +0.000 A 
ATOM     21  C   UNL     1      -1.330  13.020  19.502  0.00  0.00    +0.000 A 
ATOM     22  C   UNL     1      -0.385  13.986  19.195  0.00  0.00    +0.000 A 
ATOM     23  C   UNL     1       0.882  13.590  18.788  0.00  0.00    +0.000 A 
ATOM     24  C   UNL     1       1.207  12.226  18.687  0.00  0.00    +0.000 A 
ATOM     25 CL   UNL     1       2.765  11.910  17.979  0.00  0.00    +0.000 Cl
ENDBRANCH   6  19
TORSDOF 3
ENDMDL
MODEL 3
REMARK VINA RESULT:      -7.2      0.988      1.238
REMARK  Name = 
REMARK  3 active torsions:
REMARK  status: ('A' for Active; 'I' for Inactive)
REMARK    1  A    between atoms: C_2  and  C_3
REMARK    2  A    between atoms: C_8  and  N_9
REMARK    3  A    between atoms: N_16  and  C_17
REMARK                            x       y       z     vdW  Elec       q    Type
REMARK                         _______ _______ _______ _____ _____    ______ ____
ROOT
ATOM      1  O   UNL     1       1.882   5.741  20.597  0.00  0.00    +0.000 OA
ATOM      2  C   UNL     1       2.298   6.420  19.659  0.00  0.00    +0.000 C 
ATOM      3  N   UNL     1       2.028   7.779  19.534  0.00  0.00    +0.000 N 
ATOM      4  C   UNL     1       2.373   8.648  18.405  0.00  0.00    +0.000 C 
ATOM      5  C   UNL     1       1.242   9.599  17.986  0.00  0.00    +0.000 C 
ATOM      6  N   UNL     1       0.691  10.306  19.147  0.00  0.00    +0.000 N 
ATOM      7  C   UNL     1       0.267   9.421  20.249  0.00  0.00    +0.000 C 
ATOM      8  C   UNL     1       1.420   8.488  20.676  0.00  0.00    +0.000 C 
ENDROOT
BRANCH   2   9
ATOM      9  C   UNL     1       3.129   5.713  18.640  0.00  0.00    +0.000 A 
ATOM     10  C   UNL     1       2.920   4.338  18.444  0.00  0.00    +0.000 A 
ATOM     11  C   UNL     1       3.677   3.622  17.503  0.00  0.00    +0.000 A 
ATOM     12  C   UNL     1       4.639   4.277  16.730  0.00  0.00    +0.000 A 
ATOM     13 CL   UNL     1       5.490   3.358  15.546  0.00  0.00    +0.000 Cl
ATOM     14  C   UNL     1       4.852   5.636  16.948  0.00  0.00    +0.000 A 
ATOM     15  C   UNL     1       4.143   6.350  17.925  0.00  0.00    +0.000 A 
BRANCH  14  16
ATOM     16  N   UNL     1       5.769   6.383  16.123  0.00  0.00    +0.000 N 
ATOM     17  O   UNL     1       6.942   6.460  16.503  0.00  0.00    +0.000 OA
ATOM     18  O   UNL     1       5.283   6.949  15.133  0.00  0.00    +0.000 OA
ENDBRANCH  14  16
ENDBRANCH   2   9
BRANCH   6  19
ATOM     19  C   UNL     1       0.592  11.690  19.191  0.00  0.00    +0.000 A 
ATOM     20  C   UNL     1       1.581  12.430  19.874  0.00  0.00    +0.000 A 
ATOM     21  C   UNL     1       1.583  13.831  19.917  0.00  0.00    +0.000 A 
ATOM     22  C   UNL     1       0.600  14.549  19.254  0.00  0.00    +0.000 A 
ATOM     23  C   UNL     1      -0.403  13.864  18.581  0.00  0.00    +0.000 A 
ATOM     24  C   UNL     1      -0.425  12.459  18.568  0.00  0.00    +0.000 A 
ATOM     25 CL   UNL     1      -1.852  11.771  17.848  0.00  0.00    +0.000 Cl
ENDBRANCH   6  19
TORSDOF 3
ENDMDL
MODEL 4
REMARK VINA RESULT:      -7.0      1.467      1.806
REMARK  Name = 
REMARK  3 active torsions:
REMARK  status: ('A' for Active; 'I' for Inactive)
REMARK    1  A    between atoms: C_2  and  C_3
REMARK    2  A    between atoms: C_8  and  N_9
REMARK    3  A    between atoms: N_16  and  C_17
REMARK                            x       y       z     vdW  Elec       q    Type
REMARK                         _______ _______ _______ _____ _____    ______ ____
ROOT
ATOM      1  O   UNL     1       1.984   5.869  20.788  0.00  0.00    +0.000 OA
ATOM      2  C   UNL     1       2.265   6.538  19.795  0.00  0.00    +0.000 C 
ATOM      3  N   UNL     1       1.872   7.865  19.645  0.00  0.00    +0.000 N 
ATOM      4  C   UNL     1       2.049   8.710  18.460  0.00  0.00    +0.000 C 
ATOM      5  C   UNL     1       0.812   9.548  18.105  0.00  0.00    +0.000 C 
ATOM      6  N   UNL     1       0.301  10.257  19.281  0.00  0.00    +0.000 N 
ATOM      7  C   UNL     1       0.044   9.388  20.447  0.00  0.00    +0.000 C 
ATOM      8  C   UNL     1       1.302   8.571  20.808  0.00  0.00    +0.000 C 
ENDROOT
BRANCH   2   9
ATOM      9  C   UNL     1       3.066   5.857  18.736  0.00  0.00    +0.000 A 
ATOM     10  C   UNL     1       2.825   4.497  18.485  0.00  0.00    +0.000 A 
ATOM     11  C   UNL     1       3.553   3.806  17.504  0.00  0.00    +0.000 A 
ATOM     12  C   UNL     1       4.519   4.472  16.745  0.00  0.00    +0.000 A 
ATOM     13 CL   UNL     1       5.333   3.586  15.511  0.00  0.00    +0.000 Cl
ATOM     14  C   UNL     1       4.764   5.816  17.016  0.00  0.00    +0.000 A 
ATOM     15  C   UNL     1       4.083   6.504  18.032  0.00  0.00    +0.000 A 
BRANCH  14  16
ATOM     16  N   UNL     1       5.684   6.579  16.210  0.00  0.00    +0.000 N 
ATOM     17  O   UNL     1       5.280   6.982  15.114  0.00  0.00    +0.000 OA
ATOM     18  O   UNL     1       6.834   6.705  16.656  0.00  0.00    +0.000 OA
ENDBRANCH  14  16
ENDBRANCH   2   9
BRANCH   6  19
ATOM     19  C   UNL     1       0.090  11.629  19.285  0.00  0.00    +0.000 A 
ATOM     20  C   UNL     1      -1.142  12.136  19.748  0.00  0.00    +0.000 A 
ATOM     21  C   UNL     1      -1.411  13.509  19.835  0.00  0.00    +0.000 A 
ATOM     22  C   UNL     1      -0.440  14.432  19.481  0.00  0.00    +0.000 A 
ATOM     23  C   UNL     1       0.784  13.981  19.005  0.00  0.00    +0.000 A 
ATOM     24  C   UNL     1       1.040  12.605  18.883  0.00  0.00    +0.000 A 
ATOM     25 CL   UNL     1       2.542  12.222  18.091  0.00  0.00    +0.000 Cl
ENDBRANCH   6  19
TORSDOF 3
ENDMDL
MODEL 5
REMARK VINA RESULT:      -7.0      2.664      3.208
REMARK  Name = 
REMARK  3 active torsions:
REMARK  status: ('A' for Active; 'I' for Inactive)
REMARK    1  A    between atoms: C_2  and  C_3
REMARK    2  A    between atoms: C_8  and  N_9
REMARK    3  A    between atoms: N_16  and  C_17
REMARK                            x       y       z     vdW  Elec       q    Type
REMARK                         _______ _______ _______ _____ _____    ______ ____
ROOT
ATOM      1  O   UNL     1       2.766   8.228  16.972  0.00  0.00    +0.000 OA
ATOM      2  C   UNL     1       2.488   7.860  18.113  0.00  0.00    +0.000 C 
ATOM      3  N   UNL     1       1.683   8.604  18.970  0.00  0.00    +0.000 N 
ATOM      4  C   UNL     1       1.388   8.318  20.377  0.00  0.00    +0.000 C 
ATOM      5  C   UNL     1       1.450   9.553  21.288  0.00  0.00    +0.000 C 
ATOM      6  N   UNL     1       0.676  10.662  20.723  0.00  0.00    +0.000 N 
ATOM      7  C   UNL     1       1.034  11.003  19.332  0.00  0.00    +0.000 C 
ATOM      8  C   UNL     1       0.945   9.759  18.424  0.00  0.00    +0.000 C 
ENDROOT
BRANCH   2   9
ATOM      9  C   UNL     1       3.056   6.551  18.549  0.00  0.00    +0.000 A 
ATOM     10  C   UNL     1       2.170   5.507  18.860  0.00  0.00    +0.000 A 
ATOM     11  C   UNL     1       2.650   4.257  19.280  0.00  0.00    +0.000 A 
ATOM     12  C   UNL     1       4.025   4.027  19.374  0.00  0.00    +0.000 A 
ATOM     13 CL   UNL     1       4.555   2.451  19.832  0.00  0.00    +0.000 Cl
ATOM     14  C   UNL     1       4.894   5.075  19.083  0.00  0.00    +0.000 A 
ATOM     15  C   UNL     1       4.427   6.346  18.717  0.00  0.00    +0.000 A 
BRANCH  14  16
ATOM     16  N   UNL     1       6.322   4.875  19.078  0.00  0.00    +0.000 N 
ATOM     17  O   UNL     1       6.966   5.345  20.022  0.00  0.00    +0.000 OA
ATOM     18  O   UNL     1       6.795   4.305  18.084  0.00  0.00    +0.000 OA
ENDBRANCH  14  16
ENDBRANCH   2   9
BRANCH   6  19
ATOM     19  C   UNL     1      -0.311  11.319  21.445  0.00  0.00    +0.000 A 
ATOM     20  C   UNL     1      -0.834  12.532  20.951  0.00  0.00    +0.000 A 
ATOM     21  C   UNL     1      -1.870  13.227  21.591  0.00  0.00    +0.000 A 
ATOM     22  C   UNL     1      -2.440  12.717  22.747  0.00  0.00    +0.000 A 
ATOM     23  C   UNL     1      -1.948  11.532  23.280  0.00  0.00    +0.000 A 
ATOM     24  C   UNL     1      -0.885  10.855  22.658  0.00  0.00    +0.000 A 
ATOM     25 CL   UNL     1      -0.270   9.502  23.562  0.00  0.00    +0.000 Cl
ENDBRANCH   6  19
TORSDOF 3
ENDMDL
MODEL 6
REMARK VINA RESULT:      -7.0      1.034      1.215
REMARK  Name = 
REMARK  3 active torsions:
REMARK  status: ('A' for Active; 'I' for Inactive)
REMARK    1  A    between atoms: C_2  and  C_3
REMARK    2  A    between atoms: C_8  and  N_9
REMARK    3  A    between atoms: N_16  and  C_17
REMARK                            x       y       z     vdW  Elec       q    Type
REMARK                         _______ _______ _______ _____ _____    ______ ____
ROOT
ATOM      1  O   UNL     1       2.229   5.256  20.708  0.00  0.00    +0.000 OA
ATOM      2  C   UNL     1       2.613   6.002  19.808  0.00  0.00    +0.000 C 
ATOM      3  N   UNL     1       2.266   7.349  19.747  0.00  0.00    +0.000 N 
ATOM      4  C   UNL     1       2.569   8.290  18.665  0.00  0.00    +0.000 C 
ATOM      5  C   UNL     1       1.388   9.195  18.281  0.00  0.00    +0.000 C 
ATOM      6  N   UNL     1       0.791   9.812  19.469  0.00  0.00    +0.000 N 
ATOM      7  C   UNL     1       0.410   8.852  20.524  0.00  0.00    +0.000 C 
ATOM      8  C   UNL     1       1.611   7.966  20.916  0.00  0.00    +0.000 C 
ENDROOT
BRANCH   2   9
ATOM      9  C   UNL     1       3.489   5.394  18.765  0.00  0.00    +0.000 A 
ATOM     10  C   UNL     1       2.889   4.636  17.746  0.00  0.00    +0.000 A 
ATOM     11  C   UNL     1       3.666   4.037  16.742  0.00  0.00    +0.000 A 
ATOM     12  C   UNL     1       5.053   4.205  16.733  0.00  0.00    +0.000 A 
ATOM     13 CL   UNL     1       5.947   3.499  15.437  0.00  0.00    +0.000 Cl
ATOM     14  C   UNL     1       5.639   4.941  17.759  0.00  0.00    +0.000 A 
ATOM     15  C   UNL     1       4.880   5.497  18.799  0.00  0.00    +0.000 A 
BRANCH  14  16
ATOM     16  N   UNL     1       7.054   5.221  17.756  0.00  0.00    +0.000 N 
ATOM     17  O   UNL     1       7.764   4.574  18.533  0.00  0.00    +0.000 OA
ATOM     18  O   UNL     1       7.431   6.144  17.019  0.00  0.00    +0.000 OA
ENDBRANCH  14  16
ENDBRANCH   2   9
BRANCH   6  19
ATOM     19  C   UNL     1       0.613  11.184  19.580  0.00  0.00    +0.000 A 
ATOM     20  C   UNL     1       1.138  12.030  18.581  0.00  0.00    +0.000 A 
ATOM     21  C   UNL     1       0.953  13.420  18.590  0.00  0.00    +0.000 A 
ATOM     22  C   UNL     1       0.211  14.016  19.598  0.00  0.00    +0.000 A 
ATOM     23  C   UNL     1      -0.314  13.226  20.612  0.00  0.00    +0.000 A 
ATOM     24  C   UNL     1      -0.097  11.837  20.622  0.00  0.00    +0.000 A 
ATOM     25 CL   UNL     1      -0.656  11.034  22.061  0.00  0.00    +0.000 Cl
ENDBRANCH   6  19
TORSDOF 3
ENDMDL
MODEL 7
REMARK VINA RESULT:      -6.9      2.754      3.809
REMARK  Name = 
REMARK  3 active torsions:
REMARK  status: ('A' for Active; 'I' for Inactive)
REMARK    1  A    between atoms: C_2  and  C_3
REMARK    2  A    between atoms: C_8  and  N_9
REMARK    3  A    between atoms: N_16  and  C_17
REMARK                            x       y       z     vdW  Elec       q    Type
REMARK                         _______ _______ _______ _____ _____    ______ ____
ROOT
ATOM      1  O   UNL     1       3.241   8.107  17.101  0.00  0.00    +0.000 OA
ATOM      2  C   UNL     1       2.701   7.682  18.122  0.00  0.00    +0.000 C 
ATOM      3  N   UNL     1       1.783   8.428  18.854  0.00  0.00    +0.000 N 
ATOM      4  C   UNL     1       1.176   8.068  20.139  0.00  0.00    +0.000 C 
ATOM      5  C   UNL     1       1.123   9.225  21.147  0.00  0.00    +0.000 C 
ATOM      6  N   UNL     1       0.563  10.433  20.533  0.00  0.00    +0.000 N 
ATOM      7  C   UNL     1       1.233  10.841  19.282  0.00  0.00    +0.000 C 
ATOM      8  C   UNL     1       1.257   9.677  18.270  0.00  0.00    +0.000 C 
ENDROOT
BRANCH   2   9
ATOM      9  C   UNL     1       3.075   6.302  18.551  0.00  0.00    +0.000 A 
ATOM     10  C   UNL     1       4.413   6.047  18.891  0.00  0.00    +0.000 A 
ATOM     11  C   UNL     1       4.821   4.766  19.295  0.00  0.00    +0.000 A 
ATOM     12  C   UNL     1       3.890   3.728  19.385  0.00  0.00    +0.000 A 
ATOM     13 CL   UNL     1       4.439   2.194  19.950  0.00  0.00    +0.000 Cl
ATOM     14  C   UNL     1       2.570   3.987  19.025  0.00  0.00    +0.000 A 
ATOM     15  C   UNL     1       2.161   5.248  18.565  0.00  0.00    +0.000 A 
BRANCH  14  16
ATOM     16  N   UNL     1       1.549   2.981  19.179  0.00  0.00    +0.000 N 
ATOM     17  O   UNL     1       1.167   2.398  18.158  0.00  0.00    +0.000 OA
ATOM     18  O   UNL     1       1.086   2.835  20.319  0.00  0.00    +0.000 OA
ENDBRANCH  14  16
ENDBRANCH   2   9
BRANCH   6  19
ATOM     19  C   UNL     1      -0.509  11.117  21.089  0.00  0.00    +0.000 A 
ATOM     20  C   UNL     1      -0.658  11.142  22.491  0.00  0.00    +0.000 A 
ATOM     21  C   UNL     1      -1.680  11.857  23.131  0.00  0.00    +0.000 A 
ATOM     22  C   UNL     1      -2.585  12.596  22.385  0.00  0.00    +0.000 A 
ATOM     23  C   UNL     1      -2.488  12.589  21.001  0.00  0.00    +0.000 A 
ATOM     24  C   UNL     1      -1.485  11.844  20.357  0.00  0.00    +0.000 A 
ATOM     25 CL   UNL     1      -1.630  11.792  18.624  0.00  0.00    +0.000 Cl
ENDBRANCH   6  19
TORSDOF 3
ENDMDL
MODEL 8
REMARK VINA RESULT:      -6.9      2.961      4.017
REMARK  Name = 
REMARK  3 active torsions:
REMARK  status: ('A' for Active; 'I' for Inactive)
REMARK    1  A    between atoms: C_2  and  C_3
REMARK    2  A    between atoms: C_8  and  N_9
REMARK    3  A    between atoms: N_16  and  C_17
REMARK                            x       y       z     vdW  Elec       q    Type
REMARK                         _______ _______ _______ _____ _____    ______ ____
ROOT
ATOM      1  O   UNL     1       3.102   7.957  17.047  0.00  0.00    +0.000 OA
ATOM      2  C   UNL     1       2.662   7.568  18.128  0.00  0.00    +0.000 C 
ATOM      3  N   UNL     1       1.831   8.348  18.927  0.00  0.00    +0.000 N 
ATOM      4  C   UNL     1       1.351   8.031  20.275  0.00  0.00    +0.000 C 
ATOM      5  C   UNL     1       1.413   9.215  21.251  0.00  0.00    +0.000 C 
ATOM      6  N   UNL     1       0.811  10.415  20.662  0.00  0.00    +0.000 N 
ATOM      7  C   UNL     1       1.357  10.780  19.340  0.00  0.00    +0.000 C 
ATOM      8  C   UNL     1       1.265   9.588  18.363  0.00  0.00    +0.000 C 
ENDROOT
BRANCH   2   9
ATOM      9  C   UNL     1       3.058   6.195  18.555  0.00  0.00    +0.000 A 
ATOM     10  C   UNL     1       4.423   5.921  18.745  0.00  0.00    +0.000 A 
ATOM     11  C   UNL     1       4.852   4.645  19.142  0.00  0.00    +0.000 A 
ATOM     12  C   UNL     1       3.920   3.630  19.374  0.00  0.00    +0.000 A 
ATOM     13 CL   UNL     1       4.504   2.103  19.922  0.00  0.00    +0.000 Cl
ATOM     14  C   UNL     1       2.572   3.907  19.162  0.00  0.00    +0.000 A 
ATOM     15  C   UNL     1       2.134   5.161  18.712  0.00  0.00    +0.000 A 
BRANCH  14  16
ATOM     16  N   UNL     1       1.558   2.928  19.468  0.00  0.00    +0.000 N 
ATOM     17  O   UNL     1       1.153   2.875  20.634  0.00  0.00    +0.000 OA
ATOM     18  O   UNL     1       1.227   2.170  18.545  0.00  0.00    +0.000 OA
ENDBRANCH  14  16
ENDBRANCH   2   9
BRANCH   6  19
ATOM     19  C   UNL     1      -0.191  11.130  21.302  0.00  0.00    +0.000 A 
ATOM     20  C   UNL     1      -0.730  12.274  20.676  0.00  0.00    +0.000 A 
ATOM     21  C   UNL     1      -1.782  13.016  21.231  0.00  0.00    +0.000 A 
ATOM     22  C   UNL     1      -2.352  12.625  22.432  0.00  0.00    +0.000 A 
ATOM     23  C   UNL     1      -1.846  11.514  23.093  0.00  0.00    +0.000 A 
ATOM     24  C   UNL     1      -0.768  10.791  22.555  0.00  0.00    +0.000 A 
ATOM     25 CL   UNL     1      -0.138   9.554  23.604  0.00  0.00    +0.000 Cl
ENDBRANCH   6  19
TORSDOF 3
ENDMDL
MODEL 9
REMARK VINA RESULT:      -6.8      3.042      4.162
REMARK  Name = 
REMARK  3 active torsions:
REMARK  status: ('A' for Active; 'I' for Inactive)
REMARK    1  A    between atoms: C_2  and  C_3
REMARK    2  A    between atoms: C_8  and  N_9
REMARK    3  A    between atoms: N_16  and  C_17
REMARK                            x       y       z     vdW  Elec       q    Type
REMARK                         _______ _______ _______ _____ _____    ______ ____
ROOT
ATOM      1  O   UNL     1       2.570   8.374  17.083  0.00  0.00    +0.000 OA
ATOM      2  C   UNL     1       2.267   8.001  18.216  0.00  0.00    +0.000 C 
ATOM      3  N   UNL     1       1.556   8.800  19.106  0.00  0.00    +0.000 N 
ATOM      4  C   UNL     1       1.248   8.503  20.508  0.00  0.00    +0.000 C 
ATOM      5  C   UNL     1       1.451   9.695  21.454  0.00  0.00    +0.000 C 
ATOM      6  N   UNL     1       0.794  10.898  20.934  0.00  0.00    +0.000 N 
ATOM      7  C   UNL     1       1.171  11.242  19.549  0.00  0.00    +0.000 C 
ATOM      8  C   UNL     1       0.939  10.043  18.605  0.00  0.00    +0.000 C 
ENDROOT
BRANCH   2   9
ATOM      9  C   UNL     1       2.697   6.626  18.604  0.00  0.00    +0.000 A 
ATOM     10  C   UNL     1       4.054   6.405  18.890  0.00  0.00    +0.000 A 
ATOM     11  C   UNL     1       4.514   5.130  19.255  0.00  0.00    +0.000 A 
ATOM     12  C   UNL     1       3.619   4.063  19.359  0.00  0.00    +0.000 A 
ATOM     13 CL   UNL     1       4.234   2.536  19.875  0.00  0.00    +0.000 Cl
ATOM     14  C   UNL     1       2.280   4.289  19.053  0.00  0.00    +0.000 A 
ATOM     15  C   UNL     1       1.816   5.544  18.632  0.00  0.00    +0.000 A 
BRANCH  14  16
ATOM     16  N   UNL     1       1.295   3.249  19.225  0.00  0.00    +0.000 N 
ATOM     17  O   UNL     1       1.036   2.543  18.245  0.00  0.00    +0.000 OA
ATOM     18  O   UNL     1       0.736   3.198  20.330  0.00  0.00    +0.000 OA
ENDBRANCH  14  16
ENDBRANCH   2   9
BRANCH   6  19
ATOM     19  C   UNL     1      -0.108  11.633  21.690  0.00  0.00    +0.000 A 
ATOM     20  C   UNL     1      -1.128  10.959  22.393  0.00  0.00    +0.000 A 
ATOM     21  C   UNL     1      -2.043  11.623  23.222  0.00  0.00    +0.000 A 
ATOM     22  C   UNL     1      -1.955  12.996  23.396  0.00  0.00    +0.000 A 
ATOM     23  C   UNL     1      -0.977  13.705  22.712  0.00  0.00    +0.000 A 
ATOM     24  C   UNL     1      -0.083  13.043  21.853  0.00  0.00    +0.000 A 
ATOM     25 CL   UNL     1       0.946  14.103  20.933  0.00  0.00    +0.000 Cl
ENDBRANCH   6  19
TORSDOF 3
ENDMDL
