MODEL 1
REMARK VINA RESULT:      -7.6      0.000      0.000
REMARK  Name = 
REMARK  14 active torsions:
REMARK  status: ('A' for Active; 'I' for Inactive)
REMARK    1  A    between atoms: C_1  and  O_2
REMARK    2  A    between atoms: O_2  and  C_3
REMARK    3  A    between atoms: C_5  and  O_6
REMARK    4  A    between atoms: O_6  and  C_7
REMARK    5  A    between atoms: C_8  and  C_9
REMARK    6  A    between atoms: N_10  and  C_11
REMARK    7  A    between atoms: C_11  and  C_12
REMARK    8  A    between atoms: C_14  and  C_15
REMARK    9  A    between atoms: C_14  and  N_17
REMARK   10  A    between atoms: N_20  and  S_21
REMARK   11  A    between atoms: S_21  and  C_24
REMARK   12  A    between atoms: C_27  and  C_28
REMARK   13  A    between atoms: C_31  and  O_32
REMARK   14  A    between atoms: O_32  and  C_33
REMARK                            x       y       z     vdW  Elec       q    Type
REMARK                         _______ _______ _______ _____ _____    ______ ____
ROOT
ATOM      1  C   UNL     1       2.467   4.248  20.396  0.00  0.00    +0.000 C 
ATOM      2  C   UNL     1       3.530   3.805  19.682  0.00  0.00    +0.000 C 
ENDROOT
BRANCH   2   3
ATOM      3  N   UNL     1       3.973   4.509  18.550  0.00  0.00    +0.000 N 
ATOM      4  C   UNL     1       5.285   4.552  18.144  0.00  0.00    +0.000 C 
ATOM      5  O   UNL     1       6.178   3.995  18.760  0.00  0.00    +0.000 OA
ATOM      6  N   UNL     1       5.568   5.264  16.984  0.00  0.00    +0.000 N 
ATOM      7  H   UNL     1       3.265   5.031  18.044  0.00  0.00    +0.000 HD
ATOM      8  H   UNL     1       4.874   5.692  16.382  0.00  0.00    +0.000 HD
BRANCH   6   9
ATOM      9  S   UNL     1       7.144   5.368  16.397  0.00  0.00    +0.000 S 
ATOM     10  O   UNL     1       7.480   6.776  16.400  0.00  0.00    +0.000 OA
ATOM     11  O   UNL     1       7.954   4.413  17.119  0.00  0.00    +0.000 OA
BRANCH   9  12
ATOM     12  C   UNL     1       6.991   4.860  14.695  0.00  0.00    +0.000 A 
ATOM     13  C   UNL     1       6.070   3.865  14.355  0.00  0.00    +0.000 A 
ATOM     14  C   UNL     1       6.060   3.357  13.054  0.00  0.00    +0.000 A 
ATOM     15  C   UNL     1       6.951   3.846  12.088  0.00  0.00    +0.000 A 
ATOM     16  C   UNL     1       6.965   3.287  10.694  0.00  0.00    +0.000 C 
ATOM     17  C   UNL     1       7.846   4.866  12.436  0.00  0.00    +0.000 A 
ATOM     18  C   UNL     1       7.862   5.382  13.734  0.00  0.00    +0.000 A 
ENDBRANCH   9  12
ENDBRANCH   6   9
ENDBRANCH   2   3
BRANCH   1  20
ATOM     19  C   UNL     1       2.398   6.550  20.279  0.00  0.00    +0.000 C 
ATOM     20  N   UNL     1       1.816   5.418  20.009  0.00  0.00    +0.000 NA
BRANCH  19  24
ATOM     21  C   UNL     1       0.535  10.206  19.024  0.00  0.00    +0.000 A 
ATOM     22  C   UNL     1       0.458   9.822  20.366  0.00  0.00    +0.000 A 
ATOM     23  C   UNL     1       1.110   8.674  20.844  0.00  0.00    +0.000 A 
ATOM     24  C   UNL     1       1.810   7.866  19.934  0.00  0.00    +0.000 A 
ATOM     25  C   UNL     1       1.912   8.265  18.574  0.00  0.00    +0.000 A 
ATOM     26  C   UNL     1       1.260   9.426  18.131  0.00  0.00    +0.000 A 
BRANCH  21  28
ATOM     27  C   UNL     1      -1.555  11.332  19.030  0.00  0.00    +0.000 C 
ATOM     28  O   UNL     1      -0.170  11.332  18.698  0.00  0.00    +0.000 OA
ENDBRANCH  21  28
BRANCH  23  29
ATOM     29  O   UNL     1       0.901   8.484  22.184  0.00  0.00    +0.000 OA
ATOM     30  C   UNL     1       0.171   9.466  22.911  0.00  0.00    +0.000 C 
ENDBRANCH  23  29
BRANCH  25  31
ATOM     31  O   UNL     1       2.638   7.452  17.732  0.00  0.00    +0.000 OA
ATOM     32  C   UNL     1       3.855   7.971  17.194  0.00  0.00    +0.000 C 
ENDBRANCH  25  31
ENDBRANCH  19  24
ENDBRANCH   1  20
BRANCH   1  33
ATOM     33  C   UNL     1       1.984   3.451  21.509  0.00  0.00    +0.000 C 
ATOM     34  N   UNL     1       1.625   2.795  22.390  0.00  0.00    +0.000 NA
ENDBRANCH   1  33
BRANCH   2  35
ATOM     35  C   UNL     1       4.203   2.602  20.107  0.00  0.00    +0.000 C 
ATOM     36  N   UNL     1       4.783   1.676  20.488  0.00  0.00    +0.000 NA
ENDBRANCH   2  35
TORSDOF 10
ENDMDL
MODEL 2
REMARK VINA RESULT:      -7.4      5.651      9.448
REMARK  Name = 
REMARK  14 active torsions:
REMARK  status: ('A' for Active; 'I' for Inactive)
REMARK    1  A    between atoms: C_1  and  O_2
REMARK    2  A    between atoms: O_2  and  C_3
REMARK    3  A    between atoms: C_5  and  O_6
REMARK    4  A    between atoms: O_6  and  C_7
REMARK    5  A    between atoms: C_8  and  C_9
REMARK    6  A    between atoms: N_10  and  C_11
REMARK    7  A    between atoms: C_11  and  C_12
REMARK    8  A    between atoms: C_14  and  C_15
REMARK    9  A    between atoms: C_14  and  N_17
REMARK   10  A    between atoms: N_20  and  S_21
REMARK   11  A    between atoms: S_21  and  C_24
REMARK   12  A    between atoms: C_27  and  C_28
REMARK   13  A    between atoms: C_31  and  O_32
REMARK   14  A    between atoms: O_32  and  C_33
REMARK                            x       y       z     vdW  Elec       q    Type
REMARK                         _______ _______ _______ _____ _____    ______ ____
ROOT
ATOM      1  C   UNL     1      -2.614  14.328  21.640  0.00  0.00    +0.000 C 
ATOM      2  C   UNL     1      -1.544  13.933  22.370  0.00  0.00    +0.000 C 
ENDROOT
BRANCH   2   3
ATOM      3  N   UNL     1      -0.623  13.009  21.847  0.00  0.00    +0.000 N 
ATOM      4  C   UNL     1      -0.526  11.706  22.271  0.00  0.00    +0.000 C 
ATOM      5  O   UNL     1      -1.225  11.255  23.164  0.00  0.00    +0.000 OA
ATOM      6  N   UNL     1       0.412  10.900  21.636  0.00  0.00    +0.000 N 
ATOM      7  H   UNL     1       0.013  13.364  21.141  0.00  0.00    +0.000 HD
ATOM      8  H   UNL     1       0.977  11.181  20.843  0.00  0.00    +0.000 HD
BRANCH   6   9
ATOM      9  S   UNL     1       0.601   9.284  22.076  0.00  0.00    +0.000 S 
ATOM     10  O   UNL     1       1.627   9.265  23.098  0.00  0.00    +0.000 OA
ATOM     11  O   UNL     1      -0.710   8.734  22.335  0.00  0.00    +0.000 OA
BRANCH   9  12
ATOM     12  C   UNL     1       1.290   8.531  20.615  0.00  0.00    +0.000 A 
ATOM     13  C   UNL     1       1.824   7.242  20.693  0.00  0.00    +0.000 A 
ATOM     14  C   UNL     1       2.504   6.714  19.594  0.00  0.00    +0.000 A 
ATOM     15  C   UNL     1       2.640   7.458  18.412  0.00  0.00    +0.000 A 
ATOM     16  C   UNL     1       3.391   6.908  17.233  0.00  0.00    +0.000 C 
ATOM     17  C   UNL     1       2.070   8.735  18.338  0.00  0.00    +0.000 A 
ATOM     18  C   UNL     1       1.388   9.270  19.432  0.00  0.00    +0.000 A 
ENDBRANCH   9  12
ENDBRANCH   6   9
ENDBRANCH   2   3
BRANCH   1  20
ATOM     19  C   UNL     1      -3.218  12.597  20.243  0.00  0.00    +0.000 C 
ATOM     20  N   UNL     1      -2.796  13.822  20.354  0.00  0.00    +0.000 NA
BRANCH  19  24
ATOM     21  C   UNL     1      -4.035  10.953  16.364  0.00  0.00    +0.000 A 
ATOM     22  C   UNL     1      -2.726  10.938  16.854  0.00  0.00    +0.000 A 
ATOM     23  C   UNL     1      -2.415  11.397  18.144  0.00  0.00    +0.000 A 
ATOM     24  C   UNL     1      -3.443  11.933  18.936  0.00  0.00    +0.000 A 
ATOM     25  C   UNL     1      -4.779  11.927  18.453  0.00  0.00    +0.000 A 
ATOM     26  C   UNL     1      -5.058  11.449  17.164  0.00  0.00    +0.000 A 
BRANCH  21  28
ATOM     27  C   UNL     1      -2.998  10.073  14.418  0.00  0.00    +0.000 C 
ATOM     28  O   UNL     1      -4.184  10.499  15.082  0.00  0.00    +0.000 OA
ENDBRANCH  21  28
BRANCH  23  29
ATOM     29  O   UNL     1      -1.077  11.294  18.417  0.00  0.00    +0.000 OA
ATOM     30  C   UNL     1      -0.261  12.454  18.301  0.00  0.00    +0.000 C 
ENDBRANCH  23  29
BRANCH  25  31
ATOM     31  O   UNL     1      -5.752  12.435  19.285  0.00  0.00    +0.000 OA
ATOM     32  C   UNL     1      -6.591  13.470  18.772  0.00  0.00    +0.000 C 
ENDBRANCH  25  31
ENDBRANCH  19  24
ENDBRANCH   1  20
BRANCH   1  33
ATOM     33  C   UNL     1      -3.589  15.218  22.243  0.00  0.00    +0.000 C 
ATOM     34  N   UNL     1      -4.348  15.952  22.712  0.00  0.00    +0.000 NA
ENDBRANCH   1  33
BRANCH   2  35
ATOM     35  C   UNL     1      -1.361  14.480  23.693  0.00  0.00    +0.000 C 
ATOM     36  N   UNL     1      -1.154  14.886  24.757  0.00  0.00    +0.000 NA
ENDBRANCH   2  35
TORSDOF 10
ENDMDL
MODEL 3
REMARK VINA RESULT:      -7.3      2.432      3.418
REMARK  Name = 
REMARK  14 active torsions:
REMARK  status: ('A' for Active; 'I' for Inactive)
REMARK    1  A    between atoms: C_1  and  O_2
REMARK    2  A    between atoms: O_2  and  C_3
REMARK    3  A    between atoms: C_5  and  O_6
REMARK    4  A    between atoms: O_6  and  C_7
REMARK    5  A    between atoms: C_8  and  C_9
REMARK    6  A    between atoms: N_10  and  C_11
REMARK    7  A    between atoms: C_11  and  C_12
REMARK    8  A    between atoms: C_14  and  C_15
REMARK    9  A    between atoms: C_14  and  N_17
REMARK   10  A    between atoms: N_20  and  S_21
REMARK   11  A    between atoms: S_21  and  C_24
REMARK   12  A    between atoms: C_27  and  C_28
REMARK   13  A    between atoms: C_31  and  O_32
REMARK   14  A    between atoms: O_32  and  C_33
REMARK                            x       y       z     vdW  Elec       q    Type
REMARK                         _______ _______ _______ _____ _____    ______ ____
ROOT
ATOM      1  C   UNL     1       2.549   4.124  20.389  0.00  0.00    +0.000 C 
ATOM      2  C   UNL     1       3.578   3.581  19.695  0.00  0.00    +0.000 C 
ENDROOT
BRANCH   2   3
ATOM      3  N   UNL     1       4.026   4.174  18.501  0.00  0.00    +0.000 N 
ATOM      4  C   UNL     1       5.349   4.405  18.215  0.00  0.00    +0.000 C 
ATOM      5  O   UNL     1       6.244   4.132  18.998  0.00  0.00    +0.000 OA
ATOM      6  N   UNL     1       5.642   4.970  16.979  0.00  0.00    +0.000 N 
ATOM      7  H   UNL     1       3.304   4.465  17.850  0.00  0.00    +0.000 HD
ATOM      8  H   UNL     1       4.962   5.157  16.251  0.00  0.00    +0.000 HD
BRANCH   6   9
ATOM      9  S   UNL     1       7.235   5.282  16.528  0.00  0.00    +0.000 S 
ATOM     10  O   UNL     1       8.025   4.195  17.067  0.00  0.00    +0.000 OA
ATOM     11  O   UNL     1       7.251   5.577  15.113  0.00  0.00    +0.000 OA
BRANCH   9  12
ATOM     12  C   UNL     1       7.650   6.750  17.451  0.00  0.00    +0.000 A 
ATOM     13  C   UNL     1       7.459   8.005  16.868  0.00  0.00    +0.000 A 
ATOM     14  C   UNL     1       7.929   9.145  17.525  0.00  0.00    +0.000 A 
ATOM     15  C   UNL     1       8.573   9.040  18.767  0.00  0.00    +0.000 A 
ATOM     16  C   UNL     1       9.104  10.258  19.469  0.00  0.00    +0.000 C 
ATOM     17  C   UNL     1       8.727   7.777  19.353  0.00  0.00    +0.000 A 
ATOM     18  C   UNL     1       8.259   6.633  18.705  0.00  0.00    +0.000 A 
ENDBRANCH   9  12
ENDBRANCH   6   9
ENDBRANCH   2   3
BRANCH   1  20
ATOM     19  C   UNL     1       2.377   6.423  20.373  0.00  0.00    +0.000 C 
ATOM     20  N   UNL     1       1.937   5.285  19.921  0.00  0.00    +0.000 NA
BRANCH  19  24
ATOM     21  C   UNL     1       0.623  10.057  18.914  0.00  0.00    +0.000 A 
ATOM     22  C   UNL     1       0.333   9.629  20.213  0.00  0.00    +0.000 A 
ATOM     23  C   UNL     1       0.935   8.486  20.765  0.00  0.00    +0.000 A 
ATOM     24  C   UNL     1       1.809   7.731  19.967  0.00  0.00    +0.000 A 
ATOM     25  C   UNL     1       2.127   8.176  18.655  0.00  0.00    +0.000 A 
ATOM     26  C   UNL     1       1.518   9.330  18.139  0.00  0.00    +0.000 A 
BRANCH  21  28
ATOM     27  C   UNL     1      -1.474  11.058  18.428  0.00  0.00    +0.000 C 
ATOM     28  O   UNL     1      -0.056  11.171  18.502  0.00  0.00    +0.000 OA
ENDBRANCH  21  28
BRANCH  23  29
ATOM     29  O   UNL     1       0.508   8.248  22.044  0.00  0.00    +0.000 OA
ATOM     30  C   UNL     1       0.415   9.339  22.952  0.00  0.00    +0.000 C 
ENDBRANCH  23  29
BRANCH  25  31
ATOM     31  O   UNL     1       3.014   7.414  17.929  0.00  0.00    +0.000 OA
ATOM     32  C   UNL     1       3.783   8.070  16.922  0.00  0.00    +0.000 C 
ENDBRANCH  25  31
ENDBRANCH  19  24
ENDBRANCH   1  20
BRANCH   1  33
ATOM     33  C   UNL     1       2.058   3.439  21.570  0.00  0.00    +0.000 C 
ATOM     34  N   UNL     1       1.667   2.865  22.494  0.00  0.00    +0.000 NA
ENDBRANCH   1  33
BRANCH   2  35
ATOM     35  C   UNL     1       4.211   2.388  20.203  0.00  0.00    +0.000 C 
ATOM     36  N   UNL     1       4.725   1.410  20.545  0.00  0.00    +0.000 NA
ENDBRANCH   2  35
TORSDOF 10
ENDMDL
MODEL 4
REMARK VINA RESULT:      -7.3      6.091      9.589
REMARK  Name = 
REMARK  14 active torsions:
REMARK  status: ('A' for Active; 'I' for Inactive)
REMARK    1  A    between atoms: C_1  and  O_2
REMARK    2  A    between atoms: O_2  and  C_3
REMARK    3  A    between atoms: C_5  and  O_6
REMARK    4  A    between atoms: O_6  and  C_7
REMARK    5  A    between atoms: C_8  and  C_9
REMARK    6  A    between atoms: N_10  and  C_11
REMARK    7  A    between atoms: C_11  and  C_12
REMARK    8  A    between atoms: C_14  and  C_15
REMARK    9  A    between atoms: C_14  and  N_17
REMARK   10  A    between atoms: N_20  and  S_21
REMARK   11  A    between atoms: S_21  and  C_24
REMARK   12  A    between atoms: C_27  and  C_28
REMARK   13  A    between atoms: C_31  and  O_32
REMARK   14  A    between atoms: O_32  and  C_33
REMARK                            x       y       z     vdW  Elec       q    Type
REMARK                         _______ _______ _______ _____ _____    ______ ____
ROOT
ATOM      1  C   UNL     1      -3.947  13.419  22.381  0.00  0.00    +0.000 C 
ATOM      2  C   UNL     1      -2.739  13.553  22.978  0.00  0.00    +0.000 C 
ENDROOT
BRANCH   2   3
ATOM      3  N   UNL     1      -1.615  12.875  22.476  0.00  0.00    +0.000 N 
ATOM      4  C   UNL     1      -1.315  11.569  22.776  0.00  0.00    +0.000 C 
ATOM      5  O   UNL     1      -1.998  10.899  23.533  0.00  0.00    +0.000 OA
ATOM      6  N   UNL     1      -0.185  11.022  22.178  0.00  0.00    +0.000 N 
ATOM      7  H   UNL     1      -0.993  13.419  21.887  0.00  0.00    +0.000 HD
ATOM      8  H   UNL     1       0.390  11.491  21.488  0.00  0.00    +0.000 HD
BRANCH   6   9
ATOM      9  S   UNL     1       0.262   9.425  22.474  0.00  0.00    +0.000 S 
ATOM     10  O   UNL     1       1.237   9.474  23.544  0.00  0.00    +0.000 OA
ATOM     11  O   UNL     1      -0.943   8.640  22.608  0.00  0.00    +0.000 OA
BRANCH   9  12
ATOM     12  C   UNL     1       1.126   8.951  20.989  0.00  0.00    +0.000 A 
ATOM     13  C   UNL     1       1.059   9.774  19.862  0.00  0.00    +0.000 A 
ATOM     14  C   UNL     1       1.601   9.329  18.654  0.00  0.00    +0.000 A 
ATOM     15  C   UNL     1       2.225   8.075  18.570  0.00  0.00    +0.000 A 
ATOM     16  C   UNL     1       2.789   7.577  17.269  0.00  0.00    +0.000 C 
ATOM     17  C   UNL     1       2.314   7.276  19.717  0.00  0.00    +0.000 A 
ATOM     18  C   UNL     1       1.775   7.714  20.928  0.00  0.00    +0.000 A 
ENDBRANCH   9  12
ENDBRANCH   6   9
ENDBRANCH   2   3
BRANCH   1  20
ATOM     19  C   UNL     1      -3.362  12.918  20.208  0.00  0.00    +0.000 C 
ATOM     20  N   UNL     1      -4.073  12.611  21.252  0.00  0.00    +0.000 NA
BRANCH  19  24
ATOM     21  C   UNL     1      -3.317  10.454  16.695  0.00  0.00    +0.000 A 
ATOM     22  C   UNL     1      -4.532  10.970  17.156  0.00  0.00    +0.000 A 
ATOM     23  C   UNL     1      -4.594  11.839  18.257  0.00  0.00    +0.000 A 
ATOM     24  C   UNL     1      -3.408  12.151  18.940  0.00  0.00    +0.000 A 
ATOM     25  C   UNL     1      -2.168  11.649  18.461  0.00  0.00    +0.000 A 
ATOM     26  C   UNL     1      -2.139  10.794  17.349  0.00  0.00    +0.000 A 
BRANCH  21  28
ATOM     27  C   UNL     1      -3.368  10.196  14.336  0.00  0.00    +0.000 C 
ATOM     28  O   UNL     1      -3.411   9.602  15.630  0.00  0.00    +0.000 OA
ENDBRANCH  21  28
BRANCH  23  29
ATOM     29  O   UNL     1      -5.879  12.220  18.539  0.00  0.00    +0.000 OA
ATOM     30  C   UNL     1      -6.937  11.298  18.303  0.00  0.00    +0.000 C 
ENDBRANCH  23  29
BRANCH  25  31
ATOM     31  O   UNL     1      -1.033  12.014  19.150  0.00  0.00    +0.000 OA
ATOM     32  C   UNL     1      -0.187  13.002  18.562  0.00  0.00    +0.000 C 
ENDBRANCH  25  31
ENDBRANCH  19  24
ENDBRANCH   1  20
BRANCH   1  33
ATOM     33  C   UNL     1      -5.102  14.065  22.976  0.00  0.00    +0.000 C 
ATOM     34  N   UNL     1      -6.041  14.554  23.439  0.00  0.00    +0.000 NA
ENDBRANCH   1  33
BRANCH   2  35
ATOM     35  C   UNL     1      -2.623  14.407  24.135  0.00  0.00    +0.000 C 
ATOM     36  N   UNL     1      -2.498  15.040  25.096  0.00  0.00    +0.000 NA
ENDBRANCH   2  35
TORSDOF 10
ENDMDL
MODEL 5
REMARK VINA RESULT:      -7.1      2.453      4.091
REMARK  Name = 
REMARK  14 active torsions:
REMARK  status: ('A' for Active; 'I' for Inactive)
REMARK    1  A    between atoms: C_1  and  O_2
REMARK    2  A    between atoms: O_2  and  C_3
REMARK    3  A    between atoms: C_5  and  O_6
REMARK    4  A    between atoms: O_6  and  C_7
REMARK    5  A    between atoms: C_8  and  C_9
REMARK    6  A    between atoms: N_10  and  C_11
REMARK    7  A    between atoms: C_11  and  C_12
REMARK    8  A    between atoms: C_14  and  C_15
REMARK    9  A    between atoms: C_14  and  N_17
REMARK   10  A    between atoms: N_20  and  S_21
REMARK   11  A    between atoms: S_21  and  C_24
REMARK   12  A    between atoms: C_27  and  C_28
REMARK   13  A    between atoms: C_31  and  O_32
REMARK   14  A    between atoms: O_32  and  C_33
REMARK                            x       y       z     vdW  Elec       q    Type
REMARK                         _______ _______ _______ _____ _____    ______ ____
ROOT
ATOM      1  C   UNL     1       2.548   4.280  20.236  0.00  0.00    +0.000 C 
ATOM      2  C   UNL     1       3.576   3.681  19.588  0.00  0.00    +0.000 C 
ENDROOT
BRANCH   2   3
ATOM      3  N   UNL     1       4.056   4.201  18.374  0.00  0.00    +0.000 N 
ATOM      4  C   UNL     1       5.383   4.450  18.122  0.00  0.00    +0.000 C 
ATOM      5  O   UNL     1       6.253   4.259  18.956  0.00  0.00    +0.000 OA
ATOM      6  N   UNL     1       5.710   4.935  16.861  0.00  0.00    +0.000 N 
ATOM      7  H   UNL     1       3.354   4.424  17.677  0.00  0.00    +0.000 HD
ATOM      8  H   UNL     1       5.055   5.051  16.097  0.00  0.00    +0.000 HD
BRANCH   6   9
ATOM      9  S   UNL     1       7.311   5.262  16.451  0.00  0.00    +0.000 S 
ATOM     10  O   UNL     1       8.096   4.179  17.007  0.00  0.00    +0.000 OA
ATOM     11  O   UNL     1       7.360   5.559  15.037  0.00  0.00    +0.000 OA
BRANCH   9  12
ATOM     12  C   UNL     1       7.691   6.730  17.387  0.00  0.00    +0.000 A 
ATOM     13  C   UNL     1       7.517   7.985  16.798  0.00  0.00    +0.000 A 
ATOM     14  C   UNL     1       7.961   9.126  17.470  0.00  0.00    +0.000 A 
ATOM     15  C   UNL     1       8.564   9.023  18.732  0.00  0.00    +0.000 A 
ATOM     16  C   UNL     1       9.068  10.242  19.451  0.00  0.00    +0.000 C 
ATOM     17  C   UNL     1       8.702   7.761  19.323  0.00  0.00    +0.000 A 
ATOM     18  C   UNL     1       8.259   6.615  18.660  0.00  0.00    +0.000 A 
ENDBRANCH   9  12
ENDBRANCH   6   9
ENDBRANCH   2   3
BRANCH   1  20
ATOM     19  C   UNL     1       2.369   6.577  20.158  0.00  0.00    +0.000 C 
ATOM     20  N   UNL     1       1.970   5.428  19.698  0.00  0.00    +0.000 NA
BRANCH  19  24
ATOM     21  C   UNL     1       0.968  10.476  19.039  0.00  0.00    +0.000 A 
ATOM     22  C   UNL     1       1.570   9.660  18.076  0.00  0.00    +0.000 A 
ATOM     23  C   UNL     1       1.980   8.350  18.371  0.00  0.00    +0.000 A 
ATOM     24  C   UNL     1       1.828   7.873  19.682  0.00  0.00    +0.000 A 
ATOM     25  C   UNL     1       1.195   8.689  20.659  0.00  0.00    +0.000 A 
ATOM     26  C   UNL     1       0.784   9.989  20.327  0.00  0.00    +0.000 A 
BRANCH  21  28
ATOM     27  C   UNL     1       0.592  12.747  19.618  0.00  0.00    +0.000 C 
ATOM     28  O   UNL     1       0.643  11.736  18.617  0.00  0.00    +0.000 OA
ENDBRANCH  21  28
BRANCH  23  29
ATOM     29  O   UNL     1       2.545   7.733  17.287  0.00  0.00    +0.000 OA
ATOM     30  C   UNL     1       3.959   7.769  17.134  0.00  0.00    +0.000 C 
ENDBRANCH  23  29
BRANCH  25  31
ATOM     31  O   UNL     1       1.043   8.158  21.920  0.00  0.00    +0.000 OA
ATOM     32  C   UNL     1       0.208   8.861  22.840  0.00  0.00    +0.000 C 
ENDBRANCH  25  31
ENDBRANCH  19  24
ENDBRANCH   1  20
BRANCH   1  33
ATOM     33  C   UNL     1       2.024   3.668  21.443  0.00  0.00    +0.000 C 
ATOM     34  N   UNL     1       1.604   3.152  22.388  0.00  0.00    +0.000 NA
ENDBRANCH   1  33
BRANCH   2  35
ATOM     35  C   UNL     1       4.175   2.503  20.169  0.00  0.00    +0.000 C 
ATOM     36  N   UNL     1       4.691   1.551  20.575  0.00  0.00    +0.000 NA
ENDBRANCH   2  35
TORSDOF 10
ENDMDL
MODEL 6
REMARK VINA RESULT:      -7.1      4.265      6.582
REMARK  Name = 
REMARK  14 active torsions:
REMARK  status: ('A' for Active; 'I' for Inactive)
REMARK    1  A    between atoms: C_1  and  O_2
REMARK    2  A    between atoms: O_2  and  C_3
REMARK    3  A    between atoms: C_5  and  O_6
REMARK    4  A    between atoms: O_6  and  C_7
REMARK    5  A    between atoms: C_8  and  C_9
REMARK    6  A    between atoms: N_10  and  C_11
REMARK    7  A    between atoms: C_11  and  C_12
REMARK    8  A    between atoms: C_14  and  C_15
REMARK    9  A    between atoms: C_14  and  N_17
REMARK   10  A    between atoms: N_20  and  S_21
REMARK   11  A    between atoms: S_21  and  C_24
REMARK   12  A    between atoms: C_27  and  C_28
REMARK   13  A    between atoms: C_31  and  O_32
REMARK   14  A    between atoms: O_32  and  C_33
REMARK                            x       y       z     vdW  Elec       q    Type
REMARK                         _______ _______ _______ _____ _____    ______ ____
ROOT
ATOM      1  C   UNL     1       5.191   6.048  17.623  0.00  0.00    +0.000 C 
ATOM      2  C   UNL     1       6.273   6.516  16.956  0.00  0.00    +0.000 C 
ENDROOT
BRANCH   2   3
ATOM      3  N   UNL     1       6.593   7.885  16.984  0.00  0.00    +0.000 N 
ATOM      4  C   UNL     1       7.646   8.406  17.696  0.00  0.00    +0.000 C 
ATOM      5  O   UNL     1       8.375   7.714  18.386  0.00  0.00    +0.000 OA
ATOM      6  N   UNL     1       7.859   9.777  17.602  0.00  0.00    +0.000 N 
ATOM      7  H   UNL     1       5.974   8.498  16.466  0.00  0.00    +0.000 HD
ATOM      8  H   UNL     1       7.342  10.404  16.997  0.00  0.00    +0.000 HD
BRANCH   6   9
ATOM      9  S   UNL     1       9.130  10.512  18.429  0.00  0.00    +0.000 S 
ATOM     10  O   UNL     1       9.090   9.983  19.776  0.00  0.00    +0.000 OA
ATOM     11  O   UNL     1      10.321  10.387  17.621  0.00  0.00    +0.000 OA
BRANCH   9  12
ATOM     12  C   UNL     1       8.639  12.223  18.515  0.00  0.00    +0.000 A 
ATOM     13  C   UNL     1       7.842  12.761  17.501  0.00  0.00    +0.000 A 
ATOM     14  C   UNL     1       7.588  14.135  17.483  0.00  0.00    +0.000 A 
ATOM     15  C   UNL     1       8.111  14.971  18.481  0.00  0.00    +0.000 A 
ATOM     16  C   UNL     1       7.865  16.453  18.456  0.00  0.00    +0.000 C 
ATOM     17  C   UNL     1       8.881  14.411  19.509  0.00  0.00    +0.000 A 
ATOM     18  C   UNL     1       9.138  13.039  19.534  0.00  0.00    +0.000 A 
ENDBRANCH   9  12
ENDBRANCH   6   9
ENDBRANCH   2   3
BRANCH   1  20
ATOM     19  C   UNL     1       3.138   6.632  18.493  0.00  0.00    +0.000 C 
ATOM     20  N   UNL     1       4.396   6.930  18.352  0.00  0.00    +0.000 NA
BRANCH  19  24
ATOM     21  C   UNL     1       0.562   9.067  20.913  0.00  0.00    +0.000 A 
ATOM     22  C   UNL     1       1.007   9.553  19.680  0.00  0.00    +0.000 A 
ATOM     23  C   UNL     1       1.792   8.771  18.817  0.00  0.00    +0.000 A 
ATOM     24  C   UNL     1       2.180   7.488  19.234  0.00  0.00    +0.000 A 
ATOM     25  C   UNL     1       1.710   6.980  20.475  0.00  0.00    +0.000 A 
ATOM     26  C   UNL     1       0.915   7.783  21.308  0.00  0.00    +0.000 A 
BRANCH  21  28
ATOM     27  C   UNL     1      -0.356   9.620  23.031  0.00  0.00    +0.000 C 
ATOM     28  O   UNL     1      -0.172   9.949  21.657  0.00  0.00    +0.000 OA
ENDBRANCH  21  28
BRANCH  23  29
ATOM     29  O   UNL     1       2.118   9.442  17.669  0.00  0.00    +0.000 OA
ATOM     30  C   UNL     1       2.276  10.855  17.719  0.00  0.00    +0.000 C 
ENDBRANCH  23  29
BRANCH  25  31
ATOM     31  O   UNL     1       2.095   5.703  20.819  0.00  0.00    +0.000 OA
ATOM     32  C   UNL     1       1.186   4.638  20.541  0.00  0.00    +0.000 C 
ENDBRANCH  25  31
ENDBRANCH  19  24
ENDBRANCH   1  20
BRANCH   1  33
ATOM     33  C   UNL     1       4.842   4.645  17.502  0.00  0.00    +0.000 C 
ATOM     34  N   UNL     1       4.545   3.530  17.432  0.00  0.00    +0.000 NA
ENDBRANCH   1  33
BRANCH   2  35
ATOM     35  C   UNL     1       7.095   5.587  16.220  0.00  0.00    +0.000 C 
ATOM     36  N   UNL     1       7.710   4.791  15.647  0.00  0.00    +0.000 NA
ENDBRANCH   2  35
TORSDOF 10
ENDMDL
MODEL 7
REMARK VINA RESULT:      -7.0      6.079      9.801
REMARK  Name = 
REMARK  14 active torsions:
REMARK  status: ('A' for Active; 'I' for Inactive)
REMARK    1  A    between atoms: C_1  and  O_2
REMARK    2  A    between atoms: O_2  and  C_3
REMARK    3  A    between atoms: C_5  and  O_6
REMARK    4  A    between atoms: O_6  and  C_7
REMARK    5  A    between atoms: C_8  and  C_9
REMARK    6  A    between atoms: N_10  and  C_11
REMARK    7  A    between atoms: C_11  and  C_12
REMARK    8  A    between atoms: C_14  and  C_15
REMARK    9  A    between atoms: C_14  and  N_17
REMARK   10  A    between atoms: N_20  and  S_21
REMARK   11  A    between atoms: S_21  and  C_24
REMARK   12  A    between atoms: C_27  and  C_28
REMARK   13  A    between atoms: C_31  and  O_32
REMARK   14  A    between atoms: O_32  and  C_33
REMARK                            x       y       z     vdW  Elec       q    Type
REMARK                         _______ _______ _______ _____ _____    ______ ____
ROOT
ATOM      1  C   UNL     1      -3.864  13.422  22.453  0.00  0.00    +0.000 C 
ATOM      2  C   UNL     1      -2.645  13.575  23.024  0.00  0.00    +0.000 C 
ENDROOT
BRANCH   2   3
ATOM      3  N   UNL     1      -1.529  12.883  22.522  0.00  0.00    +0.000 N 
ATOM      4  C   UNL     1      -1.251  11.570  22.815  0.00  0.00    +0.000 C 
ATOM      5  O   UNL     1      -1.949  10.905  23.563  0.00  0.00    +0.000 OA
ATOM      6  N   UNL     1      -0.127  11.010  22.218  0.00  0.00    +0.000 N 
ATOM      7  H   UNL     1      -0.895  13.421  21.941  0.00  0.00    +0.000 HD
ATOM      8  H   UNL     1       0.459  11.475  21.534  0.00  0.00    +0.000 HD
BRANCH   6   9
ATOM      9  S   UNL     1       0.293   9.404  22.505  0.00  0.00    +0.000 S 
ATOM     10  O   UNL     1       1.274   9.431  23.570  0.00  0.00    +0.000 OA
ATOM     11  O   UNL     1      -0.925   8.639  22.642  0.00  0.00    +0.000 OA
BRANCH   9  12
ATOM     12  C   UNL     1       1.141   8.921  21.013  0.00  0.00    +0.000 A 
ATOM     13  C   UNL     1       1.103   9.763  19.898  0.00  0.00    +0.000 A 
ATOM     14  C   UNL     1       1.630   9.317  18.684  0.00  0.00    +0.000 A 
ATOM     15  C   UNL     1       2.209   8.043  18.580  0.00  0.00    +0.000 A 
ATOM     16  C   UNL     1       2.755   7.545  17.272  0.00  0.00    +0.000 C 
ATOM     17  C   UNL     1       2.268   7.224  19.715  0.00  0.00    +0.000 A 
ATOM     18  C   UNL     1       1.745   7.663  20.933  0.00  0.00    +0.000 A 
ENDBRANCH   9  12
ENDBRANCH   6   9
ENDBRANCH   2   3
BRANCH   1  20
ATOM     19  C   UNL     1      -3.643  13.037  20.191  0.00  0.00    +0.000 C 
ATOM     20  N   UNL     1      -4.008  12.579  21.352  0.00  0.00    +0.000 NA
BRANCH  19  24
ATOM     21  C   UNL     1      -4.132  11.025  16.432  0.00  0.00    +0.000 A 
ATOM     22  C   UNL     1      -2.862  11.097  17.012  0.00  0.00    +0.000 A 
ATOM     23  C   UNL     1      -2.658  11.680  18.273  0.00  0.00    +0.000 A 
ATOM     24  C   UNL     1      -3.755  12.251  18.939  0.00  0.00    +0.000 A 
ATOM     25  C   UNL     1      -5.052  12.159  18.365  0.00  0.00    +0.000 A 
ATOM     26  C   UNL     1      -5.222  11.557  17.109  0.00  0.00    +0.000 A 
BRANCH  21  28
ATOM     27  C   UNL     1      -2.926  10.063  14.628  0.00  0.00    +0.000 C 
ATOM     28  O   UNL     1      -4.175  10.453  15.190  0.00  0.00    +0.000 OA
ENDBRANCH  21  28
BRANCH  23  29
ATOM     29  O   UNL     1      -1.342  11.645  18.649  0.00  0.00    +0.000 OA
ATOM     30  C   UNL     1      -0.557  12.824  18.512  0.00  0.00    +0.000 C 
ENDBRANCH  23  29
BRANCH  25  31
ATOM     31  O   UNL     1      -6.095  12.708  19.076  0.00  0.00    +0.000 OA
ATOM     32  C   UNL     1      -7.401  12.628  18.506  0.00  0.00    +0.000 C 
ENDBRANCH  25  31
ENDBRANCH  19  24
ENDBRANCH   1  20
BRANCH   1  33
ATOM     33  C   UNL     1      -5.009  14.085  23.049  0.00  0.00    +0.000 C 
ATOM     34  N   UNL     1      -5.903  14.641  23.523  0.00  0.00    +0.000 NA
ENDBRANCH   1  33
BRANCH   2  35
ATOM     35  C   UNL     1      -2.509  14.464  24.152  0.00  0.00    +0.000 C 
ATOM     36  N   UNL     1      -2.333  15.159  25.060  0.00  0.00    +0.000 NA
ENDBRANCH   2  35
TORSDOF 10
ENDMDL
MODEL 8
REMARK VINA RESULT:      -6.9      5.408      9.210
REMARK  Name = 
REMARK  14 active torsions:
REMARK  status: ('A' for Active; 'I' for Inactive)
REMARK    1  A    between atoms: C_1  and  O_2
REMARK    2  A    between atoms: O_2  and  C_3
REMARK    3  A    between atoms: C_5  and  O_6
REMARK    4  A    between atoms: O_6  and  C_7
REMARK    5  A    between atoms: C_8  and  C_9
REMARK    6  A    between atoms: N_10  and  C_11
REMARK    7  A    between atoms: C_11  and  C_12
REMARK    8  A    between atoms: C_14  and  C_15
REMARK    9  A    between atoms: C_14  and  N_17
REMARK   10  A    between atoms: N_20  and  S_21
REMARK   11  A    between atoms: S_21  and  C_24
REMARK   12  A    between atoms: C_27  and  C_28
REMARK   13  A    between atoms: C_31  and  O_32
REMARK   14  A    between atoms: O_32  and  C_33
REMARK                            x       y       z     vdW  Elec       q    Type
REMARK                         _______ _______ _______ _____ _____    ______ ____
ROOT
ATOM      1  C   UNL     1      -4.734  11.687  18.070  0.00  0.00    +0.000 C 
ATOM      2  C   UNL     1      -3.859  10.877  17.428  0.00  0.00    +0.000 C 
ENDROOT
BRANCH   2   3
ATOM      3  N   UNL     1      -2.887  10.161  18.149  0.00  0.00    +0.000 N 
ATOM      4  C   UNL     1      -1.621  10.632  18.397  0.00  0.00    +0.000 C 
ATOM      5  O   UNL     1      -1.233  11.712  17.982  0.00  0.00    +0.000 OA
ATOM      6  N   UNL     1      -0.779   9.824  19.152  0.00  0.00    +0.000 N 
ATOM      7  H   UNL     1      -3.157   9.235  18.461  0.00  0.00    +0.000 HD
ATOM      8  H   UNL     1      -1.051   8.951  19.588  0.00  0.00    +0.000 HD
BRANCH   6   9
ATOM      9  S   UNL     1       0.789  10.317  19.520  0.00  0.00    +0.000 S 
ATOM     10  O   UNL     1       1.133  11.326  18.539  0.00  0.00    +0.000 OA
ATOM     11  O   UNL     1       0.847  10.611  20.934  0.00  0.00    +0.000 OA
BRANCH   9  12
ATOM     12  C   UNL     1       1.775   8.874  19.166  0.00  0.00    +0.000 A 
ATOM     13  C   UNL     1       2.408   8.762  17.926  0.00  0.00    +0.000 A 
ATOM     14  C   UNL     1       3.048   7.567  17.588  0.00  0.00    +0.000 A 
ATOM     15  C   UNL     1       3.073   6.490  18.487  0.00  0.00    +0.000 A 
ATOM     16  C   UNL     1       3.736   5.193  18.123  0.00  0.00    +0.000 C 
ATOM     17  C   UNL     1       2.460   6.630  19.739  0.00  0.00    +0.000 A 
ATOM     18  C   UNL     1       1.820   7.822  20.086  0.00  0.00    +0.000 A 
ENDBRANCH   9  12
ENDBRANCH   6   9
ENDBRANCH   2   3
BRANCH   1  20
ATOM     19  C   UNL     1      -4.083  12.849  19.952  0.00  0.00    +0.000 C 
ATOM     20  N   UNL     1      -4.677  11.803  19.458  0.00  0.00    +0.000 NA
BRANCH  19  24
ATOM     21  C   UNL     1      -3.451  13.788  24.091  0.00  0.00    +0.000 A 
ATOM     22  C   UNL     1      -4.756  13.712  23.596  0.00  0.00    +0.000 A 
ATOM     23  C   UNL     1      -5.022  13.338  22.269  0.00  0.00    +0.000 A 
ATOM     24  C   UNL     1      -3.942  13.088  21.408  0.00  0.00    +0.000 A 
ATOM     25  C   UNL     1      -2.614  13.139  21.913  0.00  0.00    +0.000 A 
ATOM     26  C   UNL     1      -2.384  13.503  23.249  0.00  0.00    +0.000 A 
BRANCH  21  28
ATOM     27  C   UNL     1      -2.507  15.313  25.646  0.00  0.00    +0.000 C 
ATOM     28  O   UNL     1      -3.344  14.188  25.395  0.00  0.00    +0.000 OA
ENDBRANCH  21  28
BRANCH  23  29
ATOM     29  O   UNL     1      -6.364  13.331  21.996  0.00  0.00    +0.000 OA
ATOM     30  C   UNL     1      -7.001  14.555  21.648  0.00  0.00    +0.000 C 
ENDBRANCH  23  29
BRANCH  25  31
ATOM     31  O   UNL     1      -1.594  12.853  21.033  0.00  0.00    +0.000 OA
ATOM     32  C   UNL     1      -0.601  13.856  20.819  0.00  0.00    +0.000 C 
ENDBRANCH  25  31
ENDBRANCH  19  24
ENDBRANCH   1  20
BRANCH   1  33
ATOM     33  C   UNL     1      -5.668  12.476  17.288  0.00  0.00    +0.000 C 
ATOM     34  N   UNL     1      -6.437  13.088  16.680  0.00  0.00    +0.000 NA
ENDBRANCH   1  33
BRANCH   2  35
ATOM     35  C   UNL     1      -3.944  10.756  15.993  0.00  0.00    +0.000 C 
ATOM     36  N   UNL     1      -4.026  10.592  14.850  0.00  0.00    +0.000 NA
ENDBRANCH   2  35
TORSDOF 10
ENDMDL
MODEL 9
REMARK VINA RESULT:      -6.9      6.302      9.880
REMARK  Name = 
REMARK  14 active torsions:
REMARK  status: ('A' for Active; 'I' for Inactive)
REMARK    1  A    between atoms: C_1  and  O_2
REMARK    2  A    between atoms: O_2  and  C_3
REMARK    3  A    between atoms: C_5  and  O_6
REMARK    4  A    between atoms: O_6  and  C_7
REMARK    5  A    between atoms: C_8  and  C_9
REMARK    6  A    between atoms: N_10  and  C_11
REMARK    7  A    between atoms: C_11  and  C_12
REMARK    8  A    between atoms: C_14  and  C_15
REMARK    9  A    between atoms: C_14  and  N_17
REMARK   10  A    between atoms: N_20  and  S_21
REMARK   11  A    between atoms: S_21  and  C_24
REMARK   12  A    between atoms: C_27  and  C_28
REMARK   13  A    between atoms: C_31  and  O_32
REMARK   14  A    between atoms: O_32  and  C_33
REMARK                            x       y       z     vdW  Elec       q    Type
REMARK                         _______ _______ _______ _____ _____    ______ ____
ROOT
ATOM      1  C   UNL     1      -4.547  11.916  18.694  0.00  0.00    +0.000 C 
ATOM      2  C   UNL     1      -3.536  11.667  17.827  0.00  0.00    +0.000 C 
ENDROOT
BRANCH   2   3
ATOM      3  N   UNL     1      -2.282  12.279  17.997  0.00  0.00    +0.000 N 
ATOM      4  C   UNL     1      -1.311  11.804  18.843  0.00  0.00    +0.000 C 
ATOM      5  O   UNL     1      -1.477  10.815  19.540  0.00  0.00    +0.000 OA
ATOM      6  N   UNL     1      -0.107  12.497  18.882  0.00  0.00    +0.000 N 
ATOM      7  H   UNL     1      -2.130  13.135  17.475  0.00  0.00    +0.000 HD
ATOM      8  H   UNL     1       0.131  13.281  18.285  0.00  0.00    +0.000 HD
BRANCH   6   9
ATOM      9  S   UNL     1       1.152  11.989  19.880  0.00  0.00    +0.000 S 
ATOM     10  O   UNL     1       2.312  12.759  19.486  0.00  0.00    +0.000 OA
ATOM     11  O   UNL     1       0.678  12.012  21.245  0.00  0.00    +0.000 OA
BRANCH   9  12
ATOM     12  C   UNL     1       1.434  10.304  19.371  0.00  0.00    +0.000 A 
ATOM     13  C   UNL     1       1.331   9.276  20.312  0.00  0.00    +0.000 A 
ATOM     14  C   UNL     1       1.705   7.978  19.954  0.00  0.00    +0.000 A 
ATOM     15  C   UNL     1       2.164   7.699  18.658  0.00  0.00    +0.000 A 
ATOM     16  C   UNL     1       2.592   6.312  18.271  0.00  0.00    +0.000 C 
ATOM     17  C   UNL     1       2.230   8.735  17.717  0.00  0.00    +0.000 A 
ATOM     18  C   UNL     1       1.857  10.034  18.066  0.00  0.00    +0.000 A 
ENDBRANCH   9  12
ENDBRANCH   6   9
ENDBRANCH   2   3
BRANCH   1  20
ATOM     19  C   UNL     1      -5.244  12.813  20.700  0.00  0.00    +0.000 C 
ATOM     20  N   UNL     1      -4.337  12.778  19.769  0.00  0.00    +0.000 NA
BRANCH  19  24
ATOM     21  C   UNL     1      -4.637  15.360  24.099  0.00  0.00    +0.000 A 
ATOM     22  C   UNL     1      -5.580  15.719  23.132  0.00  0.00    +0.000 A 
ATOM     23  C   UNL     1      -5.870  14.888  22.039  0.00  0.00    +0.000 A 
ATOM     24  C   UNL     1      -5.150  13.692  21.890  0.00  0.00    +0.000 A 
ATOM     25  C   UNL     1      -4.208  13.310  22.884  0.00  0.00    +0.000 A 
ATOM     26  C   UNL     1      -3.952  14.158  23.972  0.00  0.00    +0.000 A 
BRANCH  21  28
ATOM     27  C   UNL     1      -4.824  17.620  24.804  0.00  0.00    +0.000 C 
ATOM     28  O   UNL     1      -4.441  16.279  25.094  0.00  0.00    +0.000 OA
ENDBRANCH  21  28
BRANCH  23  29
ATOM     29  O   UNL     1      -6.819  15.433  21.216  0.00  0.00    +0.000 OA
ATOM     30  C   UNL     1      -6.428  16.428  20.278  0.00  0.00    +0.000 C 
ENDBRANCH  23  29
BRANCH  25  31
ATOM     31  O   UNL     1      -3.555  12.111  22.704  0.00  0.00    +0.000 OA
ATOM     32  C   UNL     1      -2.246  11.979  23.257  0.00  0.00    +0.000 C 
ENDBRANCH  25  31
ENDBRANCH  19  24
ENDBRANCH   1  20
BRANCH   1  33
ATOM     33  C   UNL     1      -5.852  11.335  18.439  0.00  0.00    +0.000 C 
ATOM     34  N   UNL     1      -6.902  10.901  18.227  0.00  0.00    +0.000 NA
ENDBRANCH   1  33
BRANCH   2  35
ATOM     35  C   UNL     1      -3.766  10.759  16.729  0.00  0.00    +0.000 C 
ATOM     36  N   UNL     1      -3.906  10.069  15.811  0.00  0.00    +0.000 NA
ENDBRANCH   2  35
TORSDOF 10
ENDMDL
