MODEL 1
REMARK VINA RESULT:      -8.5      0.000      0.000
REMARK  Name = 
REMARK  9 active torsions:
REMARK  status: ('A' for Active; 'I' for Inactive)
REMARK    1  A    between atoms: C_1  and  O_2
REMARK    2  A    between atoms: O_2  and  C_3
REMARK    3  A    between atoms: C_5  and  C_6
REMARK    4  A    between atoms: N_8  and  S_9
REMARK    5  A    between atoms: S_9  and  C_10
REMARK    6  A    between atoms: C_15  and  C_16
REMARK    7  A    between atoms: C_19  and  O_20
REMARK    8  A    between atoms: O_20  and  C_21
REMARK    9  A    between atoms: C_21  and  C_22
REMARK                            x       y       z     vdW  Elec       q    Type
REMARK                         _______ _______ _______ _____ _____    ______ ____
ROOT
ATOM      1  C   UNL     1       2.323   6.572  19.559  0.00  0.00    +0.000 A 
ATOM      2  C   UNL     1       3.123   5.711  18.799  0.00  0.00    +0.000 A 
ATOM      3  C   UNL     1       3.804   6.164  17.662  0.00  0.00    +0.000 A 
ATOM      4  C   UNL     1       3.601   7.475  17.231  0.00  0.00    +0.000 A 
ATOM      5  C   UNL     1       2.761   8.325  17.959  0.00  0.00    +0.000 A 
ATOM      6  C   UNL     1       2.131   7.912  19.151  0.00  0.00    +0.000 A 
ENDROOT
BRANCH   6   7
ATOM      7  C   UNL     1       1.375   8.901  19.952  0.00  0.00    +0.000 A 
ATOM      8  C   UNL     1       0.761  10.021  19.393  0.00  0.00    +0.000 A 
ATOM      9  N   UNL     1       0.014  10.921  20.081  0.00  0.00    +0.000 NA
ATOM     10  C   UNL     1      -0.149  10.704  21.405  0.00  0.00    +0.000 A 
ATOM     11  C   UNL     1       0.429   9.634  22.074  0.00  0.00    +0.000 A 
ATOM     12 CL   UNL     1       0.226   9.375  23.766  0.00  0.00    +0.000 Cl
ATOM     13  C   UNL     1       1.203   8.738  21.338  0.00  0.00    +0.000 A 
BRANCH  10  14
ATOM     14  O   UNL     1      -0.976  11.552  22.112  0.00  0.00    +0.000 OA
BRANCH  14  15
ATOM     15  C   UNL     1      -1.949  12.183  21.279  0.00  0.00    +0.000 C 
BRANCH  15  16
ATOM     16  C   UNL     1      -3.226  12.458  22.043  0.00  0.00    +0.000 A 
ATOM     17  C   UNL     1      -3.274  12.470  23.444  0.00  0.00    +0.000 A 
ATOM     18  C   UNL     1      -4.474  12.744  24.107  0.00  0.00    +0.000 A 
ATOM     19  C   UNL     1      -5.626  13.019  23.373  0.00  0.00    +0.000 A 
ATOM     20 CL   UNL     1      -7.102  13.354  24.191  0.00  0.00    +0.000 Cl
ATOM     21  C   UNL     1      -5.589  13.027  21.981  0.00  0.00    +0.000 A 
ATOM     22  C   UNL     1      -4.395  12.754  21.320  0.00  0.00    +0.000 A 
ENDBRANCH  15  16
ENDBRANCH  14  15
ENDBRANCH  10  14
ENDBRANCH   6   7
BRANCH   3  23
ATOM     23  C   UNL     1       4.776   5.217  17.044  0.00  0.00    +0.000 C 
ATOM     24  O   UNL     1       4.740   4.029  17.319  0.00  0.00    +0.000 OA
ATOM     25  N   UNL     1       5.777   5.774  16.247  0.00  0.00    +0.000 N 
ATOM     26  H   UNL     1       5.868   6.766  16.056  0.00  0.00    +0.000 HD
BRANCH  25  27
ATOM     27  S   UNL     1       7.006   4.901  15.551  0.00  0.00    +0.000 S 
ATOM     28  C   UNL     1       6.132   3.635  14.653  0.00  0.00    +0.000 C 
ATOM     29  O   UNL     1       7.741   5.743  14.639  0.00  0.00    +0.000 OA
ATOM     30  O   UNL     1       7.677   4.268  16.666  0.00  0.00    +0.000 OA
ENDBRANCH  25  27
ENDBRANCH   3  23
BRANCH   1  32
ATOM     31  C   UNL     1       1.901   4.786  21.067  0.00  0.00    +0.000 C 
ATOM     32  O   UNL     1       1.702   6.154  20.711  0.00  0.00    +0.000 OA
ENDBRANCH   1  32
TORSDOF 7
ENDMDL
MODEL 2
REMARK VINA RESULT:      -8.5      1.274      1.501
REMARK  Name = 
REMARK  9 active torsions:
REMARK  status: ('A' for Active; 'I' for Inactive)
REMARK    1  A    between atoms: C_1  and  O_2
REMARK    2  A    between atoms: O_2  and  C_3
REMARK    3  A    between atoms: C_5  and  C_6
REMARK    4  A    between atoms: N_8  and  S_9
REMARK    5  A    between atoms: S_9  and  C_10
REMARK    6  A    between atoms: C_15  and  C_16
REMARK    7  A    between atoms: C_19  and  O_20
REMARK    8  A    between atoms: O_20  and  C_21
REMARK    9  A    between atoms: C_21  and  C_22
REMARK                            x       y       z     vdW  Elec       q    Type
REMARK                         _______ _______ _______ _____ _____    ______ ____
ROOT
ATOM      1  C   UNL     1       2.311   6.507  19.631  0.00  0.00    +0.000 A 
ATOM      2  C   UNL     1       3.114   5.649  18.870  0.00  0.00    +0.000 A 
ATOM      3  C   UNL     1       3.835   6.118  17.765  0.00  0.00    +0.000 A 
ATOM      4  C   UNL     1       3.670   7.444  17.363  0.00  0.00    +0.000 A 
ATOM      5  C   UNL     1       2.829   8.292  18.092  0.00  0.00    +0.000 A 
ATOM      6  C   UNL     1       2.158   7.860  19.255  0.00  0.00    +0.000 A 
ENDROOT
BRANCH   6   7
ATOM      7  C   UNL     1       1.400   8.843  20.062  0.00  0.00    +0.000 A 
ATOM      8  C   UNL     1       1.355   8.808  21.456  0.00  0.00    +0.000 A 
ATOM      9  N   UNL     1       0.719   9.718  22.235  0.00  0.00    +0.000 NA
ATOM     10  C   UNL     1       0.092  10.738  21.607  0.00  0.00    +0.000 A 
ATOM     11  C   UNL     1       0.054  10.868  20.225  0.00  0.00    +0.000 A 
ATOM     12 CL   UNL     1      -0.760  12.163  19.433  0.00  0.00    +0.000 Cl
ATOM     13  C   UNL     1       0.705   9.904  19.455  0.00  0.00    +0.000 A 
BRANCH  10  14
ATOM     14  O   UNL     1      -0.486  11.727  22.375  0.00  0.00    +0.000 OA
BRANCH  14  15
ATOM     15  C   UNL     1      -1.545  11.230  23.193  0.00  0.00    +0.000 C 
BRANCH  15  16
ATOM     16  C   UNL     1      -2.766  12.120  23.106  0.00  0.00    +0.000 A 
ATOM     17  C   UNL     1      -3.653  12.285  24.179  0.00  0.00    +0.000 A 
ATOM     18  C   UNL     1      -4.760  13.130  24.057  0.00  0.00    +0.000 A 
ATOM     19  C   UNL     1      -4.977  13.822  22.867  0.00  0.00    +0.000 A 
ATOM     20 CL   UNL     1      -6.341  14.860  22.719  0.00  0.00    +0.000 Cl
ATOM     21  C   UNL     1      -4.095  13.682  21.799  0.00  0.00    +0.000 A 
ATOM     22  C   UNL     1      -2.993  12.840  21.919  0.00  0.00    +0.000 A 
ENDBRANCH  15  16
ENDBRANCH  14  15
ENDBRANCH  10  14
ENDBRANCH   6   7
BRANCH   3  23
ATOM     23  C   UNL     1       4.804   5.168  17.147  0.00  0.00    +0.000 C 
ATOM     24  O   UNL     1       4.817   3.994  17.483  0.00  0.00    +0.000 OA
ATOM     25  N   UNL     1       5.748   5.710  16.273  0.00  0.00    +0.000 N 
ATOM     26  H   UNL     1       5.798   6.693  16.028  0.00  0.00    +0.000 HD
BRANCH  25  27
ATOM     27  S   UNL     1       6.967   4.836  15.561  0.00  0.00    +0.000 S 
ATOM     28  C   UNL     1       6.089   3.499  14.778  0.00  0.00    +0.000 C 
ATOM     29  O   UNL     1       7.628   5.649  14.570  0.00  0.00    +0.000 OA
ATOM     30  O   UNL     1       7.713   4.283  16.672  0.00  0.00    +0.000 OA
ENDBRANCH  25  27
ENDBRANCH   3  23
BRANCH   1  32
ATOM     31  C   UNL     1       1.502   4.657  20.884  0.00  0.00    +0.000 C 
ATOM     32  O   UNL     1       1.651   6.071  20.754  0.00  0.00    +0.000 OA
ENDBRANCH   1  32
TORSDOF 7
ENDMDL
MODEL 3
REMARK VINA RESULT:      -8.4      2.494      3.167
REMARK  Name = 
REMARK  9 active torsions:
REMARK  status: ('A' for Active; 'I' for Inactive)
REMARK    1  A    between atoms: C_1  and  O_2
REMARK    2  A    between atoms: O_2  and  C_3
REMARK    3  A    between atoms: C_5  and  C_6
REMARK    4  A    between atoms: N_8  and  S_9
REMARK    5  A    between atoms: S_9  and  C_10
REMARK    6  A    between atoms: C_15  and  C_16
REMARK    7  A    between atoms: C_19  and  O_20
REMARK    8  A    between atoms: O_20  and  C_21
REMARK    9  A    between atoms: C_21  and  C_22
REMARK                            x       y       z     vdW  Elec       q    Type
REMARK                         _______ _______ _______ _____ _____    ______ ____
ROOT
ATOM      1  C   UNL     1       1.277   8.496  20.159  0.00  0.00    +0.000 A 
ATOM      2  C   UNL     1       2.056   7.394  19.787  0.00  0.00    +0.000 A 
ATOM      3  C   UNL     1       2.700   7.344  18.545  0.00  0.00    +0.000 A 
ATOM      4  C   UNL     1       2.479   8.373  17.628  0.00  0.00    +0.000 A 
ATOM      5  C   UNL     1       1.660   9.452  17.977  0.00  0.00    +0.000 A 
ATOM      6  C   UNL     1       1.069   9.560  19.253  0.00  0.00    +0.000 A 
ENDROOT
BRANCH   6   7
ATOM      7  C   UNL     1       0.335  10.795  19.610  0.00  0.00    +0.000 A 
ATOM      8  C   UNL     1       0.962  11.930  20.122  0.00  0.00    +0.000 A 
ATOM      9  N   UNL     1       0.337  13.099  20.411  0.00  0.00    +0.000 NA
ATOM     10  C   UNL     1      -0.992  13.163  20.174  0.00  0.00    +0.000 A 
ATOM     11  C   UNL     1      -1.727  12.091  19.684  0.00  0.00    +0.000 A 
ATOM     12 CL   UNL     1      -3.424  12.178  19.401  0.00  0.00    +0.000 Cl
ATOM     13  C   UNL     1      -1.053  10.900  19.414  0.00  0.00    +0.000 A 
BRANCH  10  14
ATOM     14  O   UNL     1      -1.638  14.365  20.374  0.00  0.00    +0.000 OA
BRANCH  14  15
ATOM     15  C   UNL     1      -1.726  14.712  21.756  0.00  0.00    +0.000 C 
BRANCH  15  16
ATOM     16  C   UNL     1      -3.030  14.232  22.357  0.00  0.00    +0.000 A 
ATOM     17  C   UNL     1      -4.267  14.794  22.012  0.00  0.00    +0.000 A 
ATOM     18  C   UNL     1      -5.447  14.308  22.582  0.00  0.00    +0.000 A 
ATOM     19  C   UNL     1      -5.396  13.251  23.488  0.00  0.00    +0.000 A 
ATOM     20 CL   UNL     1      -6.850  12.655  24.189  0.00  0.00    +0.000 Cl
ATOM     21  C   UNL     1      -4.177  12.671  23.827  0.00  0.00    +0.000 A 
ATOM     22  C   UNL     1      -3.001  13.155  23.261  0.00  0.00    +0.000 A 
ENDBRANCH  15  16
ENDBRANCH  14  15
ENDBRANCH  10  14
ENDBRANCH   6   7
BRANCH   3  23
ATOM     23  C   UNL     1       3.655   6.220  18.331  0.00  0.00    +0.000 C 
ATOM     24  O   UNL     1       4.513   6.295  17.466  0.00  0.00    +0.000 OA
ATOM     25  N   UNL     1       3.440   5.060  19.077  0.00  0.00    +0.000 N 
ATOM     26  H   UNL     1       2.693   4.949  19.755  0.00  0.00    +0.000 HD
BRANCH  25  27
ATOM     27  S   UNL     1       4.332   3.669  18.913  0.00  0.00    +0.000 S 
ATOM     28  C   UNL     1       3.662   2.618  20.185  0.00  0.00    +0.000 C 
ATOM     29  O   UNL     1       4.094   3.093  17.612  0.00  0.00    +0.000 OA
ATOM     30  O   UNL     1       5.670   4.047  19.313  0.00  0.00    +0.000 OA
ENDBRANCH  25  27
ENDBRANCH   3  23
BRANCH   1  32
ATOM     31  C   UNL     1       1.522   9.090  22.446  0.00  0.00    +0.000 C 
ATOM     32  O   UNL     1       0.694   8.583  21.400  0.00  0.00    +0.000 OA
ENDBRANCH   1  32
TORSDOF 7
ENDMDL
MODEL 4
REMARK VINA RESULT:      -8.4      4.483     11.149
REMARK  Name = 
REMARK  9 active torsions:
REMARK  status: ('A' for Active; 'I' for Inactive)
REMARK    1  A    between atoms: C_1  and  O_2
REMARK    2  A    between atoms: O_2  and  C_3
REMARK    3  A    between atoms: C_5  and  C_6
REMARK    4  A    between atoms: N_8  and  S_9
REMARK    5  A    between atoms: S_9  and  C_10
REMARK    6  A    between atoms: C_15  and  C_16
REMARK    7  A    between atoms: C_19  and  O_20
REMARK    8  A    between atoms: O_20  and  C_21
REMARK    9  A    between atoms: C_21  and  C_22
REMARK                            x       y       z     vdW  Elec       q    Type
REMARK                         _______ _______ _______ _____ _____    ______ ____
ROOT
ATOM      1  C   UNL     1       0.022   9.879  20.276  0.00  0.00    +0.000 A 
ATOM      2  C   UNL     1      -0.634  10.962  20.873  0.00  0.00    +0.000 A 
ATOM      3  C   UNL     1      -0.740  11.070  22.265  0.00  0.00    +0.000 A 
ATOM      4  C   UNL     1      -0.263  10.029  23.062  0.00  0.00    +0.000 A 
ATOM      5  C   UNL     1       0.349   8.921  22.466  0.00  0.00    +0.000 A 
ATOM      6  C   UNL     1       0.537   8.831  21.071  0.00  0.00    +0.000 A 
ENDROOT
BRANCH   6   7
ATOM      7  C   UNL     1       1.320   7.705  20.516  0.00  0.00    +0.000 A 
ATOM      8  C   UNL     1       2.195   7.845  19.438  0.00  0.00    +0.000 A 
ATOM      9  N   UNL     1       2.971   6.854  18.933  0.00  0.00    +0.000 NA
ATOM     10  C   UNL     1       2.892   5.644  19.531  0.00  0.00    +0.000 A 
ATOM     11  C   UNL     1       2.045   5.379  20.599  0.00  0.00    +0.000 A 
ATOM     12 CL   UNL     1       1.941   3.829  21.343  0.00  0.00    +0.000 Cl
ATOM     13  C   UNL     1       1.249   6.419  21.080  0.00  0.00    +0.000 A 
BRANCH  10  14
ATOM     14  O   UNL     1       3.734   4.641  19.097  0.00  0.00    +0.000 OA
BRANCH  14  15
ATOM     15  C   UNL     1       5.080   5.091  18.942  0.00  0.00    +0.000 C 
BRANCH  15  16
ATOM     16  C   UNL     1       5.561   4.892  17.521  0.00  0.00    +0.000 A 
ATOM     17  C   UNL     1       6.876   5.179  17.127  0.00  0.00    +0.000 A 
ATOM     18  C   UNL     1       7.280   4.965  15.806  0.00  0.00    +0.000 A 
ATOM     19  C   UNL     1       6.376   4.452  14.878  0.00  0.00    +0.000 A 
ATOM     20 CL   UNL     1       6.875   4.191  13.253  0.00  0.00    +0.000 Cl
ATOM     21  C   UNL     1       5.072   4.146  15.259  0.00  0.00    +0.000 A 
ATOM     22  C   UNL     1       4.669   4.360  16.573  0.00  0.00    +0.000 A 
ENDBRANCH  15  16
ENDBRANCH  14  15
ENDBRANCH  10  14
ENDBRANCH   6   7
BRANCH   3  23
ATOM     23  C   UNL     1      -1.285  12.352  22.797  0.00  0.00    +0.000 C 
ATOM     24  O   UNL     1      -0.553  13.143  23.370  0.00  0.00    +0.000 OA
ATOM     25  N   UNL     1      -2.666  12.535  22.707  0.00  0.00    +0.000 N 
ATOM     26  H   UNL     1      -3.304  11.863  22.294  0.00  0.00    +0.000 HD
BRANCH  25  27
ATOM     27  S   UNL     1      -3.473  13.848  23.327  0.00  0.00    +0.000 S 
ATOM     28  C   UNL     1      -5.143  13.584  22.768  0.00  0.00    +0.000 C 
ATOM     29  O   UNL     1      -3.416  13.813  24.768  0.00  0.00    +0.000 OA
ATOM     30  O   UNL     1      -2.938  14.978  22.599  0.00  0.00    +0.000 OA
ENDBRANCH  25  27
ENDBRANCH   3  23
BRANCH   1  32
ATOM     31  C   UNL     1      -0.903  10.269  18.122  0.00  0.00    +0.000 C 
ATOM     32  O   UNL     1       0.186   9.797  18.914  0.00  0.00    +0.000 OA
ENDBRANCH   1  32
TORSDOF 7
ENDMDL
MODEL 5
REMARK VINA RESULT:      -8.4      1.237      1.657
REMARK  Name = 
REMARK  9 active torsions:
REMARK  status: ('A' for Active; 'I' for Inactive)
REMARK    1  A    between atoms: C_1  and  O_2
REMARK    2  A    between atoms: O_2  and  C_3
REMARK    3  A    between atoms: C_5  and  C_6
REMARK    4  A    between atoms: N_8  and  S_9
REMARK    5  A    between atoms: S_9  and  C_10
REMARK    6  A    between atoms: C_15  and  C_16
REMARK    7  A    between atoms: C_19  and  O_20
REMARK    8  A    between atoms: O_20  and  C_21
REMARK    9  A    between atoms: C_21  and  C_22
REMARK                            x       y       z     vdW  Elec       q    Type
REMARK                         _______ _______ _______ _____ _____    ______ ____
ROOT
ATOM      1  C   UNL     1       2.344   6.713  19.592  0.00  0.00    +0.000 A 
ATOM      2  C   UNL     1       3.221   5.844  18.932  0.00  0.00    +0.000 A 
ATOM      3  C   UNL     1       3.969   6.266  17.826  0.00  0.00    +0.000 A 
ATOM      4  C   UNL     1       3.759   7.549  17.318  0.00  0.00    +0.000 A 
ATOM      5  C   UNL     1       2.846   8.404  17.944  0.00  0.00    +0.000 A 
ATOM      6  C   UNL     1       2.144   8.026  19.108  0.00  0.00    +0.000 A 
ENDROOT
BRANCH   6   7
ATOM      7  C   UNL     1       1.304   9.026  19.805  0.00  0.00    +0.000 A 
ATOM      8  C   UNL     1       1.451   9.329  21.159  0.00  0.00    +0.000 A 
ATOM      9  N   UNL     1       0.741  10.275  21.823  0.00  0.00    +0.000 NA
ATOM     10  C   UNL     1      -0.169  10.978  21.111  0.00  0.00    +0.000 A 
ATOM     11  C   UNL     1      -0.416  10.751  19.764  0.00  0.00    +0.000 A 
ATOM     12 CL   UNL     1      -1.589  11.642  18.870  0.00  0.00    +0.000 Cl
ATOM     13  C   UNL     1       0.322   9.759  19.118  0.00  0.00    +0.000 A 
BRANCH  10  14
ATOM     14  O   UNL     1      -0.842  12.006  21.739  0.00  0.00    +0.000 OA
BRANCH  14  15
ATOM     15  C   UNL     1      -1.500  11.577  22.930  0.00  0.00    +0.000 C 
BRANCH  15  16
ATOM     16  C   UNL     1      -2.897  12.153  23.020  0.00  0.00    +0.000 A 
ATOM     17  C   UNL     1      -3.582  12.638  21.896  0.00  0.00    +0.000 A 
ATOM     18  C   UNL     1      -4.877  13.148  22.024  0.00  0.00    +0.000 A 
ATOM     19  C   UNL     1      -5.497  13.163  23.272  0.00  0.00    +0.000 A 
ATOM     20 CL   UNL     1      -7.091  13.791  23.427  0.00  0.00    +0.000 Cl
ATOM     21  C   UNL     1      -4.837  12.668  24.393  0.00  0.00    +0.000 A 
ATOM     22  C   UNL     1      -3.546  12.162  24.267  0.00  0.00    +0.000 A 
ENDBRANCH  15  16
ENDBRANCH  14  15
ENDBRANCH  10  14
ENDBRANCH   6   7
BRANCH   3  23
ATOM     23  C   UNL     1       5.009   5.324  17.323  0.00  0.00    +0.000 C 
ATOM     24  O   UNL     1       5.252   4.293  17.929  0.00  0.00    +0.000 OA
ATOM     25  N   UNL     1       5.751   5.737  16.215  0.00  0.00    +0.000 N 
ATOM     26  H   UNL     1       5.612   6.619  15.734  0.00  0.00    +0.000 HD
BRANCH  25  27
ATOM     27  S   UNL     1       7.015   4.876  15.568  0.00  0.00    +0.000 S 
ATOM     28  C   UNL     1       6.210   3.432  14.904  0.00  0.00    +0.000 C 
ATOM     29  O   UNL     1       7.626   5.639  14.507  0.00  0.00    +0.000 OA
ATOM     30  O   UNL     1       7.794   4.459  16.714  0.00  0.00    +0.000 OA
ENDBRANCH  25  27
ENDBRANCH   3  23
BRANCH   1  32
ATOM     31  C   UNL     1       1.918   5.008  21.190  0.00  0.00    +0.000 C 
ATOM     32  O   UNL     1       1.655   6.328  20.716  0.00  0.00    +0.000 OA
ENDBRANCH   1  32
TORSDOF 7
ENDMDL
MODEL 6
REMARK VINA RESULT:      -8.3      2.450      3.026
REMARK  Name = 
REMARK  9 active torsions:
REMARK  status: ('A' for Active; 'I' for Inactive)
REMARK    1  A    between atoms: C_1  and  O_2
REMARK    2  A    between atoms: O_2  and  C_3
REMARK    3  A    between atoms: C_5  and  C_6
REMARK    4  A    between atoms: N_8  and  S_9
REMARK    5  A    between atoms: S_9  and  C_10
REMARK    6  A    between atoms: C_15  and  C_16
REMARK    7  A    between atoms: C_19  and  O_20
REMARK    8  A    between atoms: O_20  and  C_21
REMARK    9  A    between atoms: C_21  and  C_22
REMARK                            x       y       z     vdW  Elec       q    Type
REMARK                         _______ _______ _______ _____ _____    ______ ____
ROOT
ATOM      1  C   UNL     1       1.375   8.553  20.287  0.00  0.00    +0.000 A 
ATOM      2  C   UNL     1       2.128   7.433  19.913  0.00  0.00    +0.000 A 
ATOM      3  C   UNL     1       2.632   7.296  18.614  0.00  0.00    +0.000 A 
ATOM      4  C   UNL     1       2.293   8.250  17.654  0.00  0.00    +0.000 A 
ATOM      5  C   UNL     1       1.498   9.345  18.011  0.00  0.00    +0.000 A 
ATOM      6  C   UNL     1       1.049   9.543  19.333  0.00  0.00    +0.000 A 
ENDROOT
BRANCH   6   7
ATOM      7  C   UNL     1       0.337  10.794  19.677  0.00  0.00    +0.000 A 
ATOM      8  C   UNL     1       0.981  11.917  20.197  0.00  0.00    +0.000 A 
ATOM      9  N   UNL     1       0.377  13.099  20.475  0.00  0.00    +0.000 NA
ATOM     10  C   UNL     1      -0.947  13.191  20.218  0.00  0.00    +0.000 A 
ATOM     11  C   UNL     1      -1.697  12.136  19.717  0.00  0.00    +0.000 A 
ATOM     12 CL   UNL     1      -3.387  12.259  19.407  0.00  0.00    +0.000 Cl
ATOM     13  C   UNL     1      -1.045  10.930  19.459  0.00  0.00    +0.000 A 
BRANCH  10  14
ATOM     14  O   UNL     1      -1.569  14.408  20.406  0.00  0.00    +0.000 OA
BRANCH  14  15
ATOM     15  C   UNL     1      -1.669  14.760  21.786  0.00  0.00    +0.000 C 
BRANCH  15  16
ATOM     16  C   UNL     1      -2.925  14.186  22.406  0.00  0.00    +0.000 A 
ATOM     17  C   UNL     1      -2.887  13.205  23.407  0.00  0.00    +0.000 A 
ATOM     18  C   UNL     1      -4.072  12.715  23.962  0.00  0.00    +0.000 A 
ATOM     19  C   UNL     1      -5.299  13.213  23.527  0.00  0.00    +0.000 A 
ATOM     20 CL   UNL     1      -6.757  12.608  24.211  0.00  0.00    +0.000 Cl
ATOM     21  C   UNL     1      -5.353  14.200  22.547  0.00  0.00    +0.000 A 
ATOM     22  C   UNL     1      -4.172  14.688  21.993  0.00  0.00    +0.000 A 
ENDBRANCH  15  16
ENDBRANCH  14  15
ENDBRANCH  10  14
ENDBRANCH   6   7
BRANCH   3  23
ATOM     23  C   UNL     1       3.578   6.168  18.379  0.00  0.00    +0.000 C 
ATOM     24  O   UNL     1       4.284   6.152  17.384  0.00  0.00    +0.000 OA
ATOM     25  N   UNL     1       3.523   5.102  19.278  0.00  0.00    +0.000 N 
ATOM     26  H   UNL     1       2.898   5.062  20.077  0.00  0.00    +0.000 HD
BRANCH  25  27
ATOM     27  S   UNL     1       4.423   3.714  19.133  0.00  0.00    +0.000 S 
ATOM     28  C   UNL     1       3.842   3.025  17.598  0.00  0.00    +0.000 C 
ATOM     29  O   UNL     1       5.821   4.055  19.031  0.00  0.00    +0.000 OA
ATOM     30  O   UNL     1       3.953   2.863  20.205  0.00  0.00    +0.000 OA
ENDBRANCH  25  27
ENDBRANCH   3  23
BRANCH   1  32
ATOM     31  C   UNL     1      -0.396   8.276  21.846  0.00  0.00    +0.000 C 
ATOM     32  O   UNL     1       0.931   8.727  21.575  0.00  0.00    +0.000 OA
ENDBRANCH   1  32
TORSDOF 7
ENDMDL
MODEL 7
REMARK VINA RESULT:      -8.2      1.325      1.453
REMARK  Name = 
REMARK  9 active torsions:
REMARK  status: ('A' for Active; 'I' for Inactive)
REMARK    1  A    between atoms: C_1  and  O_2
REMARK    2  A    between atoms: O_2  and  C_3
REMARK    3  A    between atoms: C_5  and  C_6
REMARK    4  A    between atoms: N_8  and  S_9
REMARK    5  A    between atoms: S_9  and  C_10
REMARK    6  A    between atoms: C_15  and  C_16
REMARK    7  A    between atoms: C_19  and  O_20
REMARK    8  A    between atoms: O_20  and  C_21
REMARK    9  A    between atoms: C_21  and  C_22
REMARK                            x       y       z     vdW  Elec       q    Type
REMARK                         _______ _______ _______ _____ _____    ______ ____
ROOT
ATOM      1  C   UNL     1       2.362   6.495  19.535  0.00  0.00    +0.000 A 
ATOM      2  C   UNL     1       3.218   5.645  18.824  0.00  0.00    +0.000 A 
ATOM      3  C   UNL     1       3.919   6.094  17.698  0.00  0.00    +0.000 A 
ATOM      4  C   UNL     1       3.682   7.385  17.225  0.00  0.00    +0.000 A 
ATOM      5  C   UNL     1       2.789   8.222  17.903  0.00  0.00    +0.000 A 
ATOM      6  C   UNL     1       2.136   7.816  19.085  0.00  0.00    +0.000 A 
ENDROOT
BRANCH   6   7
ATOM      7  C   UNL     1       1.318   8.796  19.835  0.00  0.00    +0.000 A 
ATOM      8  C   UNL     1       0.635   9.844  19.220  0.00  0.00    +0.000 A 
ATOM      9  N   UNL     1      -0.167  10.731  19.861  0.00  0.00    +0.000 NA
ATOM     10  C   UNL     1      -0.318  10.574  21.196  0.00  0.00    +0.000 A 
ATOM     11  C   UNL     1       0.327   9.579  21.919  0.00  0.00    +0.000 A 
ATOM     12 CL   UNL     1       0.141   9.398  23.622  0.00  0.00    +0.000 Cl
ATOM     13  C   UNL     1       1.157   8.696  21.228  0.00  0.00    +0.000 A 
BRANCH  10  14
ATOM     14  O   UNL     1      -1.196  11.404  21.859  0.00  0.00    +0.000 OA
BRANCH  14  15
ATOM     15  C   UNL     1      -0.576  12.611  22.302  0.00  0.00    +0.000 C 
BRANCH  15  16
ATOM     16  C   UNL     1      -1.582  13.535  22.953  0.00  0.00    +0.000 A 
ATOM     17  C   UNL     1      -1.196  14.636  23.731  0.00  0.00    +0.000 A 
ATOM     18  C   UNL     1      -2.161  15.472  24.300  0.00  0.00    +0.000 A 
ATOM     19  C   UNL     1      -3.514  15.218  24.083  0.00  0.00    +0.000 A 
ATOM     20 CL   UNL     1      -4.700  16.248  24.786  0.00  0.00    +0.000 Cl
ATOM     21  C   UNL     1      -3.912  14.140  23.298  0.00  0.00    +0.000 A 
ATOM     22  C   UNL     1      -2.952  13.306  22.732  0.00  0.00    +0.000 A 
ENDBRANCH  15  16
ENDBRANCH  14  15
ENDBRANCH  10  14
ENDBRANCH   6   7
BRANCH   3  23
ATOM     23  C   UNL     1       4.944   5.168  17.136  0.00  0.00    +0.000 C 
ATOM     24  O   UNL     1       5.043   4.028  17.559  0.00  0.00    +0.000 OA
ATOM     25  N   UNL     1       5.838   5.707  16.208  0.00  0.00    +0.000 N 
ATOM     26  H   UNL     1       5.817   6.670  15.890  0.00  0.00    +0.000 HD
BRANCH  25  27
ATOM     27  S   UNL     1       7.107   4.867  15.543  0.00  0.00    +0.000 S 
ATOM     28  C   UNL     1       6.290   3.574  14.631  0.00  0.00    +0.000 C 
ATOM     29  O   UNL     1       7.837   5.728  14.645  0.00  0.00    +0.000 OA
ATOM     30  O   UNL     1       7.771   4.257  16.675  0.00  0.00    +0.000 OA
ENDBRANCH  25  27
ENDBRANCH   3  23
BRANCH   1  32
ATOM     31  C   UNL     1       1.373   4.700  20.736  0.00  0.00    +0.000 C 
ATOM     32  O   UNL     1       1.720   6.083  20.677  0.00  0.00    +0.000 OA
ENDBRANCH   1  32
TORSDOF 7
ENDMDL
MODEL 8
REMARK VINA RESULT:      -8.1      1.997      2.488
REMARK  Name = 
REMARK  9 active torsions:
REMARK  status: ('A' for Active; 'I' for Inactive)
REMARK    1  A    between atoms: C_1  and  O_2
REMARK    2  A    between atoms: O_2  and  C_3
REMARK    3  A    between atoms: C_5  and  C_6
REMARK    4  A    between atoms: N_8  and  S_9
REMARK    5  A    between atoms: S_9  and  C_10
REMARK    6  A    between atoms: C_15  and  C_16
REMARK    7  A    between atoms: C_19  and  O_20
REMARK    8  A    between atoms: O_20  and  C_21
REMARK    9  A    between atoms: C_21  and  C_22
REMARK                            x       y       z     vdW  Elec       q    Type
REMARK                         _______ _______ _______ _____ _____    ______ ____
ROOT
ATOM      1  C   UNL     1       1.407   8.322  20.091  0.00  0.00    +0.000 A 
ATOM      2  C   UNL     1       2.198   7.212  19.770  0.00  0.00    +0.000 A 
ATOM      3  C   UNL     1       2.882   7.135  18.551  0.00  0.00    +0.000 A 
ATOM      4  C   UNL     1       2.691   8.141  17.603  0.00  0.00    +0.000 A 
ATOM      5  C   UNL     1       1.860   9.227  17.900  0.00  0.00    +0.000 A 
ATOM      6  C   UNL     1       1.228   9.364  19.153  0.00  0.00    +0.000 A 
ENDROOT
BRANCH   6   7
ATOM      7  C   UNL     1       0.482  10.606  19.458  0.00  0.00    +0.000 A 
ATOM      8  C   UNL     1       1.092  11.754  19.962  0.00  0.00    +0.000 A 
ATOM      9  N   UNL     1       0.457  12.929  20.204  0.00  0.00    +0.000 NA
ATOM     10  C   UNL     1      -0.864  12.984  19.923  0.00  0.00    +0.000 A 
ATOM     11  C   UNL     1      -1.582  11.901  19.436  0.00  0.00    +0.000 A 
ATOM     12 CL   UNL     1      -3.270  11.978  19.097  0.00  0.00    +0.000 Cl
ATOM     13  C   UNL     1      -0.899  10.705  19.216  0.00  0.00    +0.000 A 
BRANCH  10  14
ATOM     14  O   UNL     1      -1.517  14.190  20.074  0.00  0.00    +0.000 OA
BRANCH  14  15
ATOM     15  C   UNL     1      -1.558  14.620  21.435  0.00  0.00    +0.000 C 
BRANCH  15  16
ATOM     16  C   UNL     1      -2.758  14.043  22.153  0.00  0.00    +0.000 A 
ATOM     17  C   UNL     1      -2.635  13.093  23.178  0.00  0.00    +0.000 A 
ATOM     18  C   UNL     1      -3.771  12.600  23.824  0.00  0.00    +0.000 A 
ATOM     19  C   UNL     1      -5.034  13.061  23.458  0.00  0.00    +0.000 A 
ATOM     20 CL   UNL     1      -6.432  12.451  24.253  0.00  0.00    +0.000 Cl
ATOM     21  C   UNL     1      -5.172  14.017  22.455  0.00  0.00    +0.000 A 
ATOM     22  C   UNL     1      -4.040  14.509  21.810  0.00  0.00    +0.000 A 
ENDBRANCH  15  16
ENDBRANCH  14  15
ENDBRANCH  10  14
ENDBRANCH   6   7
BRANCH   3  23
ATOM     23  C   UNL     1       3.844   6.006  18.394  0.00  0.00    +0.000 C 
ATOM     24  O   UNL     1       3.598   4.914  18.880  0.00  0.00    +0.000 OA
ATOM     25  N   UNL     1       5.063   6.298  17.779  0.00  0.00    +0.000 N 
ATOM     26  H   UNL     1       5.317   7.214  17.425  0.00  0.00    +0.000 HD
BRANCH  25  27
ATOM     27  S   UNL     1       6.300   5.205  17.599  0.00  0.00    +0.000 S 
ATOM     28  C   UNL     1       5.637   4.050  16.416  0.00  0.00    +0.000 C 
ATOM     29  O   UNL     1       7.457   5.871  17.053  0.00  0.00    +0.000 OA
ATOM     30  O   UNL     1       6.378   4.532  18.878  0.00  0.00    +0.000 OA
ENDBRANCH  25  27
ENDBRANCH   3  23
BRANCH   1  32
ATOM     31  C   UNL     1       1.576   8.976  22.369  0.00  0.00    +0.000 C 
ATOM     32  O   UNL     1       0.785   8.437  21.310  0.00  0.00    +0.000 OA
ENDBRANCH   1  32
TORSDOF 7
ENDMDL
MODEL 9
REMARK VINA RESULT:      -8.1      2.121      2.814
REMARK  Name = 
REMARK  9 active torsions:
REMARK  status: ('A' for Active; 'I' for Inactive)
REMARK    1  A    between atoms: C_1  and  O_2
REMARK    2  A    between atoms: O_2  and  C_3
REMARK    3  A    between atoms: C_5  and  C_6
REMARK    4  A    between atoms: N_8  and  S_9
REMARK    5  A    between atoms: S_9  and  C_10
REMARK    6  A    between atoms: C_15  and  C_16
REMARK    7  A    between atoms: C_19  and  O_20
REMARK    8  A    between atoms: O_20  and  C_21
REMARK    9  A    between atoms: C_21  and  C_22
REMARK                            x       y       z     vdW  Elec       q    Type
REMARK                         _______ _______ _______ _____ _____    ______ ____
ROOT
ATOM      1  C   UNL     1       1.248   8.338  20.347  0.00  0.00    +0.000 A 
ATOM      2  C   UNL     1       1.979   7.186  20.036  0.00  0.00    +0.000 A 
ATOM      3  C   UNL     1       2.625   7.045  18.802  0.00  0.00    +0.000 A 
ATOM      4  C   UNL     1       2.455   8.034  17.833  0.00  0.00    +0.000 A 
ATOM      5  C   UNL     1       1.684   9.166  18.122  0.00  0.00    +0.000 A 
ATOM      6  C   UNL     1       1.092   9.364  19.387  0.00  0.00    +0.000 A 
ENDROOT
BRANCH   6   7
ATOM      7  C   UNL     1       0.412  10.646  19.677  0.00  0.00    +0.000 A 
ATOM      8  C   UNL     1       1.086  11.773  20.148  0.00  0.00    +0.000 A 
ATOM      9  N   UNL     1       0.512  12.982  20.374  0.00  0.00    +0.000 NA
ATOM     10  C   UNL     1      -0.809  13.097  20.114  0.00  0.00    +0.000 A 
ATOM     11  C   UNL     1      -1.587  12.039  19.661  0.00  0.00    +0.000 A 
ATOM     12 CL   UNL     1      -3.274  12.192  19.347  0.00  0.00    +0.000 Cl
ATOM     13  C   UNL     1      -0.967  10.807  19.455  0.00  0.00    +0.000 A 
BRANCH  10  14
ATOM     14  O   UNL     1      -1.400  14.336  20.249  0.00  0.00    +0.000 OA
BRANCH  14  15
ATOM     15  C   UNL     1      -1.491  14.748  21.613  0.00  0.00    +0.000 C 
BRANCH  15  16
ATOM     16  C   UNL     1      -2.769  14.246  22.251  0.00  0.00    +0.000 A 
ATOM     17  C   UNL     1      -4.027  14.771  21.923  0.00  0.00    +0.000 A 
ATOM     18  C   UNL     1      -5.182  14.265  22.527  0.00  0.00    +0.000 A 
ATOM     19  C   UNL     1      -5.085  13.226  23.450  0.00  0.00    +0.000 A 
ATOM     20 CL   UNL     1      -6.507  12.606  24.193  0.00  0.00    +0.000 Cl
ATOM     21  C   UNL     1      -3.844  12.683  23.772  0.00  0.00    +0.000 A 
ATOM     22  C   UNL     1      -2.693  13.186  23.172  0.00  0.00    +0.000 A 
ENDBRANCH  15  16
ENDBRANCH  14  15
ENDBRANCH  10  14
ENDBRANCH   6   7
BRANCH   3  23
ATOM     23  C   UNL     1       3.530   5.869  18.651  0.00  0.00    +0.000 C 
ATOM     24  O   UNL     1       3.319   4.844  19.279  0.00  0.00    +0.000 OA
ATOM     25  N   UNL     1       4.668   6.047  17.863  0.00  0.00    +0.000 N 
ATOM     26  H   UNL     1       4.899   6.911  17.383  0.00  0.00    +0.000 HD
BRANCH  25  27
ATOM     27  S   UNL     1       5.843   4.893  17.651  0.00  0.00    +0.000 S 
ATOM     28  C   UNL     1       7.081   5.759  16.708  0.00  0.00    +0.000 C 
ATOM     29  O   UNL     1       6.374   4.504  18.935  0.00  0.00    +0.000 OA
ATOM     30  O   UNL     1       5.234   3.910  16.782  0.00  0.00    +0.000 OA
ENDBRANCH  25  27
ENDBRANCH   3  23
BRANCH   1  32
ATOM     31  C   UNL     1       1.458   9.182  22.558  0.00  0.00    +0.000 C 
ATOM     32  O   UNL     1       0.665   8.513  21.578  0.00  0.00    +0.000 OA
ENDBRANCH   1  32
TORSDOF 7
ENDMDL
