MODEL 1
REMARK VINA RESULT:      -7.8      0.000      0.000
REMARK  Name = 
REMARK  3 active torsions:
REMARK  status: ('A' for Active; 'I' for Inactive)
REMARK    1  A    between atoms: C_5  and  C_6
REMARK    2  A    between atoms: N_8  and  C_9
REMARK    3  A    between atoms: C_9  and  C_10
REMARK                            x       y       z     vdW  Elec       q    Type
REMARK                         _______ _______ _______ _____ _____    ______ ____
ROOT
ATOM      1  C   UNL     1       1.959   4.109  17.651  0.00  0.00    +0.000 C 
ATOM      2  C   UNL     1       3.309   3.676  16.981  0.00  0.00    +0.000 C 
ATOM      3  N   UNL     1       4.245   2.863  17.814  0.00  0.00    +0.000 NA
ATOM      4  C   UNL     1       3.468   1.738  18.374  0.00  0.00    +0.000 C 
ATOM      5  C   UNL     1       2.120   2.128  19.006  0.00  0.00    +0.000 C 
ATOM      6  O   UNL     1       1.296   2.917  18.134  0.00  0.00    +0.000 OA
ENDROOT
BRANCH   1  11
ATOM      7 CL   UNL     1       1.341   8.666  21.562  0.00  0.00    +0.000 Cl
ATOM      8  C   UNL     1       1.688   7.341  20.520  0.00  0.00    +0.000 A 
ATOM      9  C   UNL     1       1.382   6.045  20.921  0.00  0.00    +0.000 A 
ATOM     10  C   UNL     1       1.583   4.977  20.039  0.00  0.00    +0.000 A 
ATOM     11  C   UNL     1       2.012   5.207  18.721  0.00  0.00    +0.000 A 
ATOM     12  C   UNL     1       2.433   6.506  18.385  0.00  0.00    +0.000 A 
ATOM     13  C   UNL     1       2.255   7.572  19.273  0.00  0.00    +0.000 A 
ENDBRANCH   1  11
BRANCH   3  14
ATOM     14  C   UNL     1       4.851   3.704  18.866  0.00  0.00    +0.000 C 
BRANCH  14  15
ATOM     15  C   UNL     1       5.908   4.711  18.471  0.00  0.00    +0.000 A 
ATOM     16  C   UNL     1       5.776   5.506  17.338  0.00  0.00    +0.000 A 
ATOM     17  C   UNL     1       6.699   6.528  17.132  0.00  0.00    +0.000 A 
ATOM     18  C   UNL     1       7.720   6.732  18.062  0.00  0.00    +0.000 A 
ATOM     19  C   UNL     1       7.785   5.888  19.155  0.00  0.00    +0.000 A 
ATOM     20  N   UNL     1       6.910   4.888  19.374  0.00  0.00    +0.000 NA
ENDBRANCH  14  15
ENDBRANCH   3  14
TORSDOF 3
ENDMDL
MODEL 2
REMARK VINA RESULT:      -7.4      0.749      1.084
REMARK  Name = 
REMARK  3 active torsions:
REMARK  status: ('A' for Active; 'I' for Inactive)
REMARK    1  A    between atoms: C_5  and  C_6
REMARK    2  A    between atoms: N_8  and  C_9
REMARK    3  A    between atoms: C_9  and  C_10
REMARK                            x       y       z     vdW  Elec       q    Type
REMARK                         _______ _______ _______ _____ _____    ______ ____
ROOT
ATOM      1  C   UNL     1       1.870   4.002  17.657  0.00  0.00    +0.000 C 
ATOM      2  C   UNL     1       3.183   3.521  16.949  0.00  0.00    +0.000 C 
ATOM      3  N   UNL     1       4.135   2.714  17.770  0.00  0.00    +0.000 NA
ATOM      4  C   UNL     1       3.358   1.622  18.395  0.00  0.00    +0.000 C 
ATOM      5  C   UNL     1       2.044   2.060  19.065  0.00  0.00    +0.000 C 
ATOM      6  O   UNL     1       1.202   2.840  18.202  0.00  0.00    +0.000 OA
ENDROOT
BRANCH   1  11
ATOM      7 CL   UNL     1       1.498   8.690  21.441  0.00  0.00    +0.000 Cl
ATOM      8  C   UNL     1       1.777   7.327  20.430  0.00  0.00    +0.000 A 
ATOM      9  C   UNL     1       1.455   6.051  20.882  0.00  0.00    +0.000 A 
ATOM     10  C   UNL     1       1.599   4.952  20.028  0.00  0.00    +0.000 A 
ATOM     11  C   UNL     1       1.987   5.131  18.689  0.00  0.00    +0.000 A 
ATOM     12  C   UNL     1       2.426   6.408  18.298  0.00  0.00    +0.000 A 
ATOM     13  C   UNL     1       2.305   7.505  19.157  0.00  0.00    +0.000 A 
ENDBRANCH   1  11
BRANCH   3  14
ATOM     14  C   UNL     1       4.799   3.573  18.772  0.00  0.00    +0.000 C 
BRANCH  14  15
ATOM     15  C   UNL     1       5.706   4.682  18.289  0.00  0.00    +0.000 A 
ATOM     16  C   UNL     1       6.494   5.420  19.165  0.00  0.00    +0.000 A 
ATOM     17  C   UNL     1       7.429   6.304  18.634  0.00  0.00    +0.000 A 
ATOM     18  C   UNL     1       7.557   6.423  17.249  0.00  0.00    +0.000 A 
ATOM     19  C   UNL     1       6.726   5.661  16.451  0.00  0.00    +0.000 A 
ATOM     20  N   UNL     1       5.807   4.804  16.937  0.00  0.00    +0.000 NA
ENDBRANCH  14  15
ENDBRANCH   3  14
TORSDOF 3
ENDMDL
MODEL 3
REMARK VINA RESULT:      -7.3      1.655      2.059
REMARK  Name = 
REMARK  3 active torsions:
REMARK  status: ('A' for Active; 'I' for Inactive)
REMARK    1  A    between atoms: C_5  and  C_6
REMARK    2  A    between atoms: N_8  and  C_9
REMARK    3  A    between atoms: C_9  and  C_10
REMARK                            x       y       z     vdW  Elec       q    Type
REMARK                         _______ _______ _______ _____ _____    ______ ____
ROOT
ATOM      1  C   UNL     1       1.421   4.028  19.543  0.00  0.00    +0.000 C 
ATOM      2  C   UNL     1       2.410   3.004  18.886  0.00  0.00    +0.000 C 
ATOM      3  N   UNL     1       3.715   2.786  19.579  0.00  0.00    +0.000 NA
ATOM      4  C   UNL     1       3.414   2.500  20.998  0.00  0.00    +0.000 C 
ATOM      5  C   UNL     1       2.417   3.467  21.660  0.00  0.00    +0.000 C 
ATOM      6  O   UNL     1       1.200   3.620  20.914  0.00  0.00    +0.000 OA
ENDROOT
BRANCH   1  11
ATOM      7 CL   UNL     1       1.919  10.000  18.817  0.00  0.00    +0.000 Cl
ATOM      8  C   UNL     1       1.957   8.300  19.079  0.00  0.00    +0.000 A 
ATOM      9  C   UNL     1       1.633   7.784  20.330  0.00  0.00    +0.000 A 
ATOM     10  C   UNL     1       1.578   6.399  20.519  0.00  0.00    +0.000 A 
ATOM     11  C   UNL     1       1.764   5.520  19.439  0.00  0.00    +0.000 A 
ATOM     12  C   UNL     1       2.212   6.062  18.221  0.00  0.00    +0.000 A 
ATOM     13  C   UNL     1       2.290   7.446  18.035  0.00  0.00    +0.000 A 
ENDBRANCH   1  11
BRANCH   3  14
ATOM     14  C   UNL     1       4.582   3.971  19.419  0.00  0.00    +0.000 C 
BRANCH  14  15
ATOM     15  C   UNL     1       5.453   4.071  18.186  0.00  0.00    +0.000 A 
ATOM     16  C   UNL     1       4.922   3.985  16.904  0.00  0.00    +0.000 A 
ATOM     17  C   UNL     1       5.754   4.258  15.821  0.00  0.00    +0.000 A 
ATOM     18  C   UNL     1       7.085   4.614  16.047  0.00  0.00    +0.000 A 
ATOM     19  C   UNL     1       7.534   4.663  17.353  0.00  0.00    +0.000 A 
ATOM     20  N   UNL     1       6.754   4.397  18.418  0.00  0.00    +0.000 NA
ENDBRANCH  14  15
ENDBRANCH   3  14
TORSDOF 3
ENDMDL
MODEL 4
REMARK VINA RESULT:      -7.2      3.200      5.439
REMARK  Name = 
REMARK  3 active torsions:
REMARK  status: ('A' for Active; 'I' for Inactive)
REMARK    1  A    between atoms: C_5  and  C_6
REMARK    2  A    between atoms: N_8  and  C_9
REMARK    3  A    between atoms: C_9  and  C_10
REMARK                            x       y       z     vdW  Elec       q    Type
REMARK                         _______ _______ _______ _____ _____    ______ ____
ROOT
ATOM      1  C   UNL     1       4.418   3.460  18.802  0.00  0.00    +0.000 C 
ATOM      2  C   UNL     1       3.851   4.427  19.898  0.00  0.00    +0.000 C 
ATOM      3  N   UNL     1       2.610   5.183  19.555  0.00  0.00    +0.000 NA
ATOM      4  C   UNL     1       1.623   4.202  19.055  0.00  0.00    +0.000 C 
ATOM      5  C   UNL     1       2.162   3.215  18.005  0.00  0.00    +0.000 C 
ATOM      6  O   UNL     1       3.363   2.546  18.421  0.00  0.00    +0.000 OA
ENDROOT
BRANCH   1  11
ATOM      7 CL   UNL     1       7.561   5.147  13.931  0.00  0.00    +0.000 Cl
ATOM      8  C   UNL     1       6.588   4.838  15.316  0.00  0.00    +0.000 A 
ATOM      9  C   UNL     1       5.307   4.316  15.162  0.00  0.00    +0.000 A 
ATOM     10  C   UNL     1       4.550   3.982  16.290  0.00  0.00    +0.000 A 
ATOM     11  C   UNL     1       5.100   4.088  17.579  0.00  0.00    +0.000 A 
ATOM     12  C   UNL     1       6.342   4.734  17.712  0.00  0.00    +0.000 A 
ATOM     13  C   UNL     1       7.091   5.090  16.586  0.00  0.00    +0.000 A 
ENDBRANCH   1  11
BRANCH   3  14
ATOM     14  C   UNL     1       2.911   6.231  18.558  0.00  0.00    +0.000 C 
BRANCH  14  15
ATOM     15  C   UNL     1       2.351   7.619  18.775  0.00  0.00    +0.000 A 
ATOM     16  C   UNL     1       2.228   8.531  17.732  0.00  0.00    +0.000 A 
ATOM     17  C   UNL     1       1.547   9.722  17.969  0.00  0.00    +0.000 A 
ATOM     18  C   UNL     1       1.004   9.967  19.232  0.00  0.00    +0.000 A 
ATOM     19  C   UNL     1       1.184   9.012  20.214  0.00  0.00    +0.000 A 
ATOM     20  N   UNL     1       1.844   7.855  20.015  0.00  0.00    +0.000 NA
ENDBRANCH  14  15
ENDBRANCH   3  14
TORSDOF 3
ENDMDL
MODEL 5
REMARK VINA RESULT:      -7.2      0.527      1.197
REMARK  Name = 
REMARK  3 active torsions:
REMARK  status: ('A' for Active; 'I' for Inactive)
REMARK    1  A    between atoms: C_5  and  C_6
REMARK    2  A    between atoms: N_8  and  C_9
REMARK    3  A    between atoms: C_9  and  C_10
REMARK                            x       y       z     vdW  Elec       q    Type
REMARK                         _______ _______ _______ _____ _____    ______ ____
ROOT
ATOM      1  C   UNL     1       2.116   3.680  17.840  0.00  0.00    +0.000 C 
ATOM      2  C   UNL     1       3.576   3.424  17.329  0.00  0.00    +0.000 C 
ATOM      3  N   UNL     1       4.587   3.019  18.352  0.00  0.00    +0.000 NA
ATOM      4  C   UNL     1       4.012   1.889  19.113  0.00  0.00    +0.000 C 
ATOM      5  C   UNL     1       2.566   2.098  19.594  0.00  0.00    +0.000 C 
ATOM      6  O   UNL     1       1.673   2.496  18.543  0.00  0.00    +0.000 OA
ENDROOT
BRANCH   1  11
ATOM      7 CL   UNL     1       1.906   8.546  21.407  0.00  0.00    +0.000 Cl
ATOM      8  C   UNL     1       1.794   7.208  20.331  0.00  0.00    +0.000 A 
ATOM      9  C   UNL     1       2.227   7.338  19.015  0.00  0.00    +0.000 A 
ATOM     10  C   UNL     1       2.218   6.226  18.166  0.00  0.00    +0.000 A 
ATOM     11  C   UNL     1       1.856   4.957  18.649  0.00  0.00    +0.000 A 
ATOM     12  C   UNL     1       1.305   4.880  19.941  0.00  0.00    +0.000 A 
ATOM     13  C   UNL     1       1.291   5.995  20.784  0.00  0.00    +0.000 A 
ENDBRANCH   1  11
BRANCH   3  14
ATOM     14  C   UNL     1       4.920   4.166  19.220  0.00  0.00    +0.000 C 
BRANCH  14  15
ATOM     15  C   UNL     1       6.029   5.102  18.792  0.00  0.00    +0.000 A 
ATOM     16  C   UNL     1       5.892   5.949  17.698  0.00  0.00    +0.000 A 
ATOM     17  C   UNL     1       6.881   6.902  17.469  0.00  0.00    +0.000 A 
ATOM     18  C   UNL     1       7.972   6.988  18.336  0.00  0.00    +0.000 A 
ATOM     19  C   UNL     1       8.035   6.098  19.392  0.00  0.00    +0.000 A 
ATOM     20  N   UNL     1       7.097   5.162  19.634  0.00  0.00    +0.000 NA
ENDBRANCH  14  15
ENDBRANCH   3  14
TORSDOF 3
ENDMDL
MODEL 6
REMARK VINA RESULT:      -7.1      2.521      5.028
REMARK  Name = 
REMARK  3 active torsions:
REMARK  status: ('A' for Active; 'I' for Inactive)
REMARK    1  A    between atoms: C_5  and  C_6
REMARK    2  A    between atoms: N_8  and  C_9
REMARK    3  A    between atoms: C_9  and  C_10
REMARK                            x       y       z     vdW  Elec       q    Type
REMARK                         _______ _______ _______ _____ _____    ______ ____
ROOT
ATOM      1  C   UNL     1       4.327   3.337  18.536  0.00  0.00    +0.000 C 
ATOM      2  C   UNL     1       3.518   3.547  19.862  0.00  0.00    +0.000 C 
ATOM      3  N   UNL     1       2.474   4.616  19.854  0.00  0.00    +0.000 NA
ATOM      4  C   UNL     1       1.626   4.390  18.665  0.00  0.00    +0.000 C 
ATOM      5  C   UNL     1       2.393   4.143  17.354  0.00  0.00    +0.000 C 
ATOM      6  O   UNL     1       3.381   3.107  17.465  0.00  0.00    +0.000 OA
ENDROOT
BRANCH   1  11
ATOM      7 CL   UNL     1       7.848   8.111  17.414  0.00  0.00    +0.000 Cl
ATOM      8  C   UNL     1       6.976   6.646  17.649  0.00  0.00    +0.000 A 
ATOM      9  C   UNL     1       7.192   5.887  18.794  0.00  0.00    +0.000 A 
ATOM     10  C   UNL     1       6.420   4.743  19.027  0.00  0.00    +0.000 A 
ATOM     11  C   UNL     1       5.370   4.398  18.160  0.00  0.00    +0.000 A 
ATOM     12  C   UNL     1       5.258   5.107  16.950  0.00  0.00    +0.000 A 
ATOM     13  C   UNL     1       6.044   6.237  16.704  0.00  0.00    +0.000 A 
ENDBRANCH   1  11
BRANCH   3  14
ATOM     14  C   UNL     1       3.111   5.949  19.842  0.00  0.00    +0.000 C 
BRANCH  14  15
ATOM     15  C   UNL     1       2.229   7.172  19.721  0.00  0.00    +0.000 A 
ATOM     16  C   UNL     1       1.505   7.665  20.801  0.00  0.00    +0.000 A 
ATOM     17  C   UNL     1       0.855   8.888  20.663  0.00  0.00    +0.000 A 
ATOM     18  C   UNL     1       0.950   9.587  19.458  0.00  0.00    +0.000 A 
ATOM     19  C   UNL     1       1.680   9.019  18.431  0.00  0.00    +0.000 A 
ATOM     20  N   UNL     1       2.312   7.835  18.535  0.00  0.00    +0.000 NA
ENDBRANCH  14  15
ENDBRANCH   3  14
TORSDOF 3
ENDMDL
MODEL 7
REMARK VINA RESULT:      -7.0      3.701      6.417
REMARK  Name = 
REMARK  3 active torsions:
REMARK  status: ('A' for Active; 'I' for Inactive)
REMARK    1  A    between atoms: C_5  and  C_6
REMARK    2  A    between atoms: N_8  and  C_9
REMARK    3  A    between atoms: C_9  and  C_10
REMARK                            x       y       z     vdW  Elec       q    Type
REMARK                         _______ _______ _______ _____ _____    ______ ____
ROOT
ATOM      1  C   UNL     1       6.383   6.512  16.785  0.00  0.00    +0.000 C 
ATOM      2  C   UNL     1       5.275   6.539  17.893  0.00  0.00    +0.000 C 
ATOM      3  N   UNL     1       5.319   5.453  18.918  0.00  0.00    +0.000 NA
ATOM      4  C   UNL     1       6.697   5.409  19.451  0.00  0.00    +0.000 C 
ATOM      5  C   UNL     1       7.808   5.419  18.386  0.00  0.00    +0.000 C 
ATOM      6  O   UNL     1       7.673   6.492  17.440  0.00  0.00    +0.000 OA
ENDROOT
BRANCH   1  11
ATOM      7 CL   UNL     1       5.763   2.966  11.939  0.00  0.00    +0.000 Cl
ATOM      8  C   UNL     1       5.973   3.819  13.418  0.00  0.00    +0.000 A 
ATOM      9  C   UNL     1       7.240   4.257  13.792  0.00  0.00    +0.000 A 
ATOM     10  C   UNL     1       7.396   5.027  14.949  0.00  0.00    +0.000 A 
ATOM     11  C   UNL     1       6.278   5.436  15.696  0.00  0.00    +0.000 A 
ATOM     12  C   UNL     1       5.030   4.876  15.368  0.00  0.00    +0.000 A 
ATOM     13  C   UNL     1       4.874   4.087  14.224  0.00  0.00    +0.000 A 
ENDBRANCH   1  11
BRANCH   3  14
ATOM     14  C   UNL     1       4.911   4.168  18.315  0.00  0.00    +0.000 C 
BRANCH  14  15
ATOM     15  C   UNL     1       3.494   3.684  18.529  0.00  0.00    +0.000 A 
ATOM     16  C   UNL     1       2.406   4.312  17.932  0.00  0.00    +0.000 A 
ATOM     17  C   UNL     1       1.155   3.710  18.033  0.00  0.00    +0.000 A 
ATOM     18  C   UNL     1       1.024   2.501  18.718  0.00  0.00    +0.000 A 
ATOM     19  C   UNL     1       2.154   1.952  19.292  0.00  0.00    +0.000 A 
ATOM     20  N   UNL     1       3.375   2.516  19.217  0.00  0.00    +0.000 NA
ENDBRANCH  14  15
ENDBRANCH   3  14
TORSDOF 3
ENDMDL
MODEL 8
REMARK VINA RESULT:      -6.9      3.101      5.453
REMARK  Name = 
REMARK  3 active torsions:
REMARK  status: ('A' for Active; 'I' for Inactive)
REMARK    1  A    between atoms: C_5  and  C_6
REMARK    2  A    between atoms: N_8  and  C_9
REMARK    3  A    between atoms: C_9  and  C_10
REMARK                            x       y       z     vdW  Elec       q    Type
REMARK                         _______ _______ _______ _____ _____    ______ ____
ROOT
ATOM      1  C   UNL     1       4.306   3.297  18.906  0.00  0.00    +0.000 C 
ATOM      2  C   UNL     1       3.900   4.198  20.123  0.00  0.00    +0.000 C 
ATOM      3  N   UNL     1       2.744   5.123  19.922  0.00  0.00    +0.000 NA
ATOM      4  C   UNL     1       1.630   4.319  19.375  0.00  0.00    +0.000 C 
ATOM      5  C   UNL     1       2.007   3.396  18.203  0.00  0.00    +0.000 C 
ATOM      6  O   UNL     1       3.136   2.555  18.488  0.00  0.00    +0.000 OA
ENDROOT
BRANCH   1  11
ATOM      7 CL   UNL     1       7.520   5.159  14.148  0.00  0.00    +0.000 Cl
ATOM      8  C   UNL     1       6.531   4.801  15.509  0.00  0.00    +0.000 A 
ATOM      9  C   UNL     1       5.240   4.315  15.320  0.00  0.00    +0.000 A 
ATOM     10  C   UNL     1       4.468   3.941  16.425  0.00  0.00    +0.000 A 
ATOM     11  C   UNL     1       5.010   3.971  17.721  0.00  0.00    +0.000 A 
ATOM     12  C   UNL     1       6.264   4.582  17.895  0.00  0.00    +0.000 A 
ATOM     13  C   UNL     1       7.029   4.978  16.793  0.00  0.00    +0.000 A 
ENDBRANCH   1  11
BRANCH   3  14
ATOM     14  C   UNL     1       3.128   6.230  19.023  0.00  0.00    +0.000 C 
BRANCH  14  15
ATOM     15  C   UNL     1       2.293   7.491  19.029  0.00  0.00    +0.000 A 
ATOM     16  C   UNL     1       1.686   7.964  20.187  0.00  0.00    +0.000 A 
ATOM     17  C   UNL     1       1.080   9.217  20.155  0.00  0.00    +0.000 A 
ATOM     18  C   UNL     1       1.101   9.964  18.975  0.00  0.00    +0.000 A 
ATOM     19  C   UNL     1       1.716   9.413  17.867  0.00  0.00    +0.000 A 
ATOM     20  N   UNL     1       2.303   8.201  17.867  0.00  0.00    +0.000 NA
ENDBRANCH  14  15
ENDBRANCH   3  14
TORSDOF 3
ENDMDL
MODEL 9
REMARK VINA RESULT:      -6.9      2.728      5.203
REMARK  Name = 
REMARK  3 active torsions:
REMARK  status: ('A' for Active; 'I' for Inactive)
REMARK    1  A    between atoms: C_5  and  C_6
REMARK    2  A    between atoms: N_8  and  C_9
REMARK    3  A    between atoms: C_9  and  C_10
REMARK                            x       y       z     vdW  Elec       q    Type
REMARK                         _______ _______ _______ _____ _____    ______ ____
ROOT
ATOM      1  C   UNL     1       4.607   3.864  19.074  0.00  0.00    +0.000 C 
ATOM      2  C   UNL     1       3.391   4.468  19.858  0.00  0.00    +0.000 C 
ATOM      3  N   UNL     1       2.382   5.225  19.060  0.00  0.00    +0.000 NA
ATOM      4  C   UNL     1       1.992   4.367  17.920  0.00  0.00    +0.000 C 
ATOM      5  C   UNL     1       3.164   3.729  17.154  0.00  0.00    +0.000 C 
ATOM      6  O   UNL     1       4.086   3.035  18.009  0.00  0.00    +0.000 OA
ENDROOT
BRANCH   1  11
ATOM      7 CL   UNL     1       8.310   8.336  17.420  0.00  0.00    +0.000 Cl
ATOM      8  C   UNL     1       7.377   6.944  17.811  0.00  0.00    +0.000 A 
ATOM      9  C   UNL     1       7.603   6.270  19.007  0.00  0.00    +0.000 A 
ATOM     10  C   UNL     1       6.786   5.193  19.365  0.00  0.00    +0.000 A 
ATOM     11  C   UNL     1       5.685   4.833  18.570  0.00  0.00    +0.000 A 
ATOM     12  C   UNL     1       5.556   5.445  17.311  0.00  0.00    +0.000 A 
ATOM     13  C   UNL     1       6.386   6.508  16.940  0.00  0.00    +0.000 A 
ENDBRANCH   1  11
BRANCH   3  14
ATOM     14  C   UNL     1       2.945   6.517  18.619  0.00  0.00    +0.000 C 
BRANCH  14  15
ATOM     15  C   UNL     1       2.190   7.786  18.945  0.00  0.00    +0.000 A 
ATOM     16  C   UNL     1       1.814   8.691  17.958  0.00  0.00    +0.000 A 
ATOM     17  C   UNL     1       0.975   9.745  18.308  0.00  0.00    +0.000 A 
ATOM     18  C   UNL     1       0.530   9.864  19.626  0.00  0.00    +0.000 A 
ATOM     19  C   UNL     1       0.962   8.928  20.546  0.00  0.00    +0.000 A 
ATOM     20  N   UNL     1       1.780   7.903  20.237  0.00  0.00    +0.000 NA
ENDBRANCH  14  15
ENDBRANCH   3  14
TORSDOF 3
ENDMDL
