MODEL 1
REMARK VINA RESULT:      -6.5      0.000      0.000
REMARK  Name = 
REMARK  2 active torsions:
REMARK  status: ('A' for Active; 'I' for Inactive)
REMARK    1  A    between atoms: C_2  and  C_3
REMARK    2  A    between atoms: N_16  and  C_17
REMARK                            x       y       z     vdW  Elec       q    Type
REMARK                         _______ _______ _______ _____ _____    ______ ____
ROOT
ATOM      1  O   UNL     1      -6.549  11.042  18.025  0.00  0.00    +0.000 OA
ATOM      2  C   UNL     1      -5.344  11.261  18.172  0.00  0.00    +0.000 C 
ATOM      3  N   UNL     1      -4.831  11.916  19.309  0.00  0.00    +0.000 N 
ATOM      4  C   UNL     1      -3.415  12.225  19.484  0.00  0.00    +0.000 C 
ATOM      5  C   UNL     1      -3.192  13.492  20.291  0.00  0.00    +0.000 C 
ATOM      6  C   UNL     1      -3.928  13.455  21.636  0.00  0.00    +0.000 C 
ATOM      7  C   UNL     1      -5.421  13.215  21.351  0.00  0.00    +0.000 C 
ATOM      8  C   UNL     1      -5.679  11.975  20.499  0.00  0.00    +0.000 C 
ATOM      9  C   UNL     1      -3.357  12.398  22.605  0.00  0.00    +0.000 C 
ATOM     10  N   UNL     1      -1.946  12.652  22.906  0.00  0.00    +0.000 N 
ATOM     11  C   UNL     1      -1.646  13.946  23.365  0.00  0.00    +0.000 C 
ATOM     12  O   UNL     1      -0.696  14.249  24.080  0.00  0.00    +0.000 OA
ATOM     13  C   UNL     1      -2.539  15.048  22.751  0.00  0.00    +0.000 C 
ATOM     14  O   UNL     1      -3.846  14.728  22.302  0.00  0.00    +0.000 OA
ENDROOT
BRANCH   2  15
ATOM     15  C   UNL     1      -4.407  10.824  17.084  0.00  0.00    +0.000 A 
ATOM     16  C   UNL     1      -3.489   9.810  17.341  0.00  0.00    +0.000 A 
ATOM     17  C   UNL     1      -2.679   9.373  16.293  0.00  0.00    +0.000 A 
ATOM     18  C   UNL     1      -2.809   9.958  15.036  0.00  0.00    +0.000 A 
ATOM     19  C   UNL     1      -3.728  10.980  14.879  0.00  0.00    +0.000 A 
ATOM     20  N   UNL     1      -4.518  11.436  15.875  0.00  0.00    +0.000 NA
ENDBRANCH   2  15
BRANCH  10  21
ATOM     21  C   UNL     1      -0.939  11.634  22.757  0.00  0.00    +0.000 A 
ATOM     22  C   UNL     1       0.105  11.713  21.843  0.00  0.00    +0.000 A 
ATOM     23  N   UNL     1       1.016  10.734  21.606  0.00  0.00    +0.000 NA
ATOM     24  C   UNL     1       0.873   9.619  22.325  0.00  0.00    +0.000 A 
ATOM     25  N   UNL     1      -0.077   9.403  23.241  0.00  0.00    +0.000 NA
ATOM     26  C   UNL     1      -0.953  10.420  23.433  0.00  0.00    +0.000 A 
ENDBRANCH  10  21
TORSDOF 2
ENDMDL
MODEL 2
REMARK VINA RESULT:      -6.2      4.803      6.167
REMARK  Name = 
REMARK  2 active torsions:
REMARK  status: ('A' for Active; 'I' for Inactive)
REMARK    1  A    between atoms: C_2  and  C_3
REMARK    2  A    between atoms: N_16  and  C_17
REMARK                            x       y       z     vdW  Elec       q    Type
REMARK                         _______ _______ _______ _____ _____    ______ ____
ROOT
ATOM      1  O   UNL     1      -1.622  10.969  18.874  0.00  0.00    +0.000 OA
ATOM      2  C   UNL     1      -0.413  11.155  19.033  0.00  0.00    +0.000 C 
ATOM      3  N   UNL     1       0.151  12.445  19.078  0.00  0.00    +0.000 N 
ATOM      4  C   UNL     1       1.583  12.688  19.220  0.00  0.00    +0.000 C 
ATOM      5  C   UNL     1       2.030  13.960  18.521  0.00  0.00    +0.000 C 
ATOM      6  C   UNL     1       1.208  15.178  18.962  0.00  0.00    +0.000 C 
ATOM      7  C   UNL     1      -0.276  14.868  18.693  0.00  0.00    +0.000 C 
ATOM      8  C   UNL     1      -0.746  13.569  19.341  0.00  0.00    +0.000 C 
ATOM      9  C   UNL     1       1.451  15.564  20.436  0.00  0.00    +0.000 C 
ATOM     10  N   UNL     1       2.856  15.897  20.681  0.00  0.00    +0.000 N 
ATOM     11  C   UNL     1       3.409  16.865  19.825  0.00  0.00    +0.000 C 
ATOM     12  O   UNL     1       4.348  17.608  20.097  0.00  0.00    +0.000 OA
ATOM     13  C   UNL     1       2.838  16.829  18.389  0.00  0.00    +0.000 C 
ATOM     14  O   UNL     1       1.529  16.331  18.163  0.00  0.00    +0.000 OA
ENDROOT
BRANCH   2  15
ATOM     15  C   UNL     1       0.477   9.953  19.162  0.00  0.00    +0.000 A 
ATOM     16  C   UNL     1       1.160   9.487  18.042  0.00  0.00    +0.000 A 
ATOM     17  C   UNL     1       2.036   8.414  18.203  0.00  0.00    +0.000 A 
ATOM     18  C   UNL     1       2.198   7.844  19.464  0.00  0.00    +0.000 A 
ATOM     19  C   UNL     1       1.456   8.352  20.515  0.00  0.00    +0.000 A 
ATOM     20  N   UNL     1       0.590   9.382  20.390  0.00  0.00    +0.000 NA
ENDBRANCH   2  15
BRANCH  10  21
ATOM     21  C   UNL     1       3.613  15.281  21.739  0.00  0.00    +0.000 A 
ATOM     22  C   UNL     1       3.808  15.864  22.986  0.00  0.00    +0.000 A 
ATOM     23  N   UNL     1       4.593  15.361  23.972  0.00  0.00    +0.000 NA
ATOM     24  C   UNL     1       5.212  14.211  23.696  0.00  0.00    +0.000 A 
ATOM     25  N   UNL     1       5.115  13.536  22.547  0.00  0.00    +0.000 NA
ATOM     26  C   UNL     1       4.314  14.089  21.603  0.00  0.00    +0.000 A 
ENDBRANCH  10  21
TORSDOF 2
ENDMDL
MODEL 3
REMARK VINA RESULT:      -6.2      5.127      6.525
REMARK  Name = 
REMARK  2 active torsions:
REMARK  status: ('A' for Active; 'I' for Inactive)
REMARK    1  A    between atoms: C_2  and  C_3
REMARK    2  A    between atoms: N_16  and  C_17
REMARK                            x       y       z     vdW  Elec       q    Type
REMARK                         _______ _______ _______ _____ _____    ______ ____
ROOT
ATOM      1  O   UNL     1      -1.377  11.027  19.333  0.00  0.00    +0.000 OA
ATOM      2  C   UNL     1      -0.154  11.154  19.229  0.00  0.00    +0.000 C 
ATOM      3  N   UNL     1       0.468  12.415  19.153  0.00  0.00    +0.000 N 
ATOM      4  C   UNL     1       1.908  12.589  18.985  0.00  0.00    +0.000 C 
ATOM      5  C   UNL     1       2.256  13.846  18.207  0.00  0.00    +0.000 C 
ATOM      6  C   UNL     1       1.607  15.096  18.816  0.00  0.00    +0.000 C 
ATOM      7  C   UNL     1       0.087  14.860  18.871  0.00  0.00    +0.000 C 
ATOM      8  C   UNL     1      -0.296  13.578  19.603  0.00  0.00    +0.000 C 
ATOM      9  C   UNL     1       2.179  15.454  20.204  0.00  0.00    +0.000 C 
ATOM     10  N   UNL     1       3.619  15.717  20.141  0.00  0.00    +0.000 N 
ATOM     11  C   UNL     1       4.022  16.668  19.187  0.00  0.00    +0.000 C 
ATOM     12  O   UNL     1       5.032  17.362  19.252  0.00  0.00    +0.000 OA
ATOM     13  C   UNL     1       3.155  16.674  17.907  0.00  0.00    +0.000 C 
ATOM     14  O   UNL     1       1.806  16.242  17.967  0.00  0.00    +0.000 OA
ENDROOT
BRANCH   2  15
ATOM     15  C   UNL     1       0.683   9.910  19.164  0.00  0.00    +0.000 A 
ATOM     16  C   UNL     1       1.199   9.499  17.938  0.00  0.00    +0.000 A 
ATOM     17  C   UNL     1       2.033   8.382  17.914  0.00  0.00    +0.000 A 
ATOM     18  C   UNL     1       2.319   7.715  19.102  0.00  0.00    +0.000 A 
ATOM     19  C   UNL     1       1.738   8.175  20.271  0.00  0.00    +0.000 A 
ATOM     20  N   UNL     1       0.917   9.246  20.326  0.00  0.00    +0.000 NA
ENDBRANCH   2  15
BRANCH  10  21
ATOM     21  C   UNL     1       4.554  15.054  21.012  0.00  0.00    +0.000 A 
ATOM     22  C   UNL     1       5.921  14.994  20.770  0.00  0.00    +0.000 A 
ATOM     23  N   UNL     1       6.819  14.298  21.515  0.00  0.00    +0.000 NA
ATOM     24  C   UNL     1       6.320  13.632  22.558  0.00  0.00    +0.000 A 
ATOM     25  N   UNL     1       5.032  13.603  22.914  0.00  0.00    +0.000 NA
ATOM     26  C   UNL     1       4.187  14.319  22.133  0.00  0.00    +0.000 A 
ENDBRANCH  10  21
TORSDOF 2
ENDMDL
MODEL 4
REMARK VINA RESULT:      -6.1      4.806      6.253
REMARK  Name = 
REMARK  2 active torsions:
REMARK  status: ('A' for Active; 'I' for Inactive)
REMARK    1  A    between atoms: C_2  and  C_3
REMARK    2  A    between atoms: N_16  and  C_17
REMARK                            x       y       z     vdW  Elec       q    Type
REMARK                         _______ _______ _______ _____ _____    ______ ____
ROOT
ATOM      1  O   UNL     1      -1.568  11.061  19.288  0.00  0.00    +0.000 OA
ATOM      2  C   UNL     1      -0.352  11.239  19.389  0.00  0.00    +0.000 C 
ATOM      3  N   UNL     1       0.228  12.523  19.348  0.00  0.00    +0.000 N 
ATOM      4  C   UNL     1       1.667  12.754  19.420  0.00  0.00    +0.000 C 
ATOM      5  C   UNL     1       2.098  13.985  18.642  0.00  0.00    +0.000 C 
ATOM      6  C   UNL     1       1.308  15.233  19.057  0.00  0.00    +0.000 C 
ATOM      7  C   UNL     1      -0.189  14.930  18.864  0.00  0.00    +0.000 C 
ATOM      8  C   UNL     1      -0.646  13.670  19.592  0.00  0.00    +0.000 C 
ATOM      9  C   UNL     1       1.616  15.687  20.499  0.00  0.00    +0.000 C 
ATOM     10  N   UNL     1       3.033  16.013  20.669  0.00  0.00    +0.000 N 
ATOM     11  C   UNL     1       3.561  16.932  19.746  0.00  0.00    +0.000 C 
ATOM     12  O   UNL     1       4.518  17.675  19.943  0.00  0.00    +0.000 OA
ATOM     13  C   UNL     1       2.930  16.834  18.338  0.00  0.00    +0.000 C 
ATOM     14  O   UNL     1       1.608  16.342  18.190  0.00  0.00    +0.000 OA
ENDROOT
BRANCH   2  15
ATOM     15  C   UNL     1       0.530  10.034  19.540  0.00  0.00    +0.000 A 
ATOM     16  C   UNL     1       0.606   9.396  20.775  0.00  0.00    +0.000 A 
ATOM     17  C   UNL     1       1.374   8.236  20.872  0.00  0.00    +0.000 A 
ATOM     18  C   UNL     1       2.038   7.757  19.745  0.00  0.00    +0.000 A 
ATOM     19  C   UNL     1       1.930   8.472  18.566  0.00  0.00    +0.000 A 
ATOM     20  N   UNL     1       1.205   9.605  18.441  0.00  0.00    +0.000 NA
ENDBRANCH   2  15
BRANCH  10  21
ATOM     21  C   UNL     1       3.826  15.440  21.725  0.00  0.00    +0.000 A 
ATOM     22  C   UNL     1       4.468  14.211  21.625  0.00  0.00    +0.000 A 
ATOM     23  N   UNL     1       5.143  13.595  22.629  0.00  0.00    +0.000 NA
ATOM     24  C   UNL     1       5.179  14.246  23.793  0.00  0.00    +0.000 A 
ATOM     25  N   UNL     1       4.614  15.433  24.035  0.00  0.00    +0.000 NA
ATOM     26  C   UNL     1       3.958  15.997  22.991  0.00  0.00    +0.000 A 
ENDBRANCH  10  21
TORSDOF 2
ENDMDL
MODEL 5
REMARK VINA RESULT:      -6.1      3.282      5.678
REMARK  Name = 
REMARK  2 active torsions:
REMARK  status: ('A' for Active; 'I' for Inactive)
REMARK    1  A    between atoms: C_2  and  C_3
REMARK    2  A    between atoms: N_16  and  C_17
REMARK                            x       y       z     vdW  Elec       q    Type
REMARK                         _______ _______ _______ _____ _____    ______ ____
ROOT
ATOM      1  O   UNL     1      -5.902  10.814  17.912  0.00  0.00    +0.000 OA
ATOM      2  C   UNL     1      -5.351  11.540  18.744  0.00  0.00    +0.000 C 
ATOM      3  N   UNL     1      -3.954  11.712  18.785  0.00  0.00    +0.000 N 
ATOM      4  C   UNL     1      -3.277  12.530  19.787  0.00  0.00    +0.000 C 
ATOM      5  C   UNL     1      -1.890  12.009  20.123  0.00  0.00    +0.000 C 
ATOM      6  C   UNL     1      -1.025  11.828  18.870  0.00  0.00    +0.000 C 
ATOM      7  C   UNL     1      -1.773  10.884  17.912  0.00  0.00    +0.000 C 
ATOM      8  C   UNL     1      -3.190  11.352  17.592  0.00  0.00    +0.000 C 
ATOM      9  C   UNL     1      -0.668  13.165  18.188  0.00  0.00    +0.000 C 
ATOM     10  N   UNL     1       0.079  14.046  19.089  0.00  0.00    +0.000 N 
ATOM     11  C   UNL     1       1.221  13.481  19.682  0.00  0.00    +0.000 C 
ATOM     12  O   UNL     1       2.206  14.101  20.072  0.00  0.00    +0.000 OA
ATOM     13  C   UNL     1       1.089  11.969  19.976  0.00  0.00    +0.000 C 
ATOM     14  O   UNL     1       0.215  11.172  19.193  0.00  0.00    +0.000 OA
ENDROOT
BRANCH   2  15
ATOM     15  C   UNL     1      -6.214  12.241  19.752  0.00  0.00    +0.000 A 
ATOM     16  C   UNL     1      -6.778  13.472  19.429  0.00  0.00    +0.000 A 
ATOM     17  C   UNL     1      -7.634  14.069  20.354  0.00  0.00    +0.000 A 
ATOM     18  C   UNL     1      -7.893  13.427  21.561  0.00  0.00    +0.000 A 
ATOM     19  C   UNL     1      -7.265  12.220  21.812  0.00  0.00    +0.000 A 
ATOM     20  N   UNL     1      -6.422  11.620  20.943  0.00  0.00    +0.000 NA
ENDBRANCH   2  15
BRANCH  10  21
ATOM     21  C   UNL     1      -0.325  15.405  19.335  0.00  0.00    +0.000 A 
ATOM     22  C   UNL     1      -1.203  15.777  20.347  0.00  0.00    +0.000 A 
ATOM     23  N   UNL     1      -1.681  17.031  20.549  0.00  0.00    +0.000 NA
ATOM     24  C   UNL     1      -1.254  17.963  19.694  0.00  0.00    +0.000 A 
ATOM     25  N   UNL     1      -0.409  17.755  18.680  0.00  0.00    +0.000 NA
ATOM     26  C   UNL     1       0.035  16.482  18.533  0.00  0.00    +0.000 A 
ENDBRANCH  10  21
TORSDOF 2
ENDMDL
MODEL 6
REMARK VINA RESULT:      -6.1      4.388      5.902
REMARK  Name = 
REMARK  2 active torsions:
REMARK  status: ('A' for Active; 'I' for Inactive)
REMARK    1  A    between atoms: C_2  and  C_3
REMARK    2  A    between atoms: N_16  and  C_17
REMARK                            x       y       z     vdW  Elec       q    Type
REMARK                         _______ _______ _______ _____ _____    ______ ____
ROOT
ATOM      1  O   UNL     1      -1.182   9.854  18.891  0.00  0.00    +0.000 OA
ATOM      2  C   UNL     1      -1.505  11.043  18.950  0.00  0.00    +0.000 C 
ATOM      3  N   UNL     1      -0.665  12.024  19.511  0.00  0.00    +0.000 N 
ATOM      4  C   UNL     1      -1.044  13.429  19.632  0.00  0.00    +0.000 C 
ATOM      5  C   UNL     1      -0.420  14.098  20.844  0.00  0.00    +0.000 C 
ATOM      6  C   UNL     1       1.104  13.924  20.875  0.00  0.00    +0.000 C 
ATOM      7  C   UNL     1       1.408  12.416  20.835  0.00  0.00    +0.000 C 
ATOM      8  C   UNL     1       0.754  11.702  19.656  0.00  0.00    +0.000 C 
ATOM      9  C   UNL     1       1.819  14.679  19.735  0.00  0.00    +0.000 C 
ATOM     10  N   UNL     1       1.560  16.120  19.799  0.00  0.00    +0.000 N 
ATOM     11  C   UNL     1       1.833  16.731  21.035  0.00  0.00    +0.000 C 
ATOM     12  O   UNL     1       2.129  17.912  21.199  0.00  0.00    +0.000 OA
ATOM     13  C   UNL     1       1.566  15.820  22.255  0.00  0.00    +0.000 C 
ATOM     14  O   UNL     1       1.651  14.411  22.115  0.00  0.00    +0.000 OA
ENDROOT
BRANCH   2  15
ATOM     15  C   UNL     1      -2.852  11.437  18.418  0.00  0.00    +0.000 A 
ATOM     16  C   UNL     1      -3.125  11.270  17.063  0.00  0.00    +0.000 A 
ATOM     17  C   UNL     1      -4.407  11.576  16.606  0.00  0.00    +0.000 A 
ATOM     18  C   UNL     1      -5.363  12.037  17.507  0.00  0.00    +0.000 A 
ATOM     19  C   UNL     1      -4.995  12.201  18.830  0.00  0.00    +0.000 A 
ATOM     20  N   UNL     1      -3.760  11.926  19.303  0.00  0.00    +0.000 NA
ENDBRANCH   2  15
BRANCH  10  21
ATOM     21  C   UNL     1       1.075  16.858  18.663  0.00  0.00    +0.000 A 
ATOM     22  C   UNL     1       1.904  17.442  17.712  0.00  0.00    +0.000 A 
ATOM     23  N   UNL     1       1.488  18.225  16.684  0.00  0.00    +0.000 NA
ATOM     24  C   UNL     1       0.172  18.432  16.604  0.00  0.00    +0.000 A 
ATOM     25  N   UNL     1      -0.743  17.933  17.440  0.00  0.00    +0.000 NA
ATOM     26  C   UNL     1      -0.265  17.157  18.444  0.00  0.00    +0.000 A 
ENDBRANCH  10  21
TORSDOF 2
ENDMDL
MODEL 7
REMARK VINA RESULT:      -6.1     10.005     13.230
REMARK  Name = 
REMARK  2 active torsions:
REMARK  status: ('A' for Active; 'I' for Inactive)
REMARK    1  A    between atoms: C_2  and  C_3
REMARK    2  A    between atoms: N_16  and  C_17
REMARK                            x       y       z     vdW  Elec       q    Type
REMARK                         _______ _______ _______ _____ _____    ______ ____
ROOT
ATOM      1  O   UNL     1       8.403  10.855  23.873  0.00  0.00    +0.000 OA
ATOM      2  C   UNL     1       8.250  12.032  23.534  0.00  0.00    +0.000 C 
ATOM      3  N   UNL     1       8.766  12.541  22.327  0.00  0.00    +0.000 N 
ATOM      4  C   UNL     1       8.637  13.939  21.927  0.00  0.00    +0.000 C 
ATOM      5  C   UNL     1       9.809  14.416  21.087  0.00  0.00    +0.000 C 
ATOM      6  C   UNL     1      10.056  13.506  19.876  0.00  0.00    +0.000 C 
ATOM      7  C   UNL     1      10.270  12.074  20.397  0.00  0.00    +0.000 C 
ATOM      8  C   UNL     1       9.133  11.581  21.286  0.00  0.00    +0.000 C 
ATOM      9  C   UNL     1       8.918  13.570  18.836  0.00  0.00    +0.000 C 
ATOM     10  N   UNL     1       8.743  14.926  18.312  0.00  0.00    +0.000 N 
ATOM     11  C   UNL     1       9.903  15.536  17.804  0.00  0.00    +0.000 C 
ATOM     12  O   UNL     1       9.932  16.413  16.945  0.00  0.00    +0.000 OA
ATOM     13  C   UNL     1      11.197  15.130  18.545  0.00  0.00    +0.000 C 
ATOM     14  O   UNL     1      11.272  13.873  19.198  0.00  0.00    +0.000 OA
ENDROOT
BRANCH   2  15
ATOM     15  C   UNL     1       7.503  12.944  24.463  0.00  0.00    +0.000 A 
ATOM     16  C   UNL     1       8.194  13.599  25.478  0.00  0.00    +0.000 A 
ATOM     17  C   UNL     1       7.492  14.497  26.282  0.00  0.00    +0.000 A 
ATOM     18  C   UNL     1       6.135  14.706  26.051  0.00  0.00    +0.000 A 
ATOM     19  C   UNL     1       5.522  13.989  25.040  0.00  0.00    +0.000 A 
ATOM     20  N   UNL     1       6.170  13.103  24.251  0.00  0.00    +0.000 NA
ENDBRANCH   2  15
BRANCH  10  21
ATOM     21  C   UNL     1       7.461  15.582  18.306  0.00  0.00    +0.000 A 
ATOM     22  C   UNL     1       7.256  16.876  18.770  0.00  0.00    +0.000 A 
ATOM     23  N   UNL     1       6.050  17.491  18.869  0.00  0.00    +0.000 NA
ATOM     24  C   UNL     1       4.995  16.773  18.481  0.00  0.00    +0.000 A 
ATOM     25  N   UNL     1       5.040  15.523  18.010  0.00  0.00    +0.000 NA
ATOM     26  C   UNL     1       6.273  14.965  17.932  0.00  0.00    +0.000 A 
ENDBRANCH  10  21
TORSDOF 2
ENDMDL
MODEL 8
REMARK VINA RESULT:      -6.1      3.275      6.235
REMARK  Name = 
REMARK  2 active torsions:
REMARK  status: ('A' for Active; 'I' for Inactive)
REMARK    1  A    between atoms: C_2  and  C_3
REMARK    2  A    between atoms: N_16  and  C_17
REMARK                            x       y       z     vdW  Elec       q    Type
REMARK                         _______ _______ _______ _____ _____    ______ ____
ROOT
ATOM      1  O   UNL     1       0.898  13.420  21.345  0.00  0.00    +0.000 OA
ATOM      2  C   UNL     1      -0.165  12.901  21.696  0.00  0.00    +0.000 C 
ATOM      3  N   UNL     1      -1.322  13.660  21.960  0.00  0.00    +0.000 N 
ATOM      4  C   UNL     1      -2.577  13.074  22.419  0.00  0.00    +0.000 C 
ATOM      5  C   UNL     1      -3.366  14.013  23.316  0.00  0.00    +0.000 C 
ATOM      6  C   UNL     1      -3.593  15.380  22.657  0.00  0.00    +0.000 C 
ATOM      7  C   UNL     1      -2.216  15.961  22.289  0.00  0.00    +0.000 C 
ATOM      8  C   UNL     1      -1.377  15.022  21.429  0.00  0.00    +0.000 C 
ATOM      9  C   UNL     1      -4.527  15.308  21.431  0.00  0.00    +0.000 C 
ATOM     10  N   UNL     1      -5.849  14.791  21.792  0.00  0.00    +0.000 N 
ATOM     11  C   UNL     1      -6.490  15.450  22.855  0.00  0.00    +0.000 C 
ATOM     12  O   UNL     1      -7.704  15.516  23.029  0.00  0.00    +0.000 OA
ATOM     13  C   UNL     1      -5.521  15.980  23.936  0.00  0.00    +0.000 C 
ATOM     14  O   UNL     1      -4.185  16.305  23.587  0.00  0.00    +0.000 OA
ENDROOT
BRANCH   2  15
ATOM     15  C   UNL     1      -0.205  11.410  21.860  0.00  0.00    +0.000 A 
ATOM     16  C   UNL     1      -0.198  10.599  20.729  0.00  0.00    +0.000 A 
ATOM     17  C   UNL     1      -0.162   9.216  20.909  0.00  0.00    +0.000 A 
ATOM     18  C   UNL     1      -0.138   8.693  22.199  0.00  0.00    +0.000 A 
ATOM     19  C   UNL     1      -0.178   9.573  23.266  0.00  0.00    +0.000 A 
ATOM     20  N   UNL     1      -0.225  10.916  23.126  0.00  0.00    +0.000 NA
ENDBRANCH   2  15
BRANCH  10  21
ATOM     21  C   UNL     1      -6.456  13.690  21.090  0.00  0.00    +0.000 A 
ATOM     22  C   UNL     1      -6.404  12.374  21.531  0.00  0.00    +0.000 A 
ATOM     23  N   UNL     1      -6.879  11.299  20.850  0.00  0.00    +0.000 NA
ATOM     24  C   UNL     1      -7.437  11.559  19.667  0.00  0.00    +0.000 A 
ATOM     25  N   UNL     1      -7.562  12.771  19.118  0.00  0.00    +0.000 NA
ATOM     26  C   UNL     1      -7.071  13.803  19.849  0.00  0.00    +0.000 A 
ENDBRANCH  10  21
TORSDOF 2
ENDMDL
MODEL 9
REMARK VINA RESULT:      -6.0      2.782      3.867
REMARK  Name = 
REMARK  2 active torsions:
REMARK  status: ('A' for Active; 'I' for Inactive)
REMARK    1  A    between atoms: C_2  and  C_3
REMARK    2  A    between atoms: N_16  and  C_17
REMARK                            x       y       z     vdW  Elec       q    Type
REMARK                         _______ _______ _______ _____ _____    ______ ____
ROOT
ATOM      1  O   UNL     1      -7.000  12.513  23.098  0.00  0.00    +0.000 OA
ATOM      2  C   UNL     1      -6.192  12.651  22.176  0.00  0.00    +0.000 C 
ATOM      3  N   UNL     1      -4.850  13.017  22.398  0.00  0.00    +0.000 N 
ATOM      4  C   UNL     1      -3.889  13.229  21.321  0.00  0.00    +0.000 C 
ATOM      5  C   UNL     1      -2.844  14.275  21.670  0.00  0.00    +0.000 C 
ATOM      6  C   UNL     1      -2.140  13.963  22.997  0.00  0.00    +0.000 C 
ATOM      7  C   UNL     1      -3.219  13.846  24.088  0.00  0.00    +0.000 C 
ATOM      8  C   UNL     1      -4.312  12.838  23.746  0.00  0.00    +0.000 C 
ATOM      9  C   UNL     1      -1.260  12.697  22.927  0.00  0.00    +0.000 C 
ATOM     10  N   UNL     1      -0.210  12.827  21.915  0.00  0.00    +0.000 N 
ATOM     11  C   UNL     1       0.595  13.975  22.018  0.00  0.00    +0.000 C 
ATOM     12  O   UNL     1       1.751  14.077  21.618  0.00  0.00    +0.000 OA
ATOM     13  C   UNL     1      -0.155  15.217  22.551  0.00  0.00    +0.000 C 
ATOM     14  O   UNL     1      -1.285  15.052  23.392  0.00  0.00    +0.000 OA
ENDROOT
BRANCH   2  15
ATOM     15  C   UNL     1      -6.678  12.437  20.772  0.00  0.00    +0.000 A 
ATOM     16  C   UNL     1      -7.351  13.466  20.119  0.00  0.00    +0.000 A 
ATOM     17  C   UNL     1      -7.729  13.268  18.791  0.00  0.00    +0.000 A 
ATOM     18  C   UNL     1      -7.428  12.062  18.165  0.00  0.00    +0.000 A 
ATOM     19  C   UNL     1      -6.783  11.083  18.900  0.00  0.00    +0.000 A 
ATOM     20  N   UNL     1      -6.414  11.237  20.190  0.00  0.00    +0.000 NA
ENDBRANCH   2  15
BRANCH  10  21
ATOM     21  C   UNL     1      -0.008  11.834  20.892  0.00  0.00    +0.000 A 
ATOM     22  C   UNL     1       0.681  10.645  21.099  0.00  0.00    +0.000 A 
ATOM     23  N   UNL     1       0.974   9.731  20.139  0.00  0.00    +0.000 NA
ATOM     24  C   UNL     1       0.552  10.024  18.907  0.00  0.00    +0.000 A 
ATOM     25  N   UNL     1      -0.124  11.124  18.561  0.00  0.00    +0.000 NA
ATOM     26  C   UNL     1      -0.388  11.995  19.565  0.00  0.00    +0.000 A 
ENDBRANCH  10  21
TORSDOF 2
ENDMDL
