MODEL 1
REMARK VINA RESULT:      -9.6      0.000      0.000
REMARK  Name = 
REMARK  6 active torsions:
REMARK  status: ('A' for Active; 'I' for Inactive)
REMARK    1  A    between atoms: C_1  and  N_2
REMARK    2  A    between atoms: N_2  and  C_25
REMARK    3  A    between atoms: C_3  and  O_5
REMARK    4  A    between atoms: O_5  and  C_6
REMARK    5  A    between atoms: C_10  and  C_11
REMARK    6  A    between atoms: C_13  and  C_14
REMARK                            x       y       z     vdW  Elec       q    Type
REMARK                         _______ _______ _______ _____ _____    ______ ____
ROOT
ATOM      1  C   UNL     1       2.117   5.800  20.129  0.00  0.00    +0.000 A 
ATOM      2  C   UNL     1       1.256   4.709  20.124  0.00  0.00    +0.000 A 
ATOM      3  C   UNL     1       1.648   3.534  19.481  0.00  0.00    +0.000 A 
ATOM      4  C   UNL     1       2.890   3.463  18.833  0.00  0.00    +0.000 A 
ATOM      5  C   UNL     1       3.771   4.558  18.831  0.00  0.00    +0.000 A 
ATOM      6  C   UNL     1       3.375   5.708  19.534  0.00  0.00    +0.000 A 
ENDROOT
BRANCH   5   7
ATOM      7  C   UNL     1       5.064   4.526  18.121  0.00  0.00    +0.000 A 
ATOM      8  C   UNL     1       5.131   4.397  16.745  0.00  0.00    +0.000 A 
ATOM      9  C   UNL     1       6.377   4.457  16.156  0.00  0.00    +0.000 A 
ATOM     10  N   UNL     1       7.489   4.619  16.902  0.00  0.00    +0.000 NA
ATOM     11  C   UNL     1       7.334   4.727  18.224  0.00  0.00    +0.000 A 
ATOM     12  N   UNL     1       8.471   4.893  18.989  0.00  0.00    +0.000 N 
ATOM     13  N   UNL     1       6.170   4.664  18.873  0.00  0.00    +0.000 NA
ATOM     14  H   UNL     1       9.264   4.505  18.502  0.00  0.00    +0.000 HD
ATOM     15  H   UNL     1       8.294   4.573  19.931  0.00  0.00    +0.000 HD
BRANCH   9  16
ATOM     16  C   UNL     1       6.553   4.413  14.686  0.00  0.00    +0.000 A 
ATOM     17  C   UNL     1       5.774   3.552  13.890  0.00  0.00    +0.000 A 
ATOM     18  C   UNL     1       5.985   3.440  12.512  0.00  0.00    +0.000 A 
ATOM     19  C   UNL     1       6.980   4.192  11.894  0.00  0.00    +0.000 A 
ATOM     20  C   UNL     1       7.749   5.070  12.648  0.00  0.00    +0.000 A 
ATOM     21  C   UNL     1       7.532   5.184  14.025  0.00  0.00    +0.000 A 
ENDBRANCH   9  16
ENDBRANCH   5   7
BRANCH   1  22
ATOM     22  O   UNL     1       1.699   6.970  20.796  0.00  0.00    +0.000 OA
BRANCH  22  25
ATOM     23  C   UNL     1       0.472   8.990  22.139  0.00  0.00    +0.000 C 
ATOM     24  N   UNL     1       0.757   9.121  20.713  0.00  0.00    +0.000 N 
ATOM     25  C   UNL     1       1.520   8.146  20.046  0.00  0.00    +0.000 C 
ATOM     26  O   UNL     1       2.005   8.286  18.925  0.00  0.00    +0.000 OA
BRANCH  24  27
ATOM     27  C   UNL     1       0.295  10.305  20.029  0.00  0.00    +0.000 A 
ATOM     28  C   UNL     1      -0.894  10.297  19.279  0.00  0.00    +0.000 A 
ATOM     29  C   UNL     1      -1.338  11.427  18.585  0.00  0.00    +0.000 A 
ATOM     30  C   UNL     1      -0.606  12.604  18.639  0.00  0.00    +0.000 A 
ATOM     31  C   UNL     1       0.555  12.653  19.402  0.00  0.00    +0.000 A 
ATOM     32  C   UNL     1       0.997  11.520  20.100  0.00  0.00    +0.000 A 
ENDBRANCH  24  27
ENDBRANCH  22  25
ENDBRANCH   1  22
TORSDOF 5
ENDMDL
MODEL 2
REMARK VINA RESULT:      -8.9      0.929      1.545
REMARK  Name = 
REMARK  6 active torsions:
REMARK  status: ('A' for Active; 'I' for Inactive)
REMARK    1  A    between atoms: C_1  and  N_2
REMARK    2  A    between atoms: N_2  and  C_25
REMARK    3  A    between atoms: C_3  and  O_5
REMARK    4  A    between atoms: O_5  and  C_6
REMARK    5  A    between atoms: C_10  and  C_11
REMARK    6  A    between atoms: C_13  and  C_14
REMARK                            x       y       z     vdW  Elec       q    Type
REMARK                         _______ _______ _______ _____ _____    ______ ____
ROOT
ATOM      1  C   UNL     1       2.145   6.123  20.084  0.00  0.00    +0.000 A 
ATOM      2  C   UNL     1       1.501   4.892  20.121  0.00  0.00    +0.000 A 
ATOM      3  C   UNL     1       2.039   3.820  19.407  0.00  0.00    +0.000 A 
ATOM      4  C   UNL     1       3.208   3.990  18.651  0.00  0.00    +0.000 A 
ATOM      5  C   UNL     1       3.870   5.229  18.606  0.00  0.00    +0.000 A 
ATOM      6  C   UNL     1       3.338   6.274  19.379  0.00  0.00    +0.000 A 
ENDROOT
BRANCH   5   7
ATOM      7  C   UNL     1       5.076   5.448  17.784  0.00  0.00    +0.000 A 
ATOM      8  C   UNL     1       5.217   4.865  16.537  0.00  0.00    +0.000 A 
ATOM      9  C   UNL     1       6.339   5.187  15.803  0.00  0.00    +0.000 A 
ATOM     10  N   UNL     1       7.272   6.028  16.295  0.00  0.00    +0.000 NA
ATOM     11  C   UNL     1       7.060   6.539  17.512  0.00  0.00    +0.000 A 
ATOM     12  N   UNL     1       8.014   7.399  18.017  0.00  0.00    +0.000 N 
ATOM     13  N   UNL     1       6.013   6.268  18.292  0.00  0.00    +0.000 NA
ATOM     14  H   UNL     1       8.906   7.202  17.590  0.00  0.00    +0.000 HD
ATOM     15  H   UNL     1       7.965   7.401  19.027  0.00  0.00    +0.000 HD
BRANCH   9  16
ATOM     16  C   UNL     1       6.546   4.686  14.424  0.00  0.00    +0.000 A 
ATOM     17  C   UNL     1       7.581   5.196  13.618  0.00  0.00    +0.000 A 
ATOM     18  C   UNL     1       7.737   4.793  12.288  0.00  0.00    +0.000 A 
ATOM     19  C   UNL     1       6.863   3.863  11.732  0.00  0.00    +0.000 A 
ATOM     20  C   UNL     1       5.846   3.322  12.510  0.00  0.00    +0.000 A 
ATOM     21  C   UNL     1       5.696   3.723  13.842  0.00  0.00    +0.000 A 
ENDBRANCH   9  16
ENDBRANCH   5   7
BRANCH   1  22
ATOM     22  O   UNL     1       1.584   7.185  20.825  0.00  0.00    +0.000 OA
BRANCH  22  25
ATOM     23  C   UNL     1       0.850   9.215  22.476  0.00  0.00    +0.000 C 
ATOM     24  N   UNL     1       0.843   9.405  21.028  0.00  0.00    +0.000 N 
ATOM     25  C   UNL     1       1.360   8.413  20.176  0.00  0.00    +0.000 C 
ATOM     26  O   UNL     1       1.612   8.578  18.984  0.00  0.00    +0.000 OA
BRANCH  24  27
ATOM     27  C   UNL     1       0.358  10.660  20.505  0.00  0.00    +0.000 A 
ATOM     28  C   UNL     1       1.092  11.848  20.659  0.00  0.00    +0.000 A 
ATOM     29  C   UNL     1       0.620  13.076  20.185  0.00  0.00    +0.000 A 
ATOM     30  C   UNL     1      -0.599  13.142  19.528  0.00  0.00    +0.000 A 
ATOM     31  C   UNL     1      -1.332  11.977  19.328  0.00  0.00    +0.000 A 
ATOM     32  C   UNL     1      -0.855  10.746  19.801  0.00  0.00    +0.000 A 
ENDBRANCH  24  27
ENDBRANCH  22  25
ENDBRANCH   1  22
TORSDOF 5
ENDMDL
MODEL 3
REMARK VINA RESULT:      -8.7      2.464      4.702
REMARK  Name = 
REMARK  6 active torsions:
REMARK  status: ('A' for Active; 'I' for Inactive)
REMARK    1  A    between atoms: C_1  and  N_2
REMARK    2  A    between atoms: N_2  and  C_25
REMARK    3  A    between atoms: C_3  and  O_5
REMARK    4  A    between atoms: O_5  and  C_6
REMARK    5  A    between atoms: C_10  and  C_11
REMARK    6  A    between atoms: C_13  and  C_14
REMARK                            x       y       z     vdW  Elec       q    Type
REMARK                         _______ _______ _______ _____ _____    ______ ____
ROOT
ATOM      1  C   UNL     1       0.777   9.813  19.511  0.00  0.00    +0.000 A 
ATOM      2  C   UNL     1       0.581  10.249  20.816  0.00  0.00    +0.000 A 
ATOM      3  C   UNL     1       0.986   9.434  21.874  0.00  0.00    +0.000 A 
ATOM      4  C   UNL     1       1.568   8.184  21.620  0.00  0.00    +0.000 A 
ATOM      5  C   UNL     1       1.774   7.731  20.306  0.00  0.00    +0.000 A 
ATOM      6  C   UNL     1       1.409   8.596  19.260  0.00  0.00    +0.000 A 
ENDROOT
BRANCH   5   7
ATOM      7  C   UNL     1       2.344   6.403  20.010  0.00  0.00    +0.000 A 
ATOM      8  C   UNL     1       3.294   6.227  19.020  0.00  0.00    +0.000 A 
ATOM      9  C   UNL     1       3.831   4.966  18.865  0.00  0.00    +0.000 A 
ATOM     10  N   UNL     1       3.429   3.941  19.642  0.00  0.00    +0.000 NA
ATOM     11  C   UNL     1       2.501   4.197  20.569  0.00  0.00    +0.000 A 
ATOM     12  N   UNL     1       2.088   3.149  21.365  0.00  0.00    +0.000 N 
ATOM     13  N   UNL     1       1.920   5.380  20.774  0.00  0.00    +0.000 NA
ATOM     14  H   UNL     1       2.233   2.277  20.878  0.00  0.00    +0.000 HD
ATOM     15  H   UNL     1       1.162   3.340  21.723  0.00  0.00    +0.000 HD
BRANCH   9  16
ATOM     16  C   UNL     1       4.914   4.689  17.892  0.00  0.00    +0.000 A 
ATOM     17  C   UNL     1       6.265   4.857  18.248  0.00  0.00    +0.000 A 
ATOM     18  C   UNL     1       7.294   4.679  17.317  0.00  0.00    +0.000 A 
ATOM     19  C   UNL     1       6.995   4.323  16.005  0.00  0.00    +0.000 A 
ATOM     20  C   UNL     1       5.672   4.126  15.629  0.00  0.00    +0.000 A 
ATOM     21  C   UNL     1       4.646   4.299  16.564  0.00  0.00    +0.000 A 
ENDBRANCH   9  16
ENDBRANCH   5   7
BRANCH   1  22
ATOM     22  O   UNL     1       0.368  10.664  18.462  0.00  0.00    +0.000 OA
BRANCH  22  25
ATOM     23  C   UNL     1      -1.029  12.944  18.950  0.00  0.00    +0.000 C 
ATOM     24  N   UNL     1      -1.711  11.757  18.443  0.00  0.00    +0.000 N 
ATOM     25  C   UNL     1      -0.976  10.625  18.049  0.00  0.00    +0.000 C 
ATOM     26  O   UNL     1      -1.433   9.687  17.399  0.00  0.00    +0.000 OA
BRANCH  24  27
ATOM     27  C   UNL     1      -3.147  11.805  18.293  0.00  0.00    +0.000 A 
ATOM     28  C   UNL     1      -3.763  11.501  17.067  0.00  0.00    +0.000 A 
ATOM     29  C   UNL     1      -5.149  11.573  16.898  0.00  0.00    +0.000 A 
ATOM     30  C   UNL     1      -5.958  11.938  17.964  0.00  0.00    +0.000 A 
ATOM     31  C   UNL     1      -5.380  12.209  19.199  0.00  0.00    +0.000 A 
ATOM     32  C   UNL     1      -3.990  12.133  19.367  0.00  0.00    +0.000 A 
ENDBRANCH  24  27
ENDBRANCH  22  25
ENDBRANCH   1  22
TORSDOF 5
ENDMDL
MODEL 4
REMARK VINA RESULT:      -8.7      1.148      1.719
REMARK  Name = 
REMARK  6 active torsions:
REMARK  status: ('A' for Active; 'I' for Inactive)
REMARK    1  A    between atoms: C_1  and  N_2
REMARK    2  A    between atoms: N_2  and  C_25
REMARK    3  A    between atoms: C_3  and  O_5
REMARK    4  A    between atoms: O_5  and  C_6
REMARK    5  A    between atoms: C_10  and  C_11
REMARK    6  A    between atoms: C_13  and  C_14
REMARK                            x       y       z     vdW  Elec       q    Type
REMARK                         _______ _______ _______ _____ _____    ______ ____
ROOT
ATOM      1  C   UNL     1       2.325   7.237  19.584  0.00  0.00    +0.000 A 
ATOM      2  C   UNL     1       1.434   6.269  20.034  0.00  0.00    +0.000 A 
ATOM      3  C   UNL     1       1.757   4.920  19.876  0.00  0.00    +0.000 A 
ATOM      4  C   UNL     1       2.958   4.549  19.254  0.00  0.00    +0.000 A 
ATOM      5  C   UNL     1       3.868   5.517  18.795  0.00  0.00    +0.000 A 
ATOM      6  C   UNL     1       3.544   6.866  19.019  0.00  0.00    +0.000 A 
ENDROOT
BRANCH   5   7
ATOM      7  C   UNL     1       5.117   5.155  18.099  0.00  0.00    +0.000 A 
ATOM      8  C   UNL     1       5.151   4.953  16.730  0.00  0.00    +0.000 A 
ATOM      9  C   UNL     1       6.376   4.697  16.151  0.00  0.00    +0.000 A 
ATOM     10  N   UNL     1       7.497   4.631  16.899  0.00  0.00    +0.000 NA
ATOM     11  C   UNL     1       7.372   4.830  18.214  0.00  0.00    +0.000 A 
ATOM     12  N   UNL     1       8.517   4.763  18.981  0.00  0.00    +0.000 N 
ATOM     13  N   UNL     1       6.227   5.067  18.855  0.00  0.00    +0.000 NA
ATOM     14  H   UNL     1       9.199   4.180  18.519  0.00  0.00    +0.000 HD
ATOM     15  H   UNL     1       8.272   4.535  19.934  0.00  0.00    +0.000 HD
BRANCH   9  16
ATOM     16  C   UNL     1       6.536   4.549  14.686  0.00  0.00    +0.000 A 
ATOM     17  C   UNL     1       5.732   3.651  13.959  0.00  0.00    +0.000 A 
ATOM     18  C   UNL     1       5.926   3.440  12.590  0.00  0.00    +0.000 A 
ATOM     19  C   UNL     1       6.928   4.128  11.912  0.00  0.00    +0.000 A 
ATOM     20  C   UNL     1       7.723   5.039  12.597  0.00  0.00    +0.000 A 
ATOM     21  C   UNL     1       7.522   5.253  13.964  0.00  0.00    +0.000 A 
ENDBRANCH   9  16
ENDBRANCH   5   7
BRANCH   1  22
ATOM     22  O   UNL     1       1.976   8.592  19.768  0.00  0.00    +0.000 OA
BRANCH  22  25
ATOM     23  C   UNL     1      -0.143   9.898  20.858  0.00  0.00    +0.000 C 
ATOM     24  N   UNL     1      -0.040   9.742  19.410  0.00  0.00    +0.000 N 
ATOM     25  C   UNL     1       1.121   9.200  18.831  0.00  0.00    +0.000 C 
ATOM     26  O   UNL     1       1.392   9.249  17.633  0.00  0.00    +0.000 OA
BRANCH  24  27
ATOM     27  C   UNL     1      -1.129  10.221  18.592  0.00  0.00    +0.000 A 
ATOM     28  C   UNL     1      -1.970  11.258  19.030  0.00  0.00    +0.000 A 
ATOM     29  C   UNL     1      -3.047  11.711  18.262  0.00  0.00    +0.000 A 
ATOM     30  C   UNL     1      -3.301  11.144  17.022  0.00  0.00    +0.000 A 
ATOM     31  C   UNL     1      -2.464  10.140  16.545  0.00  0.00    +0.000 A 
ATOM     32  C   UNL     1      -1.382   9.690  17.316  0.00  0.00    +0.000 A 
ENDBRANCH  24  27
ENDBRANCH  22  25
ENDBRANCH   1  22
TORSDOF 5
ENDMDL
MODEL 5
REMARK VINA RESULT:      -8.7      0.915      1.261
REMARK  Name = 
REMARK  6 active torsions:
REMARK  status: ('A' for Active; 'I' for Inactive)
REMARK    1  A    between atoms: C_1  and  N_2
REMARK    2  A    between atoms: N_2  and  C_25
REMARK    3  A    between atoms: C_3  and  O_5
REMARK    4  A    between atoms: O_5  and  C_6
REMARK    5  A    between atoms: C_10  and  C_11
REMARK    6  A    between atoms: C_13  and  C_14
REMARK                            x       y       z     vdW  Elec       q    Type
REMARK                         _______ _______ _______ _____ _____    ______ ____
ROOT
ATOM      1  C   UNL     1       2.283   5.749  20.293  0.00  0.00    +0.000 A 
ATOM      2  C   UNL     1       2.023   4.439  20.679  0.00  0.00    +0.000 A 
ATOM      3  C   UNL     1       2.867   3.419  20.237  0.00  0.00    +0.000 A 
ATOM      4  C   UNL     1       3.953   3.713  19.400  0.00  0.00    +0.000 A 
ATOM      5  C   UNL     1       4.228   5.033  19.002  0.00  0.00    +0.000 A 
ATOM      6  C   UNL     1       3.396   6.046  19.508  0.00  0.00    +0.000 A 
ENDROOT
BRANCH   5   7
ATOM      7  C   UNL     1       5.337   5.365  18.088  0.00  0.00    +0.000 A 
ATOM      8  C   UNL     1       5.397   4.848  16.806  0.00  0.00    +0.000 A 
ATOM      9  C   UNL     1       6.425   5.274  15.991  0.00  0.00    +0.000 A 
ATOM     10  N   UNL     1       7.347   6.151  16.439  0.00  0.00    +0.000 NA
ATOM     11  C   UNL     1       7.218   6.593  17.693  0.00  0.00    +0.000 A 
ATOM     12  N   UNL     1       8.160   7.491  18.154  0.00  0.00    +0.000 N 
ATOM     13  N   UNL     1       6.265   6.222  18.550  0.00  0.00    +0.000 NA
ATOM     14  H   UNL     1       9.019   7.371  17.639  0.00  0.00    +0.000 HD
ATOM     15  H   UNL     1       8.205   7.445  19.162  0.00  0.00    +0.000 HD
BRANCH   9  16
ATOM     16  C   UNL     1       6.534   4.848  14.577  0.00  0.00    +0.000 A 
ATOM     17  C   UNL     1       5.635   3.911  14.033  0.00  0.00    +0.000 A 
ATOM     18  C   UNL     1       5.775   3.437  12.725  0.00  0.00    +0.000 A 
ATOM     19  C   UNL     1       6.817   3.895  11.924  0.00  0.00    +0.000 A 
ATOM     20  C   UNL     1       7.707   4.838  12.423  0.00  0.00    +0.000 A 
ATOM     21  C   UNL     1       7.561   5.314  13.730  0.00  0.00    +0.000 A 
ENDBRANCH   9  16
ENDBRANCH   5   7
BRANCH   1  22
ATOM     22  O   UNL     1       1.419   6.760  20.764  0.00  0.00    +0.000 OA
BRANCH  22  25
ATOM     23  C   UNL     1      -0.097   8.667  21.970  0.00  0.00    +0.000 C 
ATOM     24  N   UNL     1       0.525   8.931  20.676  0.00  0.00    +0.000 N 
ATOM     25  C   UNL     1       1.428   8.009  20.117  0.00  0.00    +0.000 C 
ATOM     26  O   UNL     1       2.170   8.247  19.166  0.00  0.00    +0.000 OA
BRANCH  24  27
ATOM     27  C   UNL     1       0.243  10.188  20.025  0.00  0.00    +0.000 A 
ATOM     28  C   UNL     1       0.907  11.369  20.399  0.00  0.00    +0.000 A 
ATOM     29  C   UNL     1       0.621  12.599  19.799  0.00  0.00    +0.000 A 
ATOM     30  C   UNL     1      -0.330  12.675  18.793  0.00  0.00    +0.000 A 
ATOM     31  C   UNL     1      -0.978  11.517  18.376  0.00  0.00    +0.000 A 
ATOM     32  C   UNL     1      -0.688  10.284  18.976  0.00  0.00    +0.000 A 
ENDBRANCH  24  27
ENDBRANCH  22  25
ENDBRANCH   1  22
TORSDOF 5
ENDMDL
MODEL 6
REMARK VINA RESULT:      -8.7      0.969      1.345
REMARK  Name = 
REMARK  6 active torsions:
REMARK  status: ('A' for Active; 'I' for Inactive)
REMARK    1  A    between atoms: C_1  and  N_2
REMARK    2  A    between atoms: N_2  and  C_25
REMARK    3  A    between atoms: C_3  and  O_5
REMARK    4  A    between atoms: O_5  and  C_6
REMARK    5  A    between atoms: C_10  and  C_11
REMARK    6  A    between atoms: C_13  and  C_14
REMARK                            x       y       z     vdW  Elec       q    Type
REMARK                         _______ _______ _______ _____ _____    ______ ____
ROOT
ATOM      1  C   UNL     1       2.350   6.685  19.975  0.00  0.00    +0.000 A 
ATOM      2  C   UNL     1       1.347   5.726  20.049  0.00  0.00    +0.000 A 
ATOM      3  C   UNL     1       1.564   4.468  19.484  0.00  0.00    +0.000 A 
ATOM      4  C   UNL     1       2.774   4.184  18.835  0.00  0.00    +0.000 A 
ATOM      5  C   UNL     1       3.797   5.143  18.754  0.00  0.00    +0.000 A 
ATOM      6  C   UNL     1       3.574   6.381  19.381  0.00  0.00    +0.000 A 
ENDROOT
BRANCH   5   7
ATOM      7  C   UNL     1       5.063   4.886  18.041  0.00  0.00    +0.000 A 
ATOM      8  C   UNL     1       5.099   4.721  16.667  0.00  0.00    +0.000 A 
ATOM      9  C   UNL     1       6.334   4.565  16.073  0.00  0.00    +0.000 A 
ATOM     10  N   UNL     1       7.462   4.557  16.811  0.00  0.00    +0.000 NA
ATOM     11  C   UNL     1       7.336   4.714  18.132  0.00  0.00    +0.000 A 
ATOM     12  N   UNL     1       8.489   4.707  18.889  0.00  0.00    +0.000 N 
ATOM     13  N   UNL     1       6.182   4.856  18.786  0.00  0.00    +0.000 NA
ATOM     14  H   UNL     1       9.205   4.184  18.408  0.00  0.00    +0.000 HD
ATOM     15  H   UNL     1       8.269   4.439  19.838  0.00  0.00    +0.000 HD
BRANCH   9  16
ATOM     16  C   UNL     1       6.490   4.465  14.603  0.00  0.00    +0.000 A 
ATOM     17  C   UNL     1       5.657   3.623  13.844  0.00  0.00    +0.000 A 
ATOM     18  C   UNL     1       5.846   3.455  12.468  0.00  0.00    +0.000 A 
ATOM     19  C   UNL     1       6.873   4.131  11.816  0.00  0.00    +0.000 A 
ATOM     20  C   UNL     1       7.697   4.989  12.534  0.00  0.00    +0.000 A 
ATOM     21  C   UNL     1       7.502   5.159  13.909  0.00  0.00    +0.000 A 
ENDBRANCH   9  16
ENDBRANCH   5   7
BRANCH   1  22
ATOM     22  O   UNL     1       2.106   7.943  20.565  0.00  0.00    +0.000 OA
BRANCH  22  25
ATOM     23  C   UNL     1       1.735   9.457  18.338  0.00  0.00    +0.000 C 
ATOM     24  N   UNL     1       0.702   9.397  19.368  0.00  0.00    +0.000 N 
ATOM     25  C   UNL     1       0.822   8.504  20.447  0.00  0.00    +0.000 C 
ATOM     26  O   UNL     1      -0.090   8.216  21.220  0.00  0.00    +0.000 OA
BRANCH  24  27
ATOM     27  C   UNL     1      -0.471  10.224  19.209  0.00  0.00    +0.000 A 
ATOM     28  C   UNL     1      -1.386  10.001  18.167  0.00  0.00    +0.000 A 
ATOM     29  C   UNL     1      -2.509  10.812  17.982  0.00  0.00    +0.000 A 
ATOM     30  C   UNL     1      -2.753  11.865  18.852  0.00  0.00    +0.000 A 
ATOM     31  C   UNL     1      -1.885  12.089  19.914  0.00  0.00    +0.000 A 
ATOM     32  C   UNL     1      -0.761  11.271  20.100  0.00  0.00    +0.000 A 
ENDBRANCH  24  27
ENDBRANCH  22  25
ENDBRANCH   1  22
TORSDOF 5
ENDMDL
MODEL 7
REMARK VINA RESULT:      -8.6      1.632      2.311
REMARK  Name = 
REMARK  6 active torsions:
REMARK  status: ('A' for Active; 'I' for Inactive)
REMARK    1  A    between atoms: C_1  and  N_2
REMARK    2  A    between atoms: N_2  and  C_25
REMARK    3  A    between atoms: C_3  and  O_5
REMARK    4  A    between atoms: O_5  and  C_6
REMARK    5  A    between atoms: C_10  and  C_11
REMARK    6  A    between atoms: C_13  and  C_14
REMARK                            x       y       z     vdW  Elec       q    Type
REMARK                         _______ _______ _______ _____ _____    ______ ____
ROOT
ATOM      1  C   UNL     1       2.316   8.309  18.100  0.00  0.00    +0.000 A 
ATOM      2  C   UNL     1       1.698   7.852  19.259  0.00  0.00    +0.000 A 
ATOM      3  C   UNL     1       2.214   6.729  19.908  0.00  0.00    +0.000 A 
ATOM      4  C   UNL     1       3.332   6.062  19.387  0.00  0.00    +0.000 A 
ATOM      5  C   UNL     1       3.967   6.513  18.217  0.00  0.00    +0.000 A 
ATOM      6  C   UNL     1       3.462   7.679  17.616  0.00  0.00    +0.000 A 
ENDROOT
BRANCH   5   7
ATOM      7  C   UNL     1       5.117   5.806  17.623  0.00  0.00    +0.000 A 
ATOM      8  C   UNL     1       5.161   5.503  16.273  0.00  0.00    +0.000 A 
ATOM      9  C   UNL     1       6.309   4.912  15.787  0.00  0.00    +0.000 A 
ATOM     10  N   UNL     1       7.342   4.626  16.606  0.00  0.00    +0.000 NA
ATOM     11  C   UNL     1       7.212   4.945  17.896  0.00  0.00    +0.000 A 
ATOM     12  N   UNL     1       8.268   4.654  18.736  0.00  0.00    +0.000 N 
ATOM     13  N   UNL     1       6.134   5.503  18.450  0.00  0.00    +0.000 NA
ATOM     14  H   UNL     1       8.802   3.890  18.352  0.00  0.00    +0.000 HD
ATOM     15  H   UNL     1       7.930   4.563  19.684  0.00  0.00    +0.000 HD
BRANCH   9  16
ATOM     16  C   UNL     1       6.493   4.623  14.346  0.00  0.00    +0.000 A 
ATOM     17  C   UNL     1       5.673   3.687  13.687  0.00  0.00    +0.000 A 
ATOM     18  C   UNL     1       5.888   3.343  12.348  0.00  0.00    +0.000 A 
ATOM     19  C   UNL     1       6.926   3.933  11.633  0.00  0.00    +0.000 A 
ATOM     20  C   UNL     1       7.737   4.878  12.249  0.00  0.00    +0.000 A 
ATOM     21  C   UNL     1       7.517   5.224  13.586  0.00  0.00    +0.000 A 
ENDBRANCH   9  16
ENDBRANCH   5   7
BRANCH   1  22
ATOM     22  O   UNL     1       1.780   9.453  17.472  0.00  0.00    +0.000 OA
BRANCH  22  25
ATOM     23  C   UNL     1       2.204  11.840  18.699  0.00  0.00    +0.000 C 
ATOM     24  N   UNL     1       0.895  11.199  18.770  0.00  0.00    +0.000 N 
ATOM     25  C   UNL     1       0.625  10.042  18.018  0.00  0.00    +0.000 C 
ATOM     26  O   UNL     1      -0.497   9.576  17.831  0.00  0.00    +0.000 OA
BRANCH  24  27
ATOM     27  C   UNL     1      -0.130  11.822  19.575  0.00  0.00    +0.000 A 
ATOM     28  C   UNL     1      -0.833  12.949  19.117  0.00  0.00    +0.000 A 
ATOM     29  C   UNL     1      -1.805  13.581  19.898  0.00  0.00    +0.000 A 
ATOM     30  C   UNL     1      -2.110  13.088  21.158  0.00  0.00    +0.000 A 
ATOM     31  C   UNL     1      -1.456  11.953  21.624  0.00  0.00    +0.000 A 
ATOM     32  C   UNL     1      -0.484  11.318  20.838  0.00  0.00    +0.000 A 
ENDBRANCH  24  27
ENDBRANCH  22  25
ENDBRANCH   1  22
TORSDOF 5
ENDMDL
MODEL 8
REMARK VINA RESULT:      -8.6      1.137      1.784
REMARK  Name = 
REMARK  6 active torsions:
REMARK  status: ('A' for Active; 'I' for Inactive)
REMARK    1  A    between atoms: C_1  and  N_2
REMARK    2  A    between atoms: N_2  and  C_25
REMARK    3  A    between atoms: C_3  and  O_5
REMARK    4  A    between atoms: O_5  and  C_6
REMARK    5  A    between atoms: C_10  and  C_11
REMARK    6  A    between atoms: C_13  and  C_14
REMARK                            x       y       z     vdW  Elec       q    Type
REMARK                         _______ _______ _______ _____ _____    ______ ____
ROOT
ATOM      1  C   UNL     1       2.377   7.103  19.343  0.00  0.00    +0.000 A 
ATOM      2  C   UNL     1       1.411   6.147  19.634  0.00  0.00    +0.000 A 
ATOM      3  C   UNL     1       1.673   4.805  19.354  0.00  0.00    +0.000 A 
ATOM      4  C   UNL     1       2.892   4.430  18.771  0.00  0.00    +0.000 A 
ATOM      5  C   UNL     1       3.879   5.385  18.472  0.00  0.00    +0.000 A 
ATOM      6  C   UNL     1       3.611   6.721  18.817  0.00  0.00    +0.000 A 
ENDROOT
BRANCH   5   7
ATOM      7  C   UNL     1       5.151   5.025  17.818  0.00  0.00    +0.000 A 
ATOM      8  C   UNL     1       5.230   4.819  16.452  0.00  0.00    +0.000 A 
ATOM      9  C   UNL     1       6.475   4.564  15.914  0.00  0.00    +0.000 A 
ATOM     10  N   UNL     1       7.570   4.502  16.699  0.00  0.00    +0.000 NA
ATOM     11  C   UNL     1       7.402   4.705  18.008  0.00  0.00    +0.000 A 
ATOM     12  N   UNL     1       8.521   4.642  18.813  0.00  0.00    +0.000 N 
ATOM     13  N   UNL     1       6.235   4.942  18.610  0.00  0.00    +0.000 NA
ATOM     14  H   UNL     1       9.219   4.060  18.375  0.00  0.00    +0.000 HD
ATOM     15  H   UNL     1       8.245   4.416  19.758  0.00  0.00    +0.000 HD
BRANCH   9  16
ATOM     16  C   UNL     1       6.682   4.412  14.455  0.00  0.00    +0.000 A 
ATOM     17  C   UNL     1       7.597   5.231  13.767  0.00  0.00    +0.000 A 
ATOM     18  C   UNL     1       7.744   5.156  12.378  0.00  0.00    +0.000 A 
ATOM     19  C   UNL     1       6.981   4.254  11.643  0.00  0.00    +0.000 A 
ATOM     20  C   UNL     1       6.087   3.414  12.296  0.00  0.00    +0.000 A 
ATOM     21  C   UNL     1       5.947   3.488  13.686  0.00  0.00    +0.000 A 
ENDBRANCH   9  16
ENDBRANCH   5   7
BRANCH   1  22
ATOM     22  O   UNL     1       2.088   8.450  19.647  0.00  0.00    +0.000 OA
BRANCH  22  25
ATOM     23  C   UNL     1      -0.105   9.555  20.812  0.00  0.00    +0.000 C 
ATOM     24  N   UNL     1       0.067   9.613  19.363  0.00  0.00    +0.000 N 
ATOM     25  C   UNL     1       1.264   9.176  18.769  0.00  0.00    +0.000 C 
ATOM     26  O   UNL     1       1.588   9.403  17.605  0.00  0.00    +0.000 OA
BRANCH  24  27
ATOM     27  C   UNL     1      -0.993  10.191  18.571  0.00  0.00    +0.000 A 
ATOM     28  C   UNL     1      -1.348   9.653  17.322  0.00  0.00    +0.000 A 
ATOM     29  C   UNL     1      -2.350  10.220  16.531  0.00  0.00    +0.000 A 
ATOM     30  C   UNL     1      -3.038  11.338  16.979  0.00  0.00    +0.000 A 
ATOM     31  C   UNL     1      -2.734  11.872  18.227  0.00  0.00    +0.000 A 
ATOM     32  C   UNL     1      -1.731  11.299  19.021  0.00  0.00    +0.000 A 
ENDBRANCH  24  27
ENDBRANCH  22  25
ENDBRANCH   1  22
TORSDOF 5
ENDMDL
MODEL 9
REMARK VINA RESULT:      -8.5      2.335      4.095
REMARK  Name = 
REMARK  6 active torsions:
REMARK  status: ('A' for Active; 'I' for Inactive)
REMARK    1  A    between atoms: C_1  and  N_2
REMARK    2  A    between atoms: N_2  and  C_25
REMARK    3  A    between atoms: C_3  and  O_5
REMARK    4  A    between atoms: O_5  and  C_6
REMARK    5  A    between atoms: C_10  and  C_11
REMARK    6  A    between atoms: C_13  and  C_14
REMARK                            x       y       z     vdW  Elec       q    Type
REMARK                         _______ _______ _______ _____ _____    ______ ____
ROOT
ATOM      1  C   UNL     1       0.929   9.483  19.274  0.00  0.00    +0.000 A 
ATOM      2  C   UNL     1       0.633   9.685  20.618  0.00  0.00    +0.000 A 
ATOM      3  C   UNL     1       1.057   8.746  21.558  0.00  0.00    +0.000 A 
ATOM      4  C   UNL     1       1.761   7.604  21.148  0.00  0.00    +0.000 A 
ATOM      5  C   UNL     1       2.068   7.387  19.794  0.00  0.00    +0.000 A 
ATOM      6  C   UNL     1       1.679   8.377  18.876  0.00  0.00    +0.000 A 
ENDROOT
BRANCH   5   7
ATOM      7  C   UNL     1       2.768   6.174  19.330  0.00  0.00    +0.000 A 
ATOM      8  C   UNL     1       3.558   6.184  18.194  0.00  0.00    +0.000 A 
ATOM      9  C   UNL     1       4.240   5.028  17.878  0.00  0.00    +0.000 A 
ATOM     10  N   UNL     1       4.123   3.923  18.643  0.00  0.00    +0.000 NA
ATOM     11  C   UNL     1       3.332   3.998  19.716  0.00  0.00    +0.000 A 
ATOM     12  N   UNL     1       3.212   2.868  20.500  0.00  0.00    +0.000 N 
ATOM     13  N   UNL     1       2.628   5.069  20.084  0.00  0.00    +0.000 NA
ATOM     14  H   UNL     1       3.399   2.049  19.943  0.00  0.00    +0.000 HD
ATOM     15  H   UNL     1       2.339   2.902  21.009  0.00  0.00    +0.000 HD
BRANCH   9  16
ATOM     16  C   UNL     1       5.177   4.957  16.732  0.00  0.00    +0.000 A 
ATOM     17  C   UNL     1       4.771   4.413  15.500  0.00  0.00    +0.000 A 
ATOM     18  C   UNL     1       5.667   4.264  14.436  0.00  0.00    +0.000 A 
ATOM     19  C   UNL     1       6.993   4.663  14.579  0.00  0.00    +0.000 A 
ATOM     20  C   UNL     1       7.419   5.226  15.775  0.00  0.00    +0.000 A 
ATOM     21  C   UNL     1       6.519   5.379  16.835  0.00  0.00    +0.000 A 
ENDBRANCH   9  16
ENDBRANCH   5   7
BRANCH   1  22
ATOM     22  O   UNL     1       0.497  10.456  18.348  0.00  0.00    +0.000 OA
BRANCH  22  25
ATOM     23  C   UNL     1      -0.791  12.810  18.781  0.00  0.00    +0.000 C 
ATOM     24  N   UNL     1      -1.533  11.637  18.327  0.00  0.00    +0.000 N 
ATOM     25  C   UNL     1      -0.855  10.462  17.960  0.00  0.00    +0.000 C 
ATOM     26  O   UNL     1      -1.364   9.523  17.351  0.00  0.00    +0.000 OA
BRANCH  24  27
ATOM     27  C   UNL     1      -2.968  11.743  18.200  0.00  0.00    +0.000 A 
ATOM     28  C   UNL     1      -3.769  12.137  19.286  0.00  0.00    +0.000 A 
ATOM     29  C   UNL     1      -5.162  12.213  19.187  0.00  0.00    +0.000 A 
ATOM     30  C   UNL     1      -5.789  11.909  17.988  0.00  0.00    +0.000 A 
ATOM     31  C   UNL     1      -5.020  11.551  16.886  0.00  0.00    +0.000 A 
ATOM     32  C   UNL     1      -3.623  11.479  16.986  0.00  0.00    +0.000 A 
ENDBRANCH  24  27
ENDBRANCH  22  25
ENDBRANCH   1  22
TORSDOF 5
ENDMDL
