MODEL 1
REMARK VINA RESULT:      -6.8      0.000      0.000
REMARK  Name = 
REMARK  13 active torsions:
REMARK  status: ('A' for Active; 'I' for Inactive)
REMARK    1  A    between atoms: C_1  and  C_2
REMARK    2  A    between atoms: C_2  and  C_3
REMARK    3  A    between atoms: C_3  and  C_4
REMARK    4  A    between atoms: C_3  and  C_5
REMARK    5  A    between atoms: C_5  and  O_7
REMARK    6  A    between atoms: O_7  and  C_8
REMARK    7  A    between atoms: C_10  and  C_11
REMARK    8  A    between atoms: C_12  and  O_13
REMARK    9  A    between atoms: C_16  and  O_17
REMARK   10  A    between atoms: C_18  and  C_19
REMARK   11  A    between atoms: C_20  and  C_21
REMARK   12  A    between atoms: C_21  and  C_22
REMARK   13  A    between atoms: C_22  and  C_23
REMARK                            x       y       z     vdW  Elec       q    Type
REMARK                         _______ _______ _______ _____ _____    ______ ____
ROOT
ATOM      1  C   UNL     1      -0.125  11.607  18.689  0.00  0.00    +0.000 C 
ATOM      2  C   UNL     1      -0.082  13.171  18.808  0.00  0.00    +0.000 C 
ATOM      3  C   UNL     1      -0.534  13.734  20.166  0.00  0.00    +0.000 C 
ATOM      4  C   UNL     1      -2.069  13.830  20.240  0.00  0.00    +0.000 C 
ATOM      5  C   UNL     1       0.194  12.984  21.334  0.00  0.00    +0.000 C 
ATOM      6  C   UNL     1       0.361  11.398  21.197  0.00  0.00    +0.000 C 
ATOM      7  C   UNL     1       0.192  10.533  22.233  0.00  0.00    +0.000 C 
ATOM      8  C   UNL     1       0.273   9.001  22.231  0.00  0.00    +0.000 C 
ATOM      9  C   UNL     1       0.600   8.243  20.872  0.00  0.00    +0.000 C 
ATOM     10  C   UNL     1       1.594   7.043  21.137  0.00  0.00    +0.000 C 
ATOM     11  C   UNL     1       0.907   9.184  19.578  0.00  0.00    +0.000 C 
ATOM     12  C   UNL     1       0.749  10.860  19.800  0.00  0.00    +0.000 C 
ENDROOT
BRANCH   5  13
ATOM     13  O   UNL     1       1.487  13.613  21.450  0.00  0.00    +0.000 OA
ATOM     14  H   UNL     1       1.709  14.071  20.625  0.00  0.00    +0.000 HD
ENDBRANCH   5  13
BRANCH   8  15
ATOM     15  O   UNL     1      -0.977   8.554  22.813  0.00  0.00    +0.000 OA
ATOM     16  H   UNL     1      -0.891   8.394  23.766  0.00  0.00    +0.000 HD
ENDBRANCH   8  15
BRANCH   1  17
ATOM     17  O   UNL     1      -1.517  11.194  18.744  0.00  0.00    +0.000 OA
BRANCH  17  18
ATOM     18  C   UNL     1      -2.080  10.624  17.660  0.00  0.00    +0.000 C 
ATOM     19  O   UNL     1      -1.675   9.611  17.110  0.00  0.00    +0.000 OA
BRANCH  18  20
ATOM     20  C   UNL     1      -3.333  11.377  17.185  0.00  0.00    +0.000 C 
ATOM     21  C   UNL     1      -3.764  10.978  15.753  0.00  0.00    +0.000 C 
BRANCH  20  23
ATOM     22  C   UNL     1      -5.930  11.029  18.344  0.00  0.00    +0.000 C 
ATOM     23  C   UNL     1      -4.461  11.599  18.284  0.00  0.00    +0.000 C 
ENDBRANCH  20  23
ENDBRANCH  18  20
ENDBRANCH  17  18
ENDBRANCH   1  17
BRANCH  11  24
ATOM     24  C   UNL     1       2.251   8.787  18.760  0.00  0.00    +0.000 C 
BRANCH  24  25
ATOM     25  C   UNL     1       2.330   7.513  17.815  0.00  0.00    +0.000 C 
BRANCH  25  26
ATOM     26  C   UNL     1       3.310   6.406  18.348  0.00  0.00    +0.000 C 
ATOM     27  C   UNL     1       4.701   6.394  17.683  0.00  0.00    +0.000 C 
ATOM     28  C   UNL     1       4.880   5.335  16.646  0.00  0.00    +0.000 C 
ATOM     29  C   UNL     1       4.030   4.284  16.502  0.00  0.00    +0.000 C 
ATOM     30  C   UNL     1       2.857   4.108  17.432  0.00  0.00    +0.000 C 
ATOM     31  O   UNL     1       2.145   3.156  17.302  0.00  0.00    +0.000 OA
ATOM     32  O   UNL     1       2.643   5.107  18.327  0.00  0.00    +0.000 OA
ENDBRANCH  25  26
ENDBRANCH  24  25
ENDBRANCH  11  24
TORSDOF 9
ENDMDL
MODEL 2
REMARK VINA RESULT:      -6.7      3.623      6.311
REMARK  Name = 
REMARK  13 active torsions:
REMARK  status: ('A' for Active; 'I' for Inactive)
REMARK    1  A    between atoms: C_1  and  C_2
REMARK    2  A    between atoms: C_2  and  C_3
REMARK    3  A    between atoms: C_3  and  C_4
REMARK    4  A    between atoms: C_3  and  C_5
REMARK    5  A    between atoms: C_5  and  O_7
REMARK    6  A    between atoms: O_7  and  C_8
REMARK    7  A    between atoms: C_10  and  C_11
REMARK    8  A    between atoms: C_12  and  O_13
REMARK    9  A    between atoms: C_16  and  O_17
REMARK   10  A    between atoms: C_18  and  C_19
REMARK   11  A    between atoms: C_20  and  C_21
REMARK   12  A    between atoms: C_21  and  C_22
REMARK   13  A    between atoms: C_22  and  C_23
REMARK                            x       y       z     vdW  Elec       q    Type
REMARK                         _______ _______ _______ _____ _____    ______ ____
ROOT
ATOM      1  C   UNL     1      -1.758  13.705  21.023  0.00  0.00    +0.000 C 
ATOM      2  C   UNL     1      -2.093  14.146  22.491  0.00  0.00    +0.000 C 
ATOM      3  C   UNL     1      -3.566  14.505  22.743  0.00  0.00    +0.000 C 
ATOM      4  C   UNL     1      -3.864  15.950  22.305  0.00  0.00    +0.000 C 
ATOM      5  C   UNL     1      -4.503  13.380  22.185  0.00  0.00    +0.000 C 
ATOM      6  C   UNL     1      -4.119  12.740  20.769  0.00  0.00    +0.000 C 
ATOM      7  C   UNL     1      -5.033  12.436  19.809  0.00  0.00    +0.000 C 
ATOM      8  C   UNL     1      -4.802  11.870  18.402  0.00  0.00    +0.000 C 
ATOM      9  C   UNL     1      -3.316  11.565  17.925  0.00  0.00    +0.000 C 
ATOM     10  C   UNL     1      -3.267  10.207  17.116  0.00  0.00    +0.000 C 
ATOM     11  C   UNL     1      -2.140  11.810  19.025  0.00  0.00    +0.000 C 
ATOM     12  C   UNL     1      -2.619  12.454  20.521  0.00  0.00    +0.000 C 
ENDROOT
BRANCH   5  13
ATOM     13  O   UNL     1      -4.529  12.357  23.203  0.00  0.00    +0.000 OA
ATOM     14  H   UNL     1      -3.669  11.912  23.248  0.00  0.00    +0.000 HD
ENDBRANCH   5  13
BRANCH   8  15
ATOM     15  O   UNL     1      -5.480  12.786  17.508  0.00  0.00    +0.000 OA
ATOM     16  H   UNL     1      -5.082  13.669  17.529  0.00  0.00    +0.000 HD
ENDBRANCH   8  15
BRANCH   1  17
ATOM     17  O   UNL     1      -1.944  14.858  20.158  0.00  0.00    +0.000 OA
BRANCH  17  18
ATOM     18  C   UNL     1      -0.874  15.412  19.557  0.00  0.00    +0.000 C 
ATOM     19  O   UNL     1      -0.032  14.799  18.917  0.00  0.00    +0.000 OA
BRANCH  18  20
ATOM     20  C   UNL     1      -0.825  16.939  19.733  0.00  0.00    +0.000 C 
ATOM     21  C   UNL     1      -2.163  17.627  19.371  0.00  0.00    +0.000 C 
BRANCH  20  23
ATOM     22  C   UNL     1      -0.404  17.389  22.531  0.00  0.00    +0.000 C 
ATOM     23  C   UNL     1      -0.021  17.460  21.003  0.00  0.00    +0.000 C 
ENDBRANCH  20  23
ENDBRANCH  18  20
ENDBRANCH  17  18
ENDBRANCH   1  17
BRANCH  11  24
ATOM     24  C   UNL     1      -1.096  10.578  19.183  0.00  0.00    +0.000 C 
BRANCH  24  25
ATOM     25  C   UNL     1       0.478  10.787  19.175  0.00  0.00    +0.000 C 
BRANCH  25  26
ATOM     26  C   UNL     1       1.183  10.236  20.467  0.00  0.00    +0.000 C 
ATOM     27  C   UNL     1       1.127   8.704  20.635  0.00  0.00    +0.000 C 
ATOM     28  C   UNL     1       0.100   8.228  21.608  0.00  0.00    +0.000 C 
ATOM     29  C   UNL     1      -0.523   9.049  22.495  0.00  0.00    +0.000 C 
ATOM     30  C   UNL     1      -0.167  10.512  22.570  0.00  0.00    +0.000 C 
ATOM     31  O   UNL     1      -0.707  11.205  23.383  0.00  0.00    +0.000 OA
ATOM     32  O   UNL     1       0.708  10.968  21.637  0.00  0.00    +0.000 OA
ENDBRANCH  25  26
ENDBRANCH  24  25
ENDBRANCH  11  24
TORSDOF 9
ENDMDL
MODEL 3
REMARK VINA RESULT:      -6.7      1.734      2.244
REMARK  Name = 
REMARK  13 active torsions:
REMARK  status: ('A' for Active; 'I' for Inactive)
REMARK    1  A    between atoms: C_1  and  C_2
REMARK    2  A    between atoms: C_2  and  C_3
REMARK    3  A    between atoms: C_3  and  C_4
REMARK    4  A    between atoms: C_3  and  C_5
REMARK    5  A    between atoms: C_5  and  O_7
REMARK    6  A    between atoms: O_7  and  C_8
REMARK    7  A    between atoms: C_10  and  C_11
REMARK    8  A    between atoms: C_12  and  O_13
REMARK    9  A    between atoms: C_16  and  O_17
REMARK   10  A    between atoms: C_18  and  C_19
REMARK   11  A    between atoms: C_20  and  C_21
REMARK   12  A    between atoms: C_21  and  C_22
REMARK   13  A    between atoms: C_22  and  C_23
REMARK                            x       y       z     vdW  Elec       q    Type
REMARK                         _______ _______ _______ _____ _____    ______ ____
ROOT
ATOM      1  C   UNL     1       0.680  12.114  18.745  0.00  0.00    +0.000 C 
ATOM      2  C   UNL     1       1.478  13.407  18.355  0.00  0.00    +0.000 C 
ATOM      3  C   UNL     1       1.120  14.664  19.166  0.00  0.00    +0.000 C 
ATOM      4  C   UNL     1      -0.140  15.344  18.600  0.00  0.00    +0.000 C 
ATOM      5  C   UNL     1       1.133  14.343  20.700  0.00  0.00    +0.000 C 
ATOM      6  C   UNL     1       0.503  12.946  21.163  0.00  0.00    +0.000 C 
ATOM      7  C   UNL     1      -0.273  12.803  22.271  0.00  0.00    +0.000 C 
ATOM      8  C   UNL     1      -0.975  11.545  22.800  0.00  0.00    +0.000 C 
ATOM      9  C   UNL     1      -0.819  10.178  22.003  0.00  0.00    +0.000 C 
ATOM     10  C   UNL     1      -0.635   8.974  23.010  0.00  0.00    +0.000 C 
ATOM     11  C   UNL     1       0.161  10.209  20.702  0.00  0.00    +0.000 C 
ATOM     12  C   UNL     1       0.828  11.714  20.287  0.00  0.00    +0.000 C 
ENDROOT
BRANCH   5  13
ATOM     13  O   UNL     1       2.517  14.422  21.099  0.00  0.00    +0.000 OA
ATOM     14  H   UNL     1       2.848  13.540  21.326  0.00  0.00    +0.000 HD
ENDBRANCH   5  13
BRANCH   8  15
ATOM     15  O   UNL     1      -2.364  11.924  22.959  0.00  0.00    +0.000 OA
ATOM     16  H   UNL     1      -2.583  12.711  22.437  0.00  0.00    +0.000 HD
ENDBRANCH   8  15
BRANCH   1  17
ATOM     17  O   UNL     1      -0.712  12.324  18.384  0.00  0.00    +0.000 OA
BRANCH  17  18
ATOM     18  C   UNL     1      -1.462  11.272  18.003  0.00  0.00    +0.000 C 
ATOM     19  O   UNL     1      -1.024  10.229  17.540  0.00  0.00    +0.000 OA
BRANCH  18  20
ATOM     20  C   UNL     1      -2.963  11.503  18.239  0.00  0.00    +0.000 C 
ATOM     21  C   UNL     1      -3.831  10.301  17.797  0.00  0.00    +0.000 C 
BRANCH  20  23
ATOM     22  C   UNL     1      -4.758  12.636  20.163  0.00  0.00    +0.000 C 
ATOM     23  C   UNL     1      -3.340  12.258  19.587  0.00  0.00    +0.000 C 
ENDBRANCH  20  23
ENDBRANCH  18  20
ENDBRANCH  17  18
ENDBRANCH   1  17
BRANCH  11  24
ATOM     24  C   UNL     1       1.251   9.008  20.651  0.00  0.00    +0.000 C 
BRANCH  24  25
ATOM     25  C   UNL     1       1.625   8.252  19.305  0.00  0.00    +0.000 C 
BRANCH  25  26
ATOM     26  C   UNL     1       2.648   7.079  19.517  0.00  0.00    +0.000 C 
ATOM     27  C   UNL     1       3.255   6.504  18.221  0.00  0.00    +0.000 C 
ATOM     28  C   UNL     1       2.648   5.215  17.774  0.00  0.00    +0.000 C 
ATOM     29  C   UNL     1       1.854   4.451  18.571  0.00  0.00    +0.000 C 
ATOM     30  C   UNL     1       1.575   4.855  19.996  0.00  0.00    +0.000 C 
ATOM     31  O   UNL     1       0.900   4.147  20.684  0.00  0.00    +0.000 OA
ATOM     32  O   UNL     1       2.060   6.063  20.385  0.00  0.00    +0.000 OA
ENDBRANCH  25  26
ENDBRANCH  24  25
ENDBRANCH  11  24
TORSDOF 9
ENDMDL
MODEL 4
REMARK VINA RESULT:      -6.6      3.120      8.188
REMARK  Name = 
REMARK  13 active torsions:
REMARK  status: ('A' for Active; 'I' for Inactive)
REMARK    1  A    between atoms: C_1  and  C_2
REMARK    2  A    between atoms: C_2  and  C_3
REMARK    3  A    between atoms: C_3  and  C_4
REMARK    4  A    between atoms: C_3  and  C_5
REMARK    5  A    between atoms: C_5  and  O_7
REMARK    6  A    between atoms: O_7  and  C_8
REMARK    7  A    between atoms: C_10  and  C_11
REMARK    8  A    between atoms: C_12  and  O_13
REMARK    9  A    between atoms: C_16  and  O_17
REMARK   10  A    between atoms: C_18  and  C_19
REMARK   11  A    between atoms: C_20  and  C_21
REMARK   12  A    between atoms: C_21  and  C_22
REMARK   13  A    between atoms: C_22  and  C_23
REMARK                            x       y       z     vdW  Elec       q    Type
REMARK                         _______ _______ _______ _____ _____    ______ ____
ROOT
ATOM      1  C   UNL     1      -0.246  13.248  21.720  0.00  0.00    +0.000 C 
ATOM      2  C   UNL     1       0.774  14.431  21.861  0.00  0.00    +0.000 C 
ATOM      3  C   UNL     1       1.669  14.672  20.633  0.00  0.00    +0.000 C 
ATOM      4  C   UNL     1       2.873  13.713  20.632  0.00  0.00    +0.000 C 
ATOM      5  C   UNL     1       0.798  14.730  19.331  0.00  0.00    +0.000 C 
ATOM      6  C   UNL     1      -0.393  13.670  19.196  0.00  0.00    +0.000 C 
ATOM      7  C   UNL     1      -0.697  13.025  18.038  0.00  0.00    +0.000 C 
ATOM      8  C   UNL     1      -1.770  11.959  17.781  0.00  0.00    +0.000 C 
ATOM      9  C   UNL     1      -2.701  11.492  18.983  0.00  0.00    +0.000 C 
ATOM     10  C   UNL     1      -4.191  11.312  18.485  0.00  0.00    +0.000 C 
ATOM     11  C   UNL     1      -2.485  12.260  20.403  0.00  0.00    +0.000 C 
ATOM     12  C   UNL     1      -1.230  13.401  20.469  0.00  0.00    +0.000 C 
ENDROOT
BRANCH   5  13
ATOM     13  O   UNL     1       0.278  16.075  19.274  0.00  0.00    +0.000 OA
ATOM     14  H   UNL     1       1.006  16.710  19.201  0.00  0.00    +0.000 HD
ENDBRANCH   5  13
BRANCH   8  15
ATOM     15  O   UNL     1      -1.064  10.846  17.179  0.00  0.00    +0.000 OA
ATOM     16  H   UNL     1      -0.807  10.185  17.840  0.00  0.00    +0.000 HD
ENDBRANCH   8  15
BRANCH   1  17
ATOM     17  O   UNL     1       0.515  12.011  21.648  0.00  0.00    +0.000 OA
BRANCH  17  18
ATOM     18  C   UNL     1       0.026  10.900  22.234  0.00  0.00    +0.000 C 
ATOM     19  O   UNL     1      -0.592  10.877  23.288  0.00  0.00    +0.000 OA
BRANCH  18  20
ATOM     20  C   UNL     1       0.303   9.631  21.412  0.00  0.00    +0.000 C 
ATOM     21  C   UNL     1      -0.615   8.450  21.806  0.00  0.00    +0.000 C 
BRANCH  20  23
ATOM     22  C   UNL     1       1.555   9.041  18.904  0.00  0.00    +0.000 C 
ATOM     23  C   UNL     1       0.622   9.865  19.871  0.00  0.00    +0.000 C 
ENDBRANCH  20  23
ENDBRANCH  18  20
ENDBRANCH  17  18
ENDBRANCH   1  17
BRANCH  11  24
ATOM     24  C   UNL     1      -3.852  12.796  21.094  0.00  0.00    +0.000 C 
BRANCH  24  25
ATOM     25  C   UNL     1      -4.154  14.341  21.300  0.00  0.00    +0.000 C 
BRANCH  25  26
ATOM     26  C   UNL     1      -4.630  14.692  22.757  0.00  0.00    +0.000 C 
ATOM     27  C   UNL     1      -3.516  14.684  23.823  0.00  0.00    +0.000 C 
ATOM     28  C   UNL     1      -3.485  13.459  24.675  0.00  0.00    +0.000 C 
ATOM     29  C   UNL     1      -4.508  12.565  24.730  0.00  0.00    +0.000 C 
ATOM     30  C   UNL     1      -5.776  12.795  23.946  0.00  0.00    +0.000 C 
ATOM     31  O   UNL     1      -6.672  12.009  24.039  0.00  0.00    +0.000 OA
ATOM     32  O   UNL     1      -5.781  13.866  23.110  0.00  0.00    +0.000 OA
ENDBRANCH  25  26
ENDBRANCH  24  25
ENDBRANCH  11  24
TORSDOF 9
ENDMDL
MODEL 5
REMARK VINA RESULT:      -6.6      0.667      1.203
REMARK  Name = 
REMARK  13 active torsions:
REMARK  status: ('A' for Active; 'I' for Inactive)
REMARK    1  A    between atoms: C_1  and  C_2
REMARK    2  A    between atoms: C_2  and  C_3
REMARK    3  A    between atoms: C_3  and  C_4
REMARK    4  A    between atoms: C_3  and  C_5
REMARK    5  A    between atoms: C_5  and  O_7
REMARK    6  A    between atoms: O_7  and  C_8
REMARK    7  A    between atoms: C_10  and  C_11
REMARK    8  A    between atoms: C_12  and  O_13
REMARK    9  A    between atoms: C_16  and  O_17
REMARK   10  A    between atoms: C_18  and  C_19
REMARK   11  A    between atoms: C_20  and  C_21
REMARK   12  A    between atoms: C_21  and  C_22
REMARK   13  A    between atoms: C_22  and  C_23
REMARK                            x       y       z     vdW  Elec       q    Type
REMARK                         _______ _______ _______ _____ _____    ______ ____
ROOT
ATOM      1  C   UNL     1       0.071  11.560  18.613  0.00  0.00    +0.000 C 
ATOM      2  C   UNL     1       0.134  13.119  18.774  0.00  0.00    +0.000 C 
ATOM      3  C   UNL     1      -0.335  13.654  20.137  0.00  0.00    +0.000 C 
ATOM      4  C   UNL     1      -1.869  13.771  20.186  0.00  0.00    +0.000 C 
ATOM      5  C   UNL     1       0.360  12.863  21.299  0.00  0.00    +0.000 C 
ATOM      6  C   UNL     1       0.506  11.279  21.124  0.00  0.00    +0.000 C 
ATOM      7  C   UNL     1       0.305  10.390  22.133  0.00  0.00    +0.000 C 
ATOM      8  C   UNL     1       0.363   8.857  22.093  0.00  0.00    +0.000 C 
ATOM      9  C   UNL     1       0.704   8.131  20.721  0.00  0.00    +0.000 C 
ATOM     10  C   UNL     1       1.676   6.909  20.973  0.00  0.00    +0.000 C 
ATOM     11  C   UNL     1       1.049   9.099  19.458  0.00  0.00    +0.000 C 
ATOM     12  C   UNL     1       0.913  10.771  19.720  0.00  0.00    +0.000 C 
ENDROOT
BRANCH   5  13
ATOM     13  O   UNL     1       1.660  13.470  21.455  0.00  0.00    +0.000 OA
ATOM     14  H   UNL     1       1.903  13.497  22.393  0.00  0.00    +0.000 HD
ENDBRANCH   5  13
BRANCH   8  15
ATOM     15  O   UNL     1      -0.904   8.415  22.640  0.00  0.00    +0.000 OA
ATOM     16  H   UNL     1      -1.579   8.322  21.951  0.00  0.00    +0.000 HD
ENDBRANCH   8  15
BRANCH   1  17
ATOM     17  O   UNL     1      -1.329  11.166  18.631  0.00  0.00    +0.000 OA
BRANCH  17  18
ATOM     18  C   UNL     1      -1.787  10.314  17.695  0.00  0.00    +0.000 C 
ATOM     19  O   UNL     1      -1.101   9.509  17.082  0.00  0.00    +0.000 OA
BRANCH  18  20
ATOM     20  C   UNL     1      -3.304  10.434  17.482  0.00  0.00    +0.000 C 
ATOM     21  C   UNL     1      -3.909  11.681  18.170  0.00  0.00    +0.000 C 
BRANCH  20  23
ATOM     22  C   UNL     1      -3.218  10.356  14.619  0.00  0.00    +0.000 C 
ATOM     23  C   UNL     1      -3.831  10.033  16.036  0.00  0.00    +0.000 C 
ENDBRANCH  20  23
ENDBRANCH  18  20
ENDBRANCH  17  18
ENDBRANCH   1  17
BRANCH  11  24
ATOM     24  C   UNL     1       2.403   8.703  18.654  0.00  0.00    +0.000 C 
BRANCH  24  25
ATOM     25  C   UNL     1       2.532   7.366  17.807  0.00  0.00    +0.000 C 
BRANCH  25  26
ATOM     26  C   UNL     1       3.856   6.572  18.099  0.00  0.00    +0.000 C 
ATOM     27  C   UNL     1       5.002   6.828  17.100  0.00  0.00    +0.000 C 
ATOM     28  C   UNL     1       5.183   5.753  16.080  0.00  0.00    +0.000 C 
ATOM     29  C   UNL     1       4.613   4.524  16.186  0.00  0.00    +0.000 C 
ATOM     30  C   UNL     1       3.783   4.160  17.391  0.00  0.00    +0.000 C 
ATOM     31  O   UNL     1       3.321   3.060  17.473  0.00  0.00    +0.000 OA
ATOM     32  O   UNL     1       3.550   5.156  18.284  0.00  0.00    +0.000 OA
ENDBRANCH  25  26
ENDBRANCH  24  25
ENDBRANCH  11  24
TORSDOF 9
ENDMDL
MODEL 6
REMARK VINA RESULT:      -6.5      3.461      6.204
REMARK  Name = 
REMARK  13 active torsions:
REMARK  status: ('A' for Active; 'I' for Inactive)
REMARK    1  A    between atoms: C_1  and  C_2
REMARK    2  A    between atoms: C_2  and  C_3
REMARK    3  A    between atoms: C_3  and  C_4
REMARK    4  A    between atoms: C_3  and  C_5
REMARK    5  A    between atoms: C_5  and  O_7
REMARK    6  A    between atoms: O_7  and  C_8
REMARK    7  A    between atoms: C_10  and  C_11
REMARK    8  A    between atoms: C_12  and  O_13
REMARK    9  A    between atoms: C_16  and  O_17
REMARK   10  A    between atoms: C_18  and  C_19
REMARK   11  A    between atoms: C_20  and  C_21
REMARK   12  A    between atoms: C_21  and  C_22
REMARK   13  A    between atoms: C_22  and  C_23
REMARK                            x       y       z     vdW  Elec       q    Type
REMARK                         _______ _______ _______ _____ _____    ______ ____
ROOT
ATOM      1  C   UNL     1      -1.721  13.646  21.107  0.00  0.00    +0.000 C 
ATOM      2  C   UNL     1      -1.970  14.053  22.601  0.00  0.00    +0.000 C 
ATOM      3  C   UNL     1      -3.413  14.470  22.932  0.00  0.00    +0.000 C 
ATOM      4  C   UNL     1      -3.662  15.941  22.553  0.00  0.00    +0.000 C 
ATOM      5  C   UNL     1      -4.425  13.408  22.381  0.00  0.00    +0.000 C 
ATOM      6  C   UNL     1      -4.133  12.799  20.930  0.00  0.00    +0.000 C 
ATOM      7  C   UNL     1      -5.102  12.568  20.003  0.00  0.00    +0.000 C 
ATOM      8  C   UNL     1      -4.958  12.040  18.570  0.00  0.00    +0.000 C 
ATOM      9  C   UNL     1      -3.511  11.683  18.017  0.00  0.00    +0.000 C 
ATOM     10  C   UNL     1      -3.561  10.353  17.165  0.00  0.00    +0.000 C 
ATOM     11  C   UNL     1      -2.278  11.839  19.070  0.00  0.00    +0.000 C 
ATOM     12  C   UNL     1      -2.661  12.454  20.606  0.00  0.00    +0.000 C 
ENDROOT
BRANCH   5  13
ATOM     13  O   UNL     1      -4.454  12.354  23.367  0.00  0.00    +0.000 OA
ATOM     14  H   UNL     1      -3.670  12.410  23.935  0.00  0.00    +0.000 HD
ENDBRANCH   5  13
BRANCH   8  15
ATOM     15  O   UNL     1      -5.632  13.014  17.736  0.00  0.00    +0.000 OA
ATOM     16  H   UNL     1      -5.880  12.640  16.877  0.00  0.00    +0.000 HD
ENDBRANCH   8  15
BRANCH   1  17
ATOM     17  O   UNL     1      -1.891  14.835  20.288  0.00  0.00    +0.000 OA
BRANCH  17  18
ATOM     18  C   UNL     1      -0.898  15.744  20.230  0.00  0.00    +0.000 C 
ATOM     19  O   UNL     1      -0.549  16.462  21.155  0.00  0.00    +0.000 OA
BRANCH  18  20
ATOM     20  C   UNL     1      -0.208  15.775  18.857  0.00  0.00    +0.000 C 
ATOM     21  C   UNL     1      -0.578  17.026  18.027  0.00  0.00    +0.000 C 
BRANCH  20  23
ATOM     22  C   UNL     1       1.863  13.795  18.903  0.00  0.00    +0.000 C 
ATOM     23  C   UNL     1       1.299  15.266  18.833  0.00  0.00    +0.000 C 
ENDBRANCH  20  23
ENDBRANCH  18  20
ENDBRANCH  17  18
ENDBRANCH   1  17
BRANCH  11  24
ATOM     24  C   UNL     1      -1.287  10.556  19.142  0.00  0.00    +0.000 C 
BRANCH  24  25
ATOM     25  C   UNL     1       0.266  10.658  18.825  0.00  0.00    +0.000 C 
BRANCH  25  26
ATOM     26  C   UNL     1       1.176  10.252  20.040  0.00  0.00    +0.000 C 
ATOM     27  C   UNL     1       1.351   8.734  20.242  0.00  0.00    +0.000 C 
ATOM     28  C   UNL     1       0.511   8.155  21.332  0.00  0.00    +0.000 C 
ATOM     29  C   UNL     1      -0.121   8.913  22.267  0.00  0.00    +0.000 C 
ATOM     30  C   UNL     1       0.033  10.413  22.275  0.00  0.00    +0.000 C 
ATOM     31  O   UNL     1      -0.508  11.052  23.129  0.00  0.00    +0.000 OA
ATOM     32  O   UNL     1       0.731  10.952  21.243  0.00  0.00    +0.000 OA
ENDBRANCH  25  26
ENDBRANCH  24  25
ENDBRANCH  11  24
TORSDOF 9
ENDMDL
MODEL 7
REMARK VINA RESULT:      -6.5      4.382      7.212
REMARK  Name = 
REMARK  13 active torsions:
REMARK  status: ('A' for Active; 'I' for Inactive)
REMARK    1  A    between atoms: C_1  and  C_2
REMARK    2  A    between atoms: C_2  and  C_3
REMARK    3  A    between atoms: C_3  and  C_4
REMARK    4  A    between atoms: C_3  and  C_5
REMARK    5  A    between atoms: C_5  and  O_7
REMARK    6  A    between atoms: O_7  and  C_8
REMARK    7  A    between atoms: C_10  and  C_11
REMARK    8  A    between atoms: C_12  and  O_13
REMARK    9  A    between atoms: C_16  and  O_17
REMARK   10  A    between atoms: C_18  and  C_19
REMARK   11  A    between atoms: C_20  and  C_21
REMARK   12  A    between atoms: C_21  and  C_22
REMARK   13  A    between atoms: C_22  and  C_23
REMARK                            x       y       z     vdW  Elec       q    Type
REMARK                         _______ _______ _______ _____ _____    ______ ____
ROOT
ATOM      1  C   UNL     1      -0.490  14.050  22.085  0.00  0.00    +0.000 C 
ATOM      2  C   UNL     1      -1.168  13.575  23.417  0.00  0.00    +0.000 C 
ATOM      3  C   UNL     1      -2.055  12.326  23.289  0.00  0.00    +0.000 C 
ATOM      4  C   UNL     1      -3.459  12.696  22.777  0.00  0.00    +0.000 C 
ATOM      5  C   UNL     1      -1.289  11.193  22.522  0.00  0.00    +0.000 C 
ATOM      6  C   UNL     1      -0.414  11.626  21.254  0.00  0.00    +0.000 C 
ATOM      7  C   UNL     1      -0.362  10.912  20.098  0.00  0.00    +0.000 C 
ATOM      8  C   UNL     1       0.389  11.233  18.799  0.00  0.00    +0.000 C 
ATOM      9  C   UNL     1       1.253  12.566  18.714  0.00  0.00    +0.000 C 
ATOM     10  C   UNL     1       2.613  12.291  17.955  0.00  0.00    +0.000 C 
ATOM     11  C   UNL     1       1.335  13.461  20.071  0.00  0.00    +0.000 C 
ATOM     12  C   UNL     1       0.413  12.926  21.393  0.00  0.00    +0.000 C 
ENDROOT
BRANCH   5  13
ATOM     13  O   UNL     1      -0.452  10.555  23.511  0.00  0.00    +0.000 OA
ATOM     14  H   UNL     1       0.479  10.765  23.342  0.00  0.00    +0.000 HD
ENDBRANCH   5  13
BRANCH   8  15
ATOM     15  O   UNL     1      -0.613  11.169  17.755  0.00  0.00    +0.000 OA
ATOM     16  H   UNL     1      -1.512  11.195  18.119  0.00  0.00    +0.000 HD
ENDBRANCH   8  15
BRANCH   1  17
ATOM     17  O   UNL     1      -1.539  14.510  21.190  0.00  0.00    +0.000 OA
BRANCH  17  18
ATOM     18  C   UNL     1      -1.989  15.776  21.296  0.00  0.00    +0.000 C 
ATOM     19  O   UNL     1      -2.983  16.118  21.919  0.00  0.00    +0.000 OA
BRANCH  18  20
ATOM     20  C   UNL     1      -1.090  16.783  20.561  0.00  0.00    +0.000 C 
ATOM     21  C   UNL     1       0.004  17.388  21.474  0.00  0.00    +0.000 C 
BRANCH  20  23
ATOM     22  C   UNL     1      -0.591  17.320  17.791  0.00  0.00    +0.000 C 
ATOM     23  C   UNL     1      -0.705  16.399  19.066  0.00  0.00    +0.000 C 
ENDBRANCH  20  23
ENDBRANCH  18  20
ENDBRANCH  17  18
ENDBRANCH   1  17
BRANCH  11  24
ATOM     24  C   UNL     1       2.836  13.905  20.498  0.00  0.00    +0.000 C 
BRANCH  24  25
ATOM     25  C   UNL     1       3.158  15.323  21.137  0.00  0.00    +0.000 C 
BRANCH  25  26
ATOM     26  C   UNL     1       3.878  16.303  20.142  0.00  0.00    +0.000 C 
ATOM     27  C   UNL     1       2.940  17.061  19.182  0.00  0.00    +0.000 C 
ATOM     28  C   UNL     1       2.892  16.504  17.798  0.00  0.00    +0.000 C 
ATOM     29  C   UNL     1       3.801  15.611  17.323  0.00  0.00    +0.000 C 
ATOM     30  C   UNL     1       4.958  15.161  18.179  0.00  0.00    +0.000 C 
ATOM     31  O   UNL     1       5.761  14.400  17.723  0.00  0.00    +0.000 OA
ATOM     32  O   UNL     1       4.965  15.603  19.463  0.00  0.00    +0.000 OA
ENDBRANCH  25  26
ENDBRANCH  24  25
ENDBRANCH  11  24
TORSDOF 9
ENDMDL
MODEL 8
REMARK VINA RESULT:      -6.5      2.689      5.275
REMARK  Name = 
REMARK  13 active torsions:
REMARK  status: ('A' for Active; 'I' for Inactive)
REMARK    1  A    between atoms: C_1  and  C_2
REMARK    2  A    between atoms: C_2  and  C_3
REMARK    3  A    between atoms: C_3  and  C_4
REMARK    4  A    between atoms: C_3  and  C_5
REMARK    5  A    between atoms: C_5  and  O_7
REMARK    6  A    between atoms: O_7  and  C_8
REMARK    7  A    between atoms: C_10  and  C_11
REMARK    8  A    between atoms: C_12  and  O_13
REMARK    9  A    between atoms: C_16  and  O_17
REMARK   10  A    between atoms: C_18  and  C_19
REMARK   11  A    between atoms: C_20  and  C_21
REMARK   12  A    between atoms: C_21  and  C_22
REMARK   13  A    between atoms: C_22  and  C_23
REMARK                            x       y       z     vdW  Elec       q    Type
REMARK                         _______ _______ _______ _____ _____    ______ ____
ROOT
ATOM      1  C   UNL     1      -0.754  13.175  20.944  0.00  0.00    +0.000 C 
ATOM      2  C   UNL     1      -0.583  13.559  22.455  0.00  0.00    +0.000 C 
ATOM      3  C   UNL     1      -1.818  14.203  23.107  0.00  0.00    +0.000 C 
ATOM      4  C   UNL     1      -1.884  15.709  22.794  0.00  0.00    +0.000 C 
ATOM      5  C   UNL     1      -3.098  13.351  22.805  0.00  0.00    +0.000 C 
ATOM      6  C   UNL     1      -3.254  12.759  21.326  0.00  0.00    +0.000 C 
ATOM      7  C   UNL     1      -4.432  12.734  20.648  0.00  0.00    +0.000 C 
ATOM      8  C   UNL     1      -4.711  12.245  19.221  0.00  0.00    +0.000 C 
ATOM      9  C   UNL     1      -3.512  11.669  18.350  0.00  0.00    +0.000 C 
ATOM     10  C   UNL     1      -3.986  10.401  17.533  0.00  0.00    +0.000 C 
ATOM     11  C   UNL     1      -2.065  11.570  19.091  0.00  0.00    +0.000 C 
ATOM     12  C   UNL     1      -1.977  12.181  20.673  0.00  0.00    +0.000 C 
ENDROOT
BRANCH   5  13
ATOM     13  O   UNL     1      -3.087  12.281  23.773  0.00  0.00    +0.000 OA
ATOM     14  H   UNL     1      -3.922  12.268  24.263  0.00  0.00    +0.000 HD
ENDBRANCH   5  13
BRANCH   8  15
ATOM     15  O   UNL     1      -5.375  13.352  18.563  0.00  0.00    +0.000 OA
ATOM     16  H   UNL     1      -6.340  13.290  18.642  0.00  0.00    +0.000 HD
ENDBRANCH   8  15
BRANCH   1  17
ATOM     17  O   UNL     1      -0.894  14.406  20.184  0.00  0.00    +0.000 OA
BRANCH  17  18
ATOM     18  C   UNL     1       0.056  14.742  19.290  0.00  0.00    +0.000 C 
ATOM     19  O   UNL     1       0.522  13.992  18.445  0.00  0.00    +0.000 OA
BRANCH  18  20
ATOM     20  C   UNL     1       0.492  16.211  19.418  0.00  0.00    +0.000 C 
ATOM     21  C   UNL     1       1.675  16.568  18.488  0.00  0.00    +0.000 C 
BRANCH  20  23
ATOM     22  C   UNL     1      -1.585  17.953  18.490  0.00  0.00    +0.000 C 
ATOM     23  C   UNL     1      -0.687  17.266  19.589  0.00  0.00    +0.000 C 
ENDBRANCH  20  23
ENDBRANCH  18  20
ENDBRANCH  17  18
ENDBRANCH   1  17
BRANCH  11  24
ATOM     24  C   UNL     1      -1.324  10.135  18.935  0.00  0.00    +0.000 C 
BRANCH  24  25
ATOM     25  C   UNL     1      -0.185   9.876  17.859  0.00  0.00    +0.000 C 
BRANCH  25  26
ATOM     26  C   UNL     1       1.259   9.842  18.480  0.00  0.00    +0.000 C 
ATOM     27  C   UNL     1       2.237   8.865  17.798  0.00  0.00    +0.000 C 
ATOM     28  C   UNL     1       2.442   7.583  18.535  0.00  0.00    +0.000 C 
ATOM     29  C   UNL     1       2.058   7.397  19.826  0.00  0.00    +0.000 C 
ATOM     30  C   UNL     1       1.429   8.519  20.612  0.00  0.00    +0.000 C 
ATOM     31  O   UNL     1       1.131   8.338  21.756  0.00  0.00    +0.000 OA
ATOM     32  O   UNL     1       1.168   9.663  19.926  0.00  0.00    +0.000 OA
ENDBRANCH  25  26
ENDBRANCH  24  25
ENDBRANCH  11  24
TORSDOF 9
ENDMDL
MODEL 9
REMARK VINA RESULT:      -6.5      3.127      6.816
REMARK  Name = 
REMARK  13 active torsions:
REMARK  status: ('A' for Active; 'I' for Inactive)
REMARK    1  A    between atoms: C_1  and  C_2
REMARK    2  A    between atoms: C_2  and  C_3
REMARK    3  A    between atoms: C_3  and  C_4
REMARK    4  A    between atoms: C_3  and  C_5
REMARK    5  A    between atoms: C_5  and  O_7
REMARK    6  A    between atoms: O_7  and  C_8
REMARK    7  A    between atoms: C_10  and  C_11
REMARK    8  A    between atoms: C_12  and  O_13
REMARK    9  A    between atoms: C_16  and  O_17
REMARK   10  A    between atoms: C_18  and  C_19
REMARK   11  A    between atoms: C_20  and  C_21
REMARK   12  A    between atoms: C_21  and  C_22
REMARK   13  A    between atoms: C_22  and  C_23
REMARK                            x       y       z     vdW  Elec       q    Type
REMARK                         _______ _______ _______ _____ _____    ______ ____
ROOT
ATOM      1  C   UNL     1      -1.562  11.788  18.621  0.00  0.00    +0.000 C 
ATOM      2  C   UNL     1      -2.381  11.390  17.344  0.00  0.00    +0.000 C 
ATOM      3  C   UNL     1      -3.791  10.841  17.619  0.00  0.00    +0.000 C 
ATOM      4  C   UNL     1      -3.740   9.345  17.978  0.00  0.00    +0.000 C 
ATOM      5  C   UNL     1      -4.561  11.788  18.602  0.00  0.00    +0.000 C 
ATOM      6  C   UNL     1      -3.738  12.392  19.835  0.00  0.00    +0.000 C 
ATOM      7  C   UNL     1      -4.244  12.507  21.092  0.00  0.00    +0.000 C 
ATOM      8  C   UNL     1      -3.556  13.017  22.365  0.00  0.00    +0.000 C 
ATOM      9  C   UNL     1      -2.043  13.502  22.287  0.00  0.00    +0.000 C 
ATOM     10  C   UNL     1      -1.838  14.803  23.161  0.00  0.00    +0.000 C 
ATOM     11  C   UNL     1      -1.357  13.490  20.810  0.00  0.00    +0.000 C 
ATOM     12  C   UNL     1      -2.298  12.872  19.538  0.00  0.00    +0.000 C 
ENDROOT
BRANCH   5  13
ATOM     13  O   UNL     1      -5.084  12.854  17.782  0.00  0.00    +0.000 OA
ATOM     14  H   UNL     1      -6.026  12.705  17.606  0.00  0.00    +0.000 HD
ENDBRANCH   5  13
BRANCH   8  15
ATOM     15  O   UNL     1      -3.738  11.964  23.343  0.00  0.00    +0.000 OA
ATOM     16  H   UNL     1      -3.439  11.106  23.005  0.00  0.00    +0.000 HD
ENDBRANCH   8  15
BRANCH   1  17
ATOM     17  O   UNL     1      -1.277  10.571  19.365  0.00  0.00    +0.000 OA
BRANCH  17  18
ATOM     18  C   UNL     1      -0.031  10.060  19.342  0.00  0.00    +0.000 C 
ATOM     19  O   UNL     1       0.753  10.164  18.410  0.00  0.00    +0.000 OA
BRANCH  18  20
ATOM     20  C   UNL     1       0.332   9.337  20.648  0.00  0.00    +0.000 C 
ATOM     21  C   UNL     1       1.517   8.356  20.481  0.00  0.00    +0.000 C 
BRANCH  20  23
ATOM     22  C   UNL     1      -0.753  10.139  23.176  0.00  0.00    +0.000 C 
ATOM     23  C   UNL     1       0.258  10.221  21.968  0.00  0.00    +0.000 C 
ENDBRANCH  20  23
ENDBRANCH  18  20
ENDBRANCH  17  18
ENDBRANCH   1  17
BRANCH  11  24
ATOM     24  C   UNL     1      -0.594  14.864  20.410  0.00  0.00    +0.000 C 
BRANCH  24  25
ATOM     25  C   UNL     1       0.346  14.979  19.134  0.00  0.00    +0.000 C 
BRANCH  25  26
ATOM     26  C   UNL     1       1.473  13.884  19.094  0.00  0.00    +0.000 C 
ATOM     27  C   UNL     1       2.068  13.513  20.467  0.00  0.00    +0.000 C 
ATOM     28  C   UNL     1       3.393  14.139  20.754  0.00  0.00    +0.000 C 
ATOM     29  C   UNL     1       4.158  14.732  19.800  0.00  0.00    +0.000 C 
ATOM     30  C   UNL     1       3.717  14.749  18.359  0.00  0.00    +0.000 C 
ATOM     31  O   UNL     1       4.426  15.249  17.535  0.00  0.00    +0.000 OA
ATOM     32  O   UNL     1       2.479  14.251  18.102  0.00  0.00    +0.000 OA
ENDBRANCH  25  26
ENDBRANCH  24  25
ENDBRANCH  11  24
TORSDOF 9
ENDMDL
