MODEL 1
REMARK VINA RESULT:      -7.7      0.000      0.000
REMARK  Name = 
REMARK  6 active torsions:
REMARK  status: ('A' for Active; 'I' for Inactive)
REMARK    1  A    between atoms: C_1  and  O_2
REMARK    2  A    between atoms: O_2  and  C_3
REMARK    3  A    between atoms: C_8  and  S_9
REMARK    4  A    between atoms: S_9  and  C_10
REMARK    5  A    between atoms: N_17  and  C_18
REMARK    6  A    between atoms: C_18  and  C_19
REMARK                            x       y       z     vdW  Elec       q    Type
REMARK                         _______ _______ _______ _____ _____    ______ ____
ROOT
ATOM      1  C   UNL     1       2.262   5.322  18.221  0.00  0.00    +0.000 C 
ATOM      2  C   UNL     1       1.918   3.840  18.501  0.00  0.00    +0.000 C 
ATOM      3  C   UNL     1       3.252   3.509  17.848  0.00  0.00    +0.000 C 
ATOM      4  O   UNL     1       3.846   2.506  17.516  0.00  0.00    +0.000 OA
ATOM      5  N   UNL     1       3.582   4.827  17.752  0.00  0.00    +0.000 N 
ATOM      6  C   UNL     1       4.646   5.454  17.139  0.00  0.00    +0.000 C 
ATOM      7  O   UNL     1       4.706   6.665  16.959  0.00  0.00    +0.000 OA
ATOM      8  N   UNL     1       5.650   4.588  16.734  0.00  0.00    +0.000 N 
ATOM      9  H   UNL     1       5.387   3.615  16.626  0.00  0.00    +0.000 HD
ENDROOT
BRANCH   1  10
ATOM     10  S   UNL     1       2.439   6.296  19.741  0.00  0.00    +0.000 S 
BRANCH  10  16
ATOM     11  C   UNL     1       1.096   8.824  20.341  0.00  0.00    +0.000 A 
ATOM     12  C   UNL     1       0.804  10.145  19.925  0.00  0.00    +0.000 A 
ATOM     13  C   UNL     1       1.239  10.637  18.698  0.00  0.00    +0.000 A 
ATOM     14  C   UNL     1       1.915   9.793  17.835  0.00  0.00    +0.000 A 
ATOM     15  C   UNL     1       2.155   8.469  18.211  0.00  0.00    +0.000 A 
ATOM     16  C   UNL     1       1.776   7.950  19.472  0.00  0.00    +0.000 A 
BRANCH  11  18
ATOM     17  C   UNL     1       1.028   9.290  22.648  0.00  0.00    +0.000 C 
ATOM     18  O   UNL     1       0.705   8.388  21.582  0.00  0.00    +0.000 OA
ENDBRANCH  11  18
ENDBRANCH  10  16
ENDBRANCH   1  10
BRANCH   8  19
ATOM     19  C   UNL     1       6.840   5.029  16.023  0.00  0.00    +0.000 C 
BRANCH  19  20
ATOM     20  C   UNL     1       6.809   4.704  14.540  0.00  0.00    +0.000 A 
ATOM     21  C   UNL     1       7.719   5.315  13.664  0.00  0.00    +0.000 A 
ATOM     22  C   UNL     1       7.739   4.993  12.300  0.00  0.00    +0.000 A 
ATOM     23  C   UNL     1       6.852   4.047  11.796  0.00  0.00    +0.000 A 
ATOM     24  C   UNL     1       5.954   3.417  12.652  0.00  0.00    +0.000 A 
ATOM     25  C   UNL     1       5.938   3.735  14.015  0.00  0.00    +0.000 A 
ENDBRANCH  19  20
ENDBRANCH   8  19
TORSDOF 5
ENDMDL
MODEL 2
REMARK VINA RESULT:      -7.6      4.199      6.631
REMARK  Name = 
REMARK  6 active torsions:
REMARK  status: ('A' for Active; 'I' for Inactive)
REMARK    1  A    between atoms: C_1  and  O_2
REMARK    2  A    between atoms: O_2  and  C_3
REMARK    3  A    between atoms: C_8  and  S_9
REMARK    4  A    between atoms: S_9  and  C_10
REMARK    5  A    between atoms: N_17  and  C_18
REMARK    6  A    between atoms: C_18  and  C_19
REMARK                            x       y       z     vdW  Elec       q    Type
REMARK                         _______ _______ _______ _____ _____    ______ ____
ROOT
ATOM      1  C   UNL     1       5.283   4.865  17.818  0.00  0.00    +0.000 C 
ATOM      2  C   UNL     1       5.629   4.319  19.223  0.00  0.00    +0.000 C 
ATOM      3  C   UNL     1       6.658   5.437  19.298  0.00  0.00    +0.000 C 
ATOM      4  O   UNL     1       7.537   5.777  20.060  0.00  0.00    +0.000 OA
ATOM      5  N   UNL     1       6.225   5.973  18.124  0.00  0.00    +0.000 N 
ATOM      6  C   UNL     1       6.723   7.007  17.359  0.00  0.00    +0.000 C 
ATOM      7  O   UNL     1       6.346   7.248  16.218  0.00  0.00    +0.000 OA
ATOM      8  N   UNL     1       7.702   7.755  17.996  0.00  0.00    +0.000 N 
ATOM      9  H   UNL     1       8.170   7.308  18.777  0.00  0.00    +0.000 HD
ENDROOT
BRANCH   1  10
ATOM     10  S   UNL     1       3.580   5.476  17.707  0.00  0.00    +0.000 S 
BRANCH  10  16
ATOM     11  C   UNL     1       2.251   3.059  18.682  0.00  0.00    +0.000 A 
ATOM     12  C   UNL     1       1.469   2.458  19.697  0.00  0.00    +0.000 A 
ATOM     13  C   UNL     1       1.001   3.187  20.787  0.00  0.00    +0.000 A 
ATOM     14  C   UNL     1       1.251   4.546  20.845  0.00  0.00    +0.000 A 
ATOM     15  C   UNL     1       1.970   5.162  19.817  0.00  0.00    +0.000 A 
ATOM     16  C   UNL     1       2.507   4.443  18.722  0.00  0.00    +0.000 A 
BRANCH  11  18
ATOM     17  C   UNL     1       3.717   1.327  18.057  0.00  0.00    +0.000 C 
ATOM     18  O   UNL     1       2.748   2.301  17.651  0.00  0.00    +0.000 OA
ENDBRANCH  11  18
ENDBRANCH  10  16
ENDBRANCH   1  10
BRANCH   8  19
ATOM     19  C   UNL     1       8.398   8.860  17.358  0.00  0.00    +0.000 C 
BRANCH  19  20
ATOM     20  C   UNL     1       8.733   9.991  18.314  0.00  0.00    +0.000 A 
ATOM     21  C   UNL     1       9.096   9.711  19.640  0.00  0.00    +0.000 A 
ATOM     22  C   UNL     1       9.456  10.737  20.525  0.00  0.00    +0.000 A 
ATOM     23  C   UNL     1       9.467  12.058  20.090  0.00  0.00    +0.000 A 
ATOM     24  C   UNL     1       9.129  12.355  18.773  0.00  0.00    +0.000 A 
ATOM     25  C   UNL     1       8.774  11.329  17.888  0.00  0.00    +0.000 A 
ENDBRANCH  19  20
ENDBRANCH   8  19
TORSDOF 5
ENDMDL
MODEL 3
REMARK VINA RESULT:      -7.5      3.327      4.925
REMARK  Name = 
REMARK  6 active torsions:
REMARK  status: ('A' for Active; 'I' for Inactive)
REMARK    1  A    between atoms: C_1  and  O_2
REMARK    2  A    between atoms: O_2  and  C_3
REMARK    3  A    between atoms: C_8  and  S_9
REMARK    4  A    between atoms: S_9  and  C_10
REMARK    5  A    between atoms: N_17  and  C_18
REMARK    6  A    between atoms: C_18  and  C_19
REMARK                            x       y       z     vdW  Elec       q    Type
REMARK                         _______ _______ _______ _____ _____    ______ ____
ROOT
ATOM      1  C   UNL     1       4.690   4.775  17.515  0.00  0.00    +0.000 C 
ATOM      2  C   UNL     1       4.119   6.211  17.574  0.00  0.00    +0.000 C 
ATOM      3  C   UNL     1       4.842   6.450  16.257  0.00  0.00    +0.000 C 
ATOM      4  O   UNL     1       5.054   7.393  15.525  0.00  0.00    +0.000 OA
ATOM      5  N   UNL     1       5.204   5.140  16.169  0.00  0.00    +0.000 N 
ATOM      6  C   UNL     1       6.028   4.484  15.279  0.00  0.00    +0.000 C 
ATOM      7  O   UNL     1       6.424   3.335  15.443  0.00  0.00    +0.000 OA
ATOM      8  N   UNL     1       6.379   5.244  14.174  0.00  0.00    +0.000 N 
ATOM      9  H   UNL     1       6.284   6.249  14.272  0.00  0.00    +0.000 HD
ENDROOT
BRANCH   1  10
ATOM     10  S   UNL     1       3.394   3.513  17.393  0.00  0.00    +0.000 S 
BRANCH  10  16
ATOM     11  C   UNL     1       3.483   2.677  20.195  0.00  0.00    +0.000 A 
ATOM     12  C   UNL     1       2.795   2.568  21.427  0.00  0.00    +0.000 A 
ATOM     13  C   UNL     1       1.462   2.952  21.556  0.00  0.00    +0.000 A 
ATOM     14  C   UNL     1       0.776   3.387  20.436  0.00  0.00    +0.000 A 
ATOM     15  C   UNL     1       1.429   3.441  19.202  0.00  0.00    +0.000 A 
ATOM     16  C   UNL     1       2.796   3.110  19.044  0.00  0.00    +0.000 A 
BRANCH  11  18
ATOM     17  C   UNL     1       5.198   1.260  20.964  0.00  0.00    +0.000 C 
ATOM     18  O   UNL     1       4.812   2.347  20.114  0.00  0.00    +0.000 OA
ENDBRANCH  11  18
ENDBRANCH  10  16
ENDBRANCH   1  10
BRANCH   8  19
ATOM     19  C   UNL     1       7.279   4.767  13.136  0.00  0.00    +0.000 C 
BRANCH  19  20
ATOM     20  C   UNL     1       6.695   3.638  12.306  0.00  0.00    +0.000 A 
ATOM     21  C   UNL     1       7.535   2.653  11.763  0.00  0.00    +0.000 A 
ATOM     22  C   UNL     1       7.011   1.575  11.035  0.00  0.00    +0.000 A 
ATOM     23  C   UNL     1       5.637   1.466  10.848  0.00  0.00    +0.000 A 
ATOM     24  C   UNL     1       4.787   2.422  11.395  0.00  0.00    +0.000 A 
ATOM     25  C   UNL     1       5.310   3.495  12.126  0.00  0.00    +0.000 A 
ENDBRANCH  19  20
ENDBRANCH   8  19
TORSDOF 5
ENDMDL
MODEL 4
REMARK VINA RESULT:      -7.5      4.221      6.591
REMARK  Name = 
REMARK  6 active torsions:
REMARK  status: ('A' for Active; 'I' for Inactive)
REMARK    1  A    between atoms: C_1  and  O_2
REMARK    2  A    between atoms: O_2  and  C_3
REMARK    3  A    between atoms: C_8  and  S_9
REMARK    4  A    between atoms: S_9  and  C_10
REMARK    5  A    between atoms: N_17  and  C_18
REMARK    6  A    between atoms: C_18  and  C_19
REMARK                            x       y       z     vdW  Elec       q    Type
REMARK                         _______ _______ _______ _____ _____    ______ ____
ROOT
ATOM      1  C   UNL     1       5.397   4.716  17.847  0.00  0.00    +0.000 C 
ATOM      2  C   UNL     1       5.724   4.237  19.281  0.00  0.00    +0.000 C 
ATOM      3  C   UNL     1       6.691   5.411  19.348  0.00  0.00    +0.000 C 
ATOM      4  O   UNL     1       7.526   5.822  20.124  0.00  0.00    +0.000 OA
ATOM      5  N   UNL     1       6.269   5.882  18.142  0.00  0.00    +0.000 N 
ATOM      6  C   UNL     1       6.738   6.915  17.356  0.00  0.00    +0.000 C 
ATOM      7  O   UNL     1       6.386   7.097  16.197  0.00  0.00    +0.000 OA
ATOM      8  N   UNL     1       7.655   7.735  17.996  0.00  0.00    +0.000 N 
ATOM      9  H   UNL     1       8.120   7.341  18.807  0.00  0.00    +0.000 HD
ENDROOT
BRANCH   1  10
ATOM     10  S   UNL     1       3.668   5.232  17.661  0.00  0.00    +0.000 S 
BRANCH  10  16
ATOM     11  C   UNL     1       2.266   2.992  18.916  0.00  0.00    +0.000 A 
ATOM     12  C   UNL     1       1.572   2.507  20.051  0.00  0.00    +0.000 A 
ATOM     13  C   UNL     1       1.321   3.318  21.155  0.00  0.00    +0.000 A 
ATOM     14  C   UNL     1       1.699   4.648  21.113  0.00  0.00    +0.000 A 
ATOM     15  C   UNL     1       2.330   5.153  19.973  0.00  0.00    +0.000 A 
ATOM     16  C   UNL     1       2.649   4.346  18.855  0.00  0.00    +0.000 A 
BRANCH  11  18
ATOM     17  C   UNL     1       3.718   1.345  18.068  0.00  0.00    +0.000 C 
ATOM     18  O   UNL     1       2.551   2.152  17.869  0.00  0.00    +0.000 OA
ENDBRANCH  11  18
ENDBRANCH  10  16
ENDBRANCH   1  10
BRANCH   8  19
ATOM     19  C   UNL     1       8.313   8.853  17.341  0.00  0.00    +0.000 C 
BRANCH  19  20
ATOM     20  C   UNL     1       8.766   9.934  18.306  0.00  0.00    +0.000 A 
ATOM     21  C   UNL     1       8.853  11.269  17.882  0.00  0.00    +0.000 A 
ATOM     22  C   UNL     1       9.223  12.289  18.771  0.00  0.00    +0.000 A 
ATOM     23  C   UNL     1       9.501  11.985  20.100  0.00  0.00    +0.000 A 
ATOM     24  C   UNL     1       9.402  10.670  20.544  0.00  0.00    +0.000 A 
ATOM     25  C   UNL     1       9.028   9.653  19.658  0.00  0.00    +0.000 A 
ENDBRANCH  19  20
ENDBRANCH   8  19
TORSDOF 5
ENDMDL
MODEL 5
REMARK VINA RESULT:      -7.4      2.438      4.164
REMARK  Name = 
REMARK  6 active torsions:
REMARK  status: ('A' for Active; 'I' for Inactive)
REMARK    1  A    between atoms: C_1  and  O_2
REMARK    2  A    between atoms: O_2  and  C_3
REMARK    3  A    between atoms: C_8  and  S_9
REMARK    4  A    between atoms: S_9  and  C_10
REMARK    5  A    between atoms: N_17  and  C_18
REMARK    6  A    between atoms: C_18  and  C_19
REMARK                            x       y       z     vdW  Elec       q    Type
REMARK                         _______ _______ _______ _____ _____    ______ ____
ROOT
ATOM      1  C   UNL     1       6.184   6.092  18.004  0.00  0.00    +0.000 C 
ATOM      2  C   UNL     1       4.989   7.045  17.770  0.00  0.00    +0.000 C 
ATOM      3  C   UNL     1       5.181   6.765  16.287  0.00  0.00    +0.000 C 
ATOM      4  O   UNL     1       4.716   7.174  15.245  0.00  0.00    +0.000 OA
ATOM      5  N   UNL     1       6.131   5.824  16.543  0.00  0.00    +0.000 N 
ATOM      6  C   UNL     1       6.957   5.114  15.697  0.00  0.00    +0.000 C 
ATOM      7  O   UNL     1       7.908   4.444  16.084  0.00  0.00    +0.000 OA
ATOM      8  N   UNL     1       6.619   5.227  14.357  0.00  0.00    +0.000 N 
ATOM      9  H   UNL     1       6.049   6.027  14.105  0.00  0.00    +0.000 HD
ENDROOT
BRANCH   1  10
ATOM     10  S   UNL     1       5.724   4.615  18.950  0.00  0.00    +0.000 S 
BRANCH  10  16
ATOM     11  C   UNL     1       2.823   4.851  19.247  0.00  0.00    +0.000 A 
ATOM     12  C   UNL     1       1.543   4.487  18.764  0.00  0.00    +0.000 A 
ATOM     13  C   UNL     1       1.389   3.609  17.694  0.00  0.00    +0.000 A 
ATOM     14  C   UNL     1       2.512   3.028  17.133  0.00  0.00    +0.000 A 
ATOM     15  C   UNL     1       3.776   3.334  17.641  0.00  0.00    +0.000 A 
ATOM     16  C   UNL     1       3.975   4.262  18.692  0.00  0.00    +0.000 A 
BRANCH  11  18
ATOM     17  C   UNL     1       2.048   6.878  20.160  0.00  0.00    +0.000 C 
ATOM     18  O   UNL     1       2.944   5.764  20.264  0.00  0.00    +0.000 OA
ENDBRANCH  11  18
ENDBRANCH  10  16
ENDBRANCH   1  10
BRANCH   8  19
ATOM     19  C   UNL     1       7.384   4.603  13.290  0.00  0.00    +0.000 C 
BRANCH  19  20
ATOM     20  C   UNL     1       6.560   3.655  12.436  0.00  0.00    +0.000 A 
ATOM     21  C   UNL     1       7.170   2.556  11.812  0.00  0.00    +0.000 A 
ATOM     22  C   UNL     1       6.419   1.642  11.059  0.00  0.00    +0.000 A 
ATOM     23  C   UNL     1       5.045   1.813  10.929  0.00  0.00    +0.000 A 
ATOM     24  C   UNL     1       4.419   2.887  11.555  0.00  0.00    +0.000 A 
ATOM     25  C   UNL     1       5.168   3.795  12.311  0.00  0.00    +0.000 A 
ENDBRANCH  19  20
ENDBRANCH   8  19
TORSDOF 5
ENDMDL
MODEL 6
REMARK VINA RESULT:      -7.4      2.139      7.896
REMARK  Name = 
REMARK  6 active torsions:
REMARK  status: ('A' for Active; 'I' for Inactive)
REMARK    1  A    between atoms: C_1  and  O_2
REMARK    2  A    between atoms: O_2  and  C_3
REMARK    3  A    between atoms: C_8  and  S_9
REMARK    4  A    between atoms: S_9  and  C_10
REMARK    5  A    between atoms: N_17  and  C_18
REMARK    6  A    between atoms: C_18  and  C_19
REMARK                            x       y       z     vdW  Elec       q    Type
REMARK                         _______ _______ _______ _____ _____    ______ ____
ROOT
ATOM      1  C   UNL     1       3.897   3.673  19.319  0.00  0.00    +0.000 C 
ATOM      2  C   UNL     1       2.905   2.866  20.189  0.00  0.00    +0.000 C 
ATOM      3  C   UNL     1       2.148   4.174  20.367  0.00  0.00    +0.000 C 
ATOM      4  O   UNL     1       1.201   4.563  21.016  0.00  0.00    +0.000 OA
ATOM      5  N   UNL     1       2.958   4.814  19.479  0.00  0.00    +0.000 N 
ATOM      6  C   UNL     1       3.039   6.143  19.120  0.00  0.00    +0.000 C 
ATOM      7  O   UNL     1       3.957   6.609  18.454  0.00  0.00    +0.000 OA
ATOM      8  N   UNL     1       1.986   6.916  19.584  0.00  0.00    +0.000 N 
ATOM      9  H   UNL     1       1.466   6.539  20.369  0.00  0.00    +0.000 HD
ENDROOT
BRANCH   1  10
ATOM     10  S   UNL     1       3.936   3.106  17.597  0.00  0.00    +0.000 S 
BRANCH  10  16
ATOM     11  C   UNL     1       6.481   4.475  17.147  0.00  0.00    +0.000 A 
ATOM     12  C   UNL     1       7.401   5.000  16.207  0.00  0.00    +0.000 A 
ATOM     13  C   UNL     1       7.143   4.974  14.839  0.00  0.00    +0.000 A 
ATOM     14  C   UNL     1       5.929   4.482  14.393  0.00  0.00    +0.000 A 
ATOM     15  C   UNL     1       4.990   4.017  15.316  0.00  0.00    +0.000 A 
ATOM     16  C   UNL     1       5.238   3.979  16.709  0.00  0.00    +0.000 A 
BRANCH  11  18
ATOM     17  C   UNL     1       7.473   5.637  18.938  0.00  0.00    +0.000 C 
ATOM     18  O   UNL     1       6.790   4.462  18.484  0.00  0.00    +0.000 OA
ENDBRANCH  11  18
ENDBRANCH  10  16
ENDBRANCH   1  10
BRANCH   8  19
ATOM     19  C   UNL     1       1.896   8.350  19.365  0.00  0.00    +0.000 C 
BRANCH  19  20
ATOM     20  C   UNL     1       1.092   9.072  20.431  0.00  0.00    +0.000 A 
ATOM     21  C   UNL     1       0.194  10.088  20.071  0.00  0.00    +0.000 A 
ATOM     22  C   UNL     1      -0.594  10.734  21.035  0.00  0.00    +0.000 A 
ATOM     23  C   UNL     1      -0.498  10.363  22.372  0.00  0.00    +0.000 A 
ATOM     24  C   UNL     1       0.373   9.344  22.746  0.00  0.00    +0.000 A 
ATOM     25  C   UNL     1       1.155   8.697  21.783  0.00  0.00    +0.000 A 
ENDBRANCH  19  20
ENDBRANCH   8  19
TORSDOF 5
ENDMDL
MODEL 7
REMARK VINA RESULT:      -7.4      2.408      7.119
REMARK  Name = 
REMARK  6 active torsions:
REMARK  status: ('A' for Active; 'I' for Inactive)
REMARK    1  A    between atoms: C_1  and  O_2
REMARK    2  A    between atoms: O_2  and  C_3
REMARK    3  A    between atoms: C_8  and  S_9
REMARK    4  A    between atoms: S_9  and  C_10
REMARK    5  A    between atoms: N_17  and  C_18
REMARK    6  A    between atoms: C_18  and  C_19
REMARK                            x       y       z     vdW  Elec       q    Type
REMARK                         _______ _______ _______ _____ _____    ______ ____
ROOT
ATOM      1  C   UNL     1       2.753   3.318  19.381  0.00  0.00    +0.000 C 
ATOM      2  C   UNL     1       1.757   2.667  18.394  0.00  0.00    +0.000 C 
ATOM      3  C   UNL     1       1.524   4.072  17.855  0.00  0.00    +0.000 C 
ATOM      4  O   UNL     1       0.780   4.597  17.056  0.00  0.00    +0.000 OA
ATOM      5  N   UNL     1       2.513   4.583  18.640  0.00  0.00    +0.000 N 
ATOM      6  C   UNL     1       2.911   5.884  18.866  0.00  0.00    +0.000 C 
ATOM      7  O   UNL     1       3.687   6.208  19.757  0.00  0.00    +0.000 OA
ATOM      8  N   UNL     1       2.346   6.803  17.995  0.00  0.00    +0.000 N 
ATOM      9  H   UNL     1       1.498   6.510  17.522  0.00  0.00    +0.000 HD
ENDROOT
BRANCH   1  10
ATOM     10  S   UNL     1       4.455   2.739  19.138  0.00  0.00    +0.000 S 
BRANCH  10  16
ATOM     11  C   UNL     1       6.365   4.683  18.076  0.00  0.00    +0.000 A 
ATOM     12  C   UNL     1       6.927   5.297  16.931  0.00  0.00    +0.000 A 
ATOM     13  C   UNL     1       6.485   4.990  15.647  0.00  0.00    +0.000 A 
ATOM     14  C   UNL     1       5.425   4.114  15.491  0.00  0.00    +0.000 A 
ATOM     15  C   UNL     1       4.823   3.550  16.618  0.00  0.00    +0.000 A 
ATOM     16  C   UNL     1       5.280   3.797  17.935  0.00  0.00    +0.000 A 
BRANCH  11  18
ATOM     17  C   UNL     1       7.923   5.926  19.329  0.00  0.00    +0.000 C 
ATOM     18  O   UNL     1       6.862   4.962  19.325  0.00  0.00    +0.000 OA
ENDBRANCH  11  18
ENDBRANCH  10  16
ENDBRANCH   1  10
BRANCH   8  19
ATOM     19  C   UNL     1       2.588   8.234  18.085  0.00  0.00    +0.000 C 
BRANCH  19  20
ATOM     20  C   UNL     1       1.462   8.991  18.767  0.00  0.00    +0.000 A 
ATOM     21  C   UNL     1       0.579   9.775  18.008  0.00  0.00    +0.000 A 
ATOM     22  C   UNL     1      -0.496  10.444  18.612  0.00  0.00    +0.000 A 
ATOM     23  C   UNL     1      -0.705  10.328  19.982  0.00  0.00    +0.000 A 
ATOM     24  C   UNL     1       0.149   9.540  20.748  0.00  0.00    +0.000 A 
ATOM     25  C   UNL     1       1.218   8.869  20.144  0.00  0.00    +0.000 A 
ENDBRANCH  19  20
ENDBRANCH   8  19
TORSDOF 5
ENDMDL
MODEL 8
REMARK VINA RESULT:      -7.3      2.168      7.713
REMARK  Name = 
REMARK  6 active torsions:
REMARK  status: ('A' for Active; 'I' for Inactive)
REMARK    1  A    between atoms: C_1  and  O_2
REMARK    2  A    between atoms: O_2  and  C_3
REMARK    3  A    between atoms: C_8  and  S_9
REMARK    4  A    between atoms: S_9  and  C_10
REMARK    5  A    between atoms: N_17  and  C_18
REMARK    6  A    between atoms: C_18  and  C_19
REMARK                            x       y       z     vdW  Elec       q    Type
REMARK                         _______ _______ _______ _____ _____    ______ ____
ROOT
ATOM      1  C   UNL     1       3.942   4.825  19.520  0.00  0.00    +0.000 C 
ATOM      2  C   UNL     1       2.927   4.382  20.600  0.00  0.00    +0.000 C 
ATOM      3  C   UNL     1       2.171   5.662  20.276  0.00  0.00    +0.000 C 
ATOM      4  O   UNL     1       1.211   6.255  20.719  0.00  0.00    +0.000 OA
ATOM      5  N   UNL     1       3.004   5.943  19.237  0.00  0.00    +0.000 N 
ATOM      6  C   UNL     1       3.099   7.052  18.423  0.00  0.00    +0.000 C 
ATOM      7  O   UNL     1       4.034   7.251  17.656  0.00  0.00    +0.000 OA
ATOM      8  N   UNL     1       2.038   7.936  18.553  0.00  0.00    +0.000 N 
ATOM      9  H   UNL     1       1.499   7.865  19.409  0.00  0.00    +0.000 HD
ENDROOT
BRANCH   1  10
ATOM     10  S   UNL     1       4.019   3.674  18.120  0.00  0.00    +0.000 S 
BRANCH  10  16
ATOM     11  C   UNL     1       6.648   4.499  17.139  0.00  0.00    +0.000 A 
ATOM     12  C   UNL     1       7.464   4.786  16.019  0.00  0.00    +0.000 A 
ATOM     13  C   UNL     1       6.965   4.738  14.720  0.00  0.00    +0.000 A 
ATOM     14  C   UNL     1       5.623   4.469  14.524  0.00  0.00    +0.000 A 
ATOM     15  C   UNL     1       4.795   4.243  15.627  0.00  0.00    +0.000 A 
ATOM     16  C   UNL     1       5.278   4.231  16.957  0.00  0.00    +0.000 A 
BRANCH  11  18
ATOM     17  C   UNL     1       7.521   5.798  18.898  0.00  0.00    +0.000 C 
ATOM     18  O   UNL     1       7.184   4.496  18.403  0.00  0.00    +0.000 OA
ENDBRANCH  11  18
ENDBRANCH  10  16
ENDBRANCH   1  10
BRANCH   8  19
ATOM     19  C   UNL     1       1.959   9.194  17.829  0.00  0.00    +0.000 C 
BRANCH  19  20
ATOM     20  C   UNL     1       1.262  10.294  18.609  0.00  0.00    +0.000 A 
ATOM     21  C   UNL     1       0.203   9.983  19.476  0.00  0.00    +0.000 A 
ATOM     22  C   UNL     1      -0.422  10.977  20.242  0.00  0.00    +0.000 A 
ATOM     23  C   UNL     1       0.012  12.296  20.157  0.00  0.00    +0.000 A 
ATOM     24  C   UNL     1       1.073  12.621  19.317  0.00  0.00    +0.000 A 
ATOM     25  C   UNL     1       1.700  11.627  18.556  0.00  0.00    +0.000 A 
ENDBRANCH  19  20
ENDBRANCH   8  19
TORSDOF 5
ENDMDL
MODEL 9
REMARK VINA RESULT:      -7.1      2.197      7.188
REMARK  Name = 
REMARK  6 active torsions:
REMARK  status: ('A' for Active; 'I' for Inactive)
REMARK    1  A    between atoms: C_1  and  O_2
REMARK    2  A    between atoms: O_2  and  C_3
REMARK    3  A    between atoms: C_8  and  S_9
REMARK    4  A    between atoms: S_9  and  C_10
REMARK    5  A    between atoms: N_17  and  C_18
REMARK    6  A    between atoms: C_18  and  C_19
REMARK                            x       y       z     vdW  Elec       q    Type
REMARK                         _______ _______ _______ _____ _____    ______ ____
ROOT
ATOM      1  C   UNL     1       3.779   3.136  18.748  0.00  0.00    +0.000 C 
ATOM      2  C   UNL     1       2.594   2.152  18.611  0.00  0.00    +0.000 C 
ATOM      3  C   UNL     1       1.757   3.217  19.305  0.00  0.00    +0.000 C 
ATOM      4  O   UNL     1       0.628   3.307  19.739  0.00  0.00    +0.000 OA
ATOM      5  N   UNL     1       2.786   4.108  19.275  0.00  0.00    +0.000 N 
ATOM      6  C   UNL     1       2.918   5.362  19.833  0.00  0.00    +0.000 C 
ATOM      7  O   UNL     1       3.982   5.968  19.894  0.00  0.00    +0.000 OA
ATOM      8  N   UNL     1       1.733   5.883  20.330  0.00  0.00    +0.000 N 
ATOM      9  H   UNL     1       0.998   5.213  20.530  0.00  0.00    +0.000 HD
ENDROOT
BRANCH   1  10
ATOM     10  S   UNL     1       4.425   3.678  17.142  0.00  0.00    +0.000 S 
BRANCH  10  16
ATOM     11  C   UNL     1       6.375   5.785  16.579  0.00  0.00    +0.000 A 
ATOM     12  C   UNL     1       7.395   6.628  17.081  0.00  0.00    +0.000 A 
ATOM     13  C   UNL     1       7.824   6.548  18.403  0.00  0.00    +0.000 A 
ATOM     14  C   UNL     1       7.285   5.576  19.227  0.00  0.00    +0.000 A 
ATOM     15  C   UNL     1       6.321   4.700  18.725  0.00  0.00    +0.000 A 
ATOM     16  C   UNL     1       5.823   4.785  17.403  0.00  0.00    +0.000 A 
BRANCH  11  18
ATOM     17  C   UNL     1       6.482   4.972  14.372  0.00  0.00    +0.000 C 
ATOM     18  O   UNL     1       5.932   5.928  15.287  0.00  0.00    +0.000 OA
ENDBRANCH  11  18
ENDBRANCH  10  16
ENDBRANCH   1  10
BRANCH   8  19
ATOM     19  C   UNL     1       1.651   7.168  21.004  0.00  0.00    +0.000 C 
BRANCH  19  20
ATOM     20  C   UNL     1       1.273   8.310  20.077  0.00  0.00    +0.000 A 
ATOM     21  C   UNL     1       0.368   9.295  20.503  0.00  0.00    +0.000 A 
ATOM     22  C   UNL     1       0.043  10.383  19.680  0.00  0.00    +0.000 A 
ATOM     23  C   UNL     1       0.628  10.504  18.424  0.00  0.00    +0.000 A 
ATOM     24  C   UNL     1       1.541   9.547  17.992  0.00  0.00    +0.000 A 
ATOM     25  C   UNL     1       1.870   8.464  18.815  0.00  0.00    +0.000 A 
ENDBRANCH  19  20
ENDBRANCH   8  19
TORSDOF 5
ENDMDL
