MODEL 1
REMARK VINA RESULT:      -5.8      0.000      0.000
REMARK  Name = 
REMARK  4 active torsions:
REMARK  status: ('A' for Active; 'I' for Inactive)
REMARK    1  A    between atoms: C_1  and  C_2
REMARK    2  A    between atoms: C_2  and  C_3
REMARK    3  A    between atoms: C_2  and  S_4
REMARK    4  A    between atoms: S_4  and  N_7
REMARK                            x       y       z     vdW  Elec       q    Type
REMARK                         _______ _______ _______ _____ _____    ______ ____
ROOT
ATOM      1  N   UNL     1       5.877   5.532  17.863  0.00  0.00    +0.000 N 
ATOM      2  C   UNL     1       6.813   5.629  18.900  0.00  0.00    +0.000 C 
ATOM      3  O   UNL     1       6.776   5.016  19.954  0.00  0.00    +0.000 OA
ATOM      4  C   UNL     1       7.867   6.647  18.590  0.00  0.00    +0.000 C 
ATOM      5  C   UNL     1       7.481   7.193  17.238  0.00  0.00    +0.000 C 
ATOM      6  C   UNL     1       6.177   6.527  16.922  0.00  0.00    +0.000 C 
ATOM      7  O   UNL     1       5.483   6.839  15.968  0.00  0.00    +0.000 OA
ENDROOT
BRANCH   1   8
ATOM      8  S   UNL     1       4.663   4.417  17.750  0.00  0.00    +0.000 S 
ATOM      9  O   UNL     1       4.760   3.512  18.878  0.00  0.00    +0.000 OA
ATOM     10  O   UNL     1       4.672   3.860  16.412  0.00  0.00    +0.000 OA
BRANCH   8  12
ATOM     11  C   UNL     1       1.936   4.449  17.806  0.00  0.00    +0.000 C 
ATOM     12  C   UNL     1       3.142   5.383  17.925  0.00  0.00    +0.000 C 
ATOM     13  C   UNL     1       3.078   6.146  19.241  0.00  0.00    +0.000 C 
ENDBRANCH   8  12
ENDBRANCH   1   8
TORSDOF 2
ENDMDL
MODEL 2
REMARK VINA RESULT:      -5.7      2.619      3.079
REMARK  Name = 
REMARK  4 active torsions:
REMARK  status: ('A' for Active; 'I' for Inactive)
REMARK    1  A    between atoms: C_1  and  C_2
REMARK    2  A    between atoms: C_2  and  C_3
REMARK    3  A    between atoms: C_2  and  S_4
REMARK    4  A    between atoms: S_4  and  N_7
REMARK                            x       y       z     vdW  Elec       q    Type
REMARK                         _______ _______ _______ _____ _____    ______ ____
ROOT
ATOM      1  N   UNL     1       3.435   4.226  18.641  0.00  0.00    +0.000 N 
ATOM      2  C   UNL     1       4.643   3.766  19.182  0.00  0.00    +0.000 C 
ATOM      3  O   UNL     1       4.787   2.753  19.847  0.00  0.00    +0.000 OA
ATOM      4  C   UNL     1       5.765   4.717  18.898  0.00  0.00    +0.000 C 
ATOM      5  C   UNL     1       5.123   5.840  18.121  0.00  0.00    +0.000 C 
ATOM      6  C   UNL     1       3.664   5.504  18.113  0.00  0.00    +0.000 C 
ATOM      7  O   UNL     1       2.806   6.270  17.703  0.00  0.00    +0.000 OA
ENDROOT
BRANCH   1   8
ATOM      8  S   UNL     1       2.010   3.392  18.596  0.00  0.00    +0.000 S 
ATOM      9  O   UNL     1       2.305   1.972  18.590  0.00  0.00    +0.000 OA
ATOM     10  O   UNL     1       1.191   3.935  17.532  0.00  0.00    +0.000 OA
BRANCH   8  12
ATOM     11  C   UNL     1       1.493   2.692  21.182  0.00  0.00    +0.000 C 
ATOM     12  C   UNL     1       1.199   3.795  20.164  0.00  0.00    +0.000 C 
ATOM     13  C   UNL     1       1.635   5.144  20.721  0.00  0.00    +0.000 C 
ENDBRANCH   8  12
ENDBRANCH   1   8
TORSDOF 2
ENDMDL
MODEL 3
REMARK VINA RESULT:      -5.7      0.618      2.160
REMARK  Name = 
REMARK  4 active torsions:
REMARK  status: ('A' for Active; 'I' for Inactive)
REMARK    1  A    between atoms: C_1  and  C_2
REMARK    2  A    between atoms: C_2  and  C_3
REMARK    3  A    between atoms: C_2  and  S_4
REMARK    4  A    between atoms: S_4  and  N_7
REMARK                            x       y       z     vdW  Elec       q    Type
REMARK                         _______ _______ _______ _____ _____    ______ ____
ROOT
ATOM      1  N   UNL     1       6.347   5.661  17.986  0.00  0.00    +0.000 N 
ATOM      2  C   UNL     1       6.402   6.666  17.012  0.00  0.00    +0.000 C 
ATOM      3  O   UNL     1       5.716   6.721  16.004  0.00  0.00    +0.000 OA
ATOM      4  C   UNL     1       7.473   7.666  17.320  0.00  0.00    +0.000 C 
ATOM      5  C   UNL     1       8.098   7.170  18.600  0.00  0.00    +0.000 C 
ATOM      6  C   UNL     1       7.414   5.866  18.871  0.00  0.00    +0.000 C 
ATOM      7  O   UNL     1       7.769   5.097  19.750  0.00  0.00    +0.000 OA
ENDROOT
BRANCH   1   8
ATOM      8  S   UNL     1       5.203   4.473  18.094  0.00  0.00    +0.000 S 
ATOM      9  O   UNL     1       5.412   3.741  19.328  0.00  0.00    +0.000 OA
ATOM     10  O   UNL     1       5.183   3.738  16.846  0.00  0.00    +0.000 OA
BRANCH   8  12
ATOM     11  C   UNL     1       2.503   4.475  17.706  0.00  0.00    +0.000 C 
ATOM     12  C   UNL     1       3.634   5.366  18.223  0.00  0.00    +0.000 C 
ATOM     13  C   UNL     1       3.329   5.818  19.645  0.00  0.00    +0.000 C 
ENDBRANCH   8  12
ENDBRANCH   1   8
TORSDOF 2
ENDMDL
MODEL 4
REMARK VINA RESULT:      -5.7      1.354      2.493
REMARK  Name = 
REMARK  4 active torsions:
REMARK  status: ('A' for Active; 'I' for Inactive)
REMARK    1  A    between atoms: C_1  and  C_2
REMARK    2  A    between atoms: C_2  and  C_3
REMARK    3  A    between atoms: C_2  and  S_4
REMARK    4  A    between atoms: S_4  and  N_7
REMARK                            x       y       z     vdW  Elec       q    Type
REMARK                         _______ _______ _______ _____ _____    ______ ____
ROOT
ATOM      1  N   UNL     1       5.642   4.586  18.116  0.00  0.00    +0.000 N 
ATOM      2  C   UNL     1       5.847   4.654  16.732  0.00  0.00    +0.000 C 
ATOM      3  O   UNL     1       5.246   4.008  15.890  0.00  0.00    +0.000 OA
ATOM      4  C   UNL     1       6.963   5.592  16.391  0.00  0.00    +0.000 C 
ATOM      5  C   UNL     1       7.450   6.103  17.725  0.00  0.00    +0.000 C 
ATOM      6  C   UNL     1       6.650   5.338  18.734  0.00  0.00    +0.000 C 
ATOM      7  O   UNL     1       6.879   5.376  19.933  0.00  0.00    +0.000 OA
ENDROOT
BRANCH   1   8
ATOM      8  S   UNL     1       4.407   3.796  18.879  0.00  0.00    +0.000 S 
ATOM      9  O   UNL     1       4.974   2.875  19.844  0.00  0.00    +0.000 OA
ATOM     10  O   UNL     1       3.502   3.278  17.874  0.00  0.00    +0.000 OA
BRANCH   8  12
ATOM     11  C   UNL     1       2.964   6.110  18.786  0.00  0.00    +0.000 C 
ATOM     12  C   UNL     1       3.528   5.095  19.783  0.00  0.00    +0.000 C 
ATOM     13  C   UNL     1       2.406   4.549  20.655  0.00  0.00    +0.000 C 
ENDBRANCH   8  12
ENDBRANCH   1   8
TORSDOF 2
ENDMDL
MODEL 5
REMARK VINA RESULT:      -5.7      1.389      2.711
REMARK  Name = 
REMARK  4 active torsions:
REMARK  status: ('A' for Active; 'I' for Inactive)
REMARK    1  A    between atoms: C_1  and  C_2
REMARK    2  A    between atoms: C_2  and  C_3
REMARK    3  A    between atoms: C_2  and  S_4
REMARK    4  A    between atoms: S_4  and  N_7
REMARK                            x       y       z     vdW  Elec       q    Type
REMARK                         _______ _______ _______ _____ _____    ______ ____
ROOT
ATOM      1  N   UNL     1       5.653   4.762  18.266  0.00  0.00    +0.000 N 
ATOM      2  C   UNL     1       5.775   4.858  16.874  0.00  0.00    +0.000 C 
ATOM      3  O   UNL     1       5.081   4.277  16.055  0.00  0.00    +0.000 OA
ATOM      4  C   UNL     1       6.927   5.732  16.486  0.00  0.00    +0.000 C 
ATOM      5  C   UNL     1       7.529   6.171  17.798  0.00  0.00    +0.000 C 
ATOM      6  C   UNL     1       6.745   5.429  18.837  0.00  0.00    +0.000 C 
ATOM      7  O   UNL     1       7.050   5.417  20.019  0.00  0.00    +0.000 OA
ENDROOT
BRANCH   1   8
ATOM      8  S   UNL     1       4.418   4.032  19.086  0.00  0.00    +0.000 S 
ATOM      9  O   UNL     1       3.735   5.032  19.882  0.00  0.00    +0.000 OA
ATOM     10  O   UNL     1       4.940   2.854  19.749  0.00  0.00    +0.000 OA
BRANCH   8  12
ATOM     11  C   UNL     1       3.031   1.968  17.962  0.00  0.00    +0.000 C 
ATOM     12  C   UNL     1       3.286   3.467  17.791  0.00  0.00    +0.000 C 
ATOM     13  C   UNL     1       1.962   4.221  17.796  0.00  0.00    +0.000 C 
ENDBRANCH   8  12
ENDBRANCH   1   8
TORSDOF 2
ENDMDL
MODEL 6
REMARK VINA RESULT:      -5.7      2.344      2.982
REMARK  Name = 
REMARK  4 active torsions:
REMARK  status: ('A' for Active; 'I' for Inactive)
REMARK    1  A    between atoms: C_1  and  C_2
REMARK    2  A    between atoms: C_2  and  C_3
REMARK    3  A    between atoms: C_2  and  S_4
REMARK    4  A    between atoms: S_4  and  N_7
REMARK                            x       y       z     vdW  Elec       q    Type
REMARK                         _______ _______ _______ _____ _____    ______ ____
ROOT
ATOM      1  N   UNL     1       4.465   3.687  18.432  0.00  0.00    +0.000 N 
ATOM      2  C   UNL     1       5.529   4.551  18.722  0.00  0.00    +0.000 C 
ATOM      3  O   UNL     1       6.120   4.623  19.787  0.00  0.00    +0.000 OA
ATOM      4  C   UNL     1       5.832   5.451  17.564  0.00  0.00    +0.000 C 
ATOM      5  C   UNL     1       4.827   5.063  16.508  0.00  0.00    +0.000 C 
ATOM      6  C   UNL     1       3.953   4.047  17.178  0.00  0.00    +0.000 C 
ATOM      7  O   UNL     1       2.928   3.615  16.676  0.00  0.00    +0.000 OA
ENDROOT
BRANCH   1   8
ATOM      8  S   UNL     1       3.939   2.441  19.380  0.00  0.00    +0.000 S 
ATOM      9  O   UNL     1       4.933   2.187  20.404  0.00  0.00    +0.000 OA
ATOM     10  O   UNL     1       3.532   1.348  18.521  0.00  0.00    +0.000 OA
BRANCH   8  12
ATOM     11  C   UNL     1       1.213   2.525  19.473  0.00  0.00    +0.000 C 
ATOM     12  C   UNL     1       2.448   3.082  20.184  0.00  0.00    +0.000 C 
ATOM     13  C   UNL     1       2.388   2.744  21.668  0.00  0.00    +0.000 C 
ENDBRANCH   8  12
ENDBRANCH   1   8
TORSDOF 2
ENDMDL
MODEL 7
REMARK VINA RESULT:      -5.6      2.282      3.284
REMARK  Name = 
REMARK  4 active torsions:
REMARK  status: ('A' for Active; 'I' for Inactive)
REMARK    1  A    between atoms: C_1  and  C_2
REMARK    2  A    between atoms: C_2  and  C_3
REMARK    3  A    between atoms: C_2  and  S_4
REMARK    4  A    between atoms: S_4  and  N_7
REMARK                            x       y       z     vdW  Elec       q    Type
REMARK                         _______ _______ _______ _____ _____    ______ ____
ROOT
ATOM      1  N   UNL     1       4.236   4.201  18.481  0.00  0.00    +0.000 N 
ATOM      2  C   UNL     1       3.364   5.102  17.858  0.00  0.00    +0.000 C 
ATOM      3  O   UNL     1       2.193   4.890  17.588  0.00  0.00    +0.000 OA
ATOM      4  C   UNL     1       4.064   6.374  17.490  0.00  0.00    +0.000 C 
ATOM      5  C   UNL     1       5.488   6.168  17.945  0.00  0.00    +0.000 C 
ATOM      6  C   UNL     1       5.523   4.755  18.439  0.00  0.00    +0.000 C 
ATOM      7  O   UNL     1       6.556   4.182  18.746  0.00  0.00    +0.000 OA
ENDROOT
BRANCH   1   8
ATOM      8  S   UNL     1       3.815   2.764  19.178  0.00  0.00    +0.000 S 
ATOM      9  O   UNL     1       4.852   2.383  20.117  0.00  0.00    +0.000 OA
ATOM     10  O   UNL     1       3.452   1.832  18.130  0.00  0.00    +0.000 OA
BRANCH   8  12
ATOM     11  C   UNL     1       1.131   2.388  19.492  0.00  0.00    +0.000 C 
ATOM     12  C   UNL     1       2.311   3.138  20.114  0.00  0.00    +0.000 C 
ATOM     13  C   UNL     1       2.432   2.781  21.590  0.00  0.00    +0.000 C 
ENDBRANCH   8  12
ENDBRANCH   1   8
TORSDOF 2
ENDMDL
MODEL 8
REMARK VINA RESULT:      -5.6      2.293      4.963
REMARK  Name = 
REMARK  4 active torsions:
REMARK  status: ('A' for Active; 'I' for Inactive)
REMARK    1  A    between atoms: C_1  and  C_2
REMARK    2  A    between atoms: C_2  and  C_3
REMARK    3  A    between atoms: C_2  and  S_4
REMARK    4  A    between atoms: S_4  and  N_7
REMARK                            x       y       z     vdW  Elec       q    Type
REMARK                         _______ _______ _______ _____ _____    ______ ____
ROOT
ATOM      1  N   UNL     1       2.757   4.035  18.995  0.00  0.00    +0.000 N 
ATOM      2  C   UNL     1       1.999   3.229  18.135  0.00  0.00    +0.000 C 
ATOM      3  O   UNL     1       2.203   3.072  16.942  0.00  0.00    +0.000 OA
ATOM      4  C   UNL     1       0.838   2.611  18.848  0.00  0.00    +0.000 C 
ATOM      5  C   UNL     1       0.942   3.129  20.262  0.00  0.00    +0.000 C 
ATOM      6  C   UNL     1       2.089   4.090  20.225  0.00  0.00    +0.000 C 
ATOM      7  O   UNL     1       2.375   4.822  21.160  0.00  0.00    +0.000 OA
ENDROOT
BRANCH   1   8
ATOM      8  S   UNL     1       4.199   4.755  18.634  0.00  0.00    +0.000 S 
ATOM      9  O   UNL     1       5.035   3.794  17.941  0.00  0.00    +0.000 OA
ATOM     10  O   UNL     1       4.713   5.384  19.833  0.00  0.00    +0.000 OA
BRANCH   8  12
ATOM     11  C   UNL     1       2.916   7.121  18.191  0.00  0.00    +0.000 C 
ATOM     12  C   UNL     1       3.769   6.075  17.472  0.00  0.00    +0.000 C 
ATOM     13  C   UNL     1       4.994   6.740  16.857  0.00  0.00    +0.000 C 
ENDBRANCH   8  12
ENDBRANCH   1   8
TORSDOF 2
ENDMDL
MODEL 9
REMARK VINA RESULT:      -5.6      2.645      4.852
REMARK  Name = 
REMARK  4 active torsions:
REMARK  status: ('A' for Active; 'I' for Inactive)
REMARK    1  A    between atoms: C_1  and  C_2
REMARK    2  A    between atoms: C_2  and  C_3
REMARK    3  A    between atoms: C_2  and  S_4
REMARK    4  A    between atoms: S_4  and  N_7
REMARK                            x       y       z     vdW  Elec       q    Type
REMARK                         _______ _______ _______ _____ _____    ______ ____
ROOT
ATOM      1  N   UNL     1       3.026   3.708  19.194  0.00  0.00    +0.000 N 
ATOM      2  C   UNL     1       2.032   4.098  20.100  0.00  0.00    +0.000 C 
ATOM      3  O   UNL     1       2.134   4.983  20.934  0.00  0.00    +0.000 OA
ATOM      4  C   UNL     1       0.810   3.240  19.972  0.00  0.00    +0.000 C 
ATOM      5  C   UNL     1       1.153   2.253  18.884  0.00  0.00    +0.000 C 
ATOM      6  C   UNL     1       2.582   2.547  18.547  0.00  0.00    +0.000 C 
ATOM      7  O   UNL     1       3.251   1.841  17.808  0.00  0.00    +0.000 OA
ENDROOT
BRANCH   1   8
ATOM      8  S   UNL     1       4.449   4.500  18.911  0.00  0.00    +0.000 S 
ATOM      9  O   UNL     1       5.546   3.592  19.182  0.00  0.00    +0.000 OA
ATOM     10  O   UNL     1       4.413   5.772  19.604  0.00  0.00    +0.000 OA
BRANCH   8  12
ATOM     11  C   UNL     1       4.591   6.354  16.915  0.00  0.00    +0.000 C 
ATOM     12  C   UNL     1       4.427   4.849  17.135  0.00  0.00    +0.000 C 
ATOM     13  C   UNL     1       5.508   4.093  16.374  0.00  0.00    +0.000 C 
ENDBRANCH   8  12
ENDBRANCH   1   8
TORSDOF 2
ENDMDL
