MODEL 1
REMARK VINA RESULT:      -6.1      0.000      0.000
REMARK  Name = 
REMARK  11 active torsions:
REMARK  status: ('A' for Active; 'I' for Inactive)
REMARK    1  A    between atoms: C_1  and  C_2
REMARK    2  A    between atoms: C_2  and  C_3
REMARK    3  A    between atoms: C_3  and  C_4
REMARK    4  A    between atoms: C_4  and  C_11
REMARK    5  A    between atoms: C_5  and  CA_6
REMARK    6  A    between atoms: CA_6  and  N_7
REMARK    7  A    between atoms: CA_6  and  C_8
REMARK    8  A    between atoms: C_8  and  OXT_10
REMARK    9  A    between atoms: C_11  and  P_12
REMARK   10  A    between atoms: P_12  and  O_14
REMARK   11  A    between atoms: P_12  and  O_15
REMARK                            x       y       z     vdW  Elec       q    Type
REMARK                         _______ _______ _______ _____ _____    ______ ____
ROOT
ATOM      1  C   UNL     1       5.487   4.467  16.930  0.00  0.00    +0.000 C 
ATOM      2  C   UNL     1       4.475   4.042  17.721  0.00  0.00    +0.000 C 
ENDROOT
BRANCH   1   3
ATOM      3  C   UNL     1       5.952   3.723  15.686  0.00  0.00    +0.000 C 
BRANCH   3   5
ATOM      4  C   UNL     1       6.115   3.723  13.153  0.00  0.00    +0.000 C 
ATOM      5  C   UNL     1       5.850   4.555  14.402  0.00  0.00    +0.000 C 
ENDBRANCH   3   5
ENDBRANCH   1   3
BRANCH   2   6
ATOM      6  CA  UNL     1       3.723   2.734  17.650  0.00  0.00    +0.000 C 
BRANCH   6   7
ATOM      7  N   UNL     1       4.226   1.832  18.725  0.00  0.00    +0.000 NA
ATOM      8  H1  UNL     1       4.436   2.407  19.547  0.00  0.00    +0.000 HD
ATOM      9  H2  UNL     1       5.139   1.482  18.422  0.00  0.00    +0.000 HD
ENDBRANCH   6   7
BRANCH   6  10
ATOM     10  C   UNL     1       2.176   2.840  17.818  0.00  0.00    +0.000 C 
ATOM     11  O   UNL     1       1.467   3.746  17.410  0.00  0.00    +0.000 OA
BRANCH  10  12
ATOM     12  OXT UNL     1       1.690   1.730  18.437  0.00  0.00    +0.000 OA
ATOM     13  HXT UNL     1       1.699   1.922  19.411  0.00  0.00    +0.000 HD
ENDBRANCH  10  12
ENDBRANCH   6  10
ENDBRANCH   2   6
BRANCH   1  14
ATOM     14  C   UNL     1       6.266   5.742  17.285  0.00  0.00    +0.000 C 
BRANCH  14  15
ATOM     15  P   UNL     1       7.141   5.608  18.887  0.00  0.00    +0.000 P 
ATOM     16  O   UNL     1       8.006   4.451  18.372  0.00  0.00    +0.000 OA
BRANCH  15  17
ATOM     17  O   UNL     1       8.035   6.938  18.552  0.00  0.00    +0.000 OA
ATOM     18  H   UNL     1       8.526   6.804  17.715  0.00  0.00    +0.000 HD
ENDBRANCH  15  17
BRANCH  15  19
ATOM     19  O   UNL     1       7.969   5.483  20.400  0.00  0.00    +0.000 OA
ATOM     20  H   UNL     1       7.406   4.883  20.935  0.00  0.00    +0.000 HD
ENDBRANCH  15  19
ENDBRANCH  14  15
ENDBRANCH   1  14
TORSDOF 10
ENDMDL
MODEL 2
REMARK VINA RESULT:      -5.9      0.995      1.049
REMARK  Name = 
REMARK  11 active torsions:
REMARK  status: ('A' for Active; 'I' for Inactive)
REMARK    1  A    between atoms: C_1  and  C_2
REMARK    2  A    between atoms: C_2  and  C_3
REMARK    3  A    between atoms: C_3  and  C_4
REMARK    4  A    between atoms: C_4  and  C_11
REMARK    5  A    between atoms: C_5  and  CA_6
REMARK    6  A    between atoms: CA_6  and  N_7
REMARK    7  A    between atoms: CA_6  and  C_8
REMARK    8  A    between atoms: C_8  and  OXT_10
REMARK    9  A    between atoms: C_11  and  P_12
REMARK   10  A    between atoms: P_12  and  O_14
REMARK   11  A    between atoms: P_12  and  O_15
REMARK                            x       y       z     vdW  Elec       q    Type
REMARK                         _______ _______ _______ _____ _____    ______ ____
ROOT
ATOM      1  C   UNL     1       5.495   5.505  16.767  0.00  0.00    +0.000 C 
ATOM      2  C   UNL     1       4.632   4.879  17.600  0.00  0.00    +0.000 C 
ENDROOT
BRANCH   1   3
ATOM      3  C   UNL     1       5.489   5.319  15.256  0.00  0.00    +0.000 C 
BRANCH   3   5
ATOM      4  C   UNL     1       6.088   3.735  13.365  0.00  0.00    +0.000 C 
ATOM      5  C   UNL     1       6.428   4.208  14.774  0.00  0.00    +0.000 C 
ENDBRANCH   3   5
ENDBRANCH   1   3
BRANCH   2   6
ATOM      6  CA  UNL     1       3.630   3.800  17.266  0.00  0.00    +0.000 C 
BRANCH   6   7
ATOM      7  N   UNL     1       4.174   2.485  17.712  0.00  0.00    +0.000 NA
ATOM      8  H1  UNL     1       3.434   1.994  18.223  0.00  0.00    +0.000 HD
ATOM      9  H2  UNL     1       4.886   2.678  18.421  0.00  0.00    +0.000 HD
ENDBRANCH   6   7
BRANCH   6  10
ATOM     10  C   UNL     1       2.222   3.967  17.916  0.00  0.00    +0.000 C 
ATOM     11  O   UNL     1       1.163   4.083  17.322  0.00  0.00    +0.000 OA
BRANCH  10  12
ATOM     12  OXT UNL     1       2.317   3.897  19.272  0.00  0.00    +0.000 OA
ATOM     13  HXT UNL     1       1.399   3.735  19.613  0.00  0.00    +0.000 HD
ENDBRANCH  10  12
ENDBRANCH   6  10
ENDBRANCH   2   6
BRANCH   1  14
ATOM     14  C   UNL     1       6.583   6.432  17.329  0.00  0.00    +0.000 C 
BRANCH  14  15
ATOM     15  P   UNL     1       7.272   5.828  18.913  0.00  0.00    +0.000 P 
ATOM     16  O   UNL     1       7.947   4.639  18.220  0.00  0.00    +0.000 OA
BRANCH  15  17
ATOM     17  O   UNL     1       8.424   6.990  18.898  0.00  0.00    +0.000 OA
ATOM     18  H   UNL     1       9.092   6.784  18.212  0.00  0.00    +0.000 HD
ENDBRANCH  15  17
BRANCH  15  19
ATOM     19  O   UNL     1       7.924   5.257  20.410  0.00  0.00    +0.000 OA
ATOM     20  H   UNL     1       7.621   4.326  20.466  0.00  0.00    +0.000 HD
ENDBRANCH  15  19
ENDBRANCH  14  15
ENDBRANCH   1  14
TORSDOF 10
ENDMDL
MODEL 3
REMARK VINA RESULT:      -5.9      3.037      5.668
REMARK  Name = 
REMARK  11 active torsions:
REMARK  status: ('A' for Active; 'I' for Inactive)
REMARK    1  A    between atoms: C_1  and  C_2
REMARK    2  A    between atoms: C_2  and  C_3
REMARK    3  A    between atoms: C_3  and  C_4
REMARK    4  A    between atoms: C_4  and  C_11
REMARK    5  A    between atoms: C_5  and  CA_6
REMARK    6  A    between atoms: CA_6  and  N_7
REMARK    7  A    between atoms: CA_6  and  C_8
REMARK    8  A    between atoms: C_8  and  OXT_10
REMARK    9  A    between atoms: C_11  and  P_12
REMARK   10  A    between atoms: P_12  and  O_14
REMARK   11  A    between atoms: P_12  and  O_15
REMARK                            x       y       z     vdW  Elec       q    Type
REMARK                         _______ _______ _______ _____ _____    ______ ____
ROOT
ATOM      1  C   UNL     1       4.237   5.346  18.847  0.00  0.00    +0.000 C 
ATOM      2  C   UNL     1       5.498   5.000  19.196  0.00  0.00    +0.000 C 
ENDROOT
BRANCH   1   3
ATOM      3  C   UNL     1       3.912   6.489  17.895  0.00  0.00    +0.000 C 
BRANCH   3   5
ATOM      4  C   UNL     1       2.470   8.577  17.828  0.00  0.00    +0.000 C 
ATOM      5  C   UNL     1       2.513   7.079  18.105  0.00  0.00    +0.000 C 
ENDBRANCH   3   5
ENDBRANCH   1   3
BRANCH   2   6
ATOM      6  CA  UNL     1       6.786   5.717  18.868  0.00  0.00    +0.000 C 
BRANCH   6   7
ATOM      7  N   UNL     1       7.767   5.465  19.962  0.00  0.00    +0.000 NA
ATOM      8  H1  UNL     1       8.703   5.429  19.546  0.00  0.00    +0.000 HD
ATOM      9  H2  UNL     1       7.604   4.513  20.300  0.00  0.00    +0.000 HD
ENDBRANCH   6   7
BRANCH   6  10
ATOM     10  C   UNL     1       7.466   5.298  17.528  0.00  0.00    +0.000 C 
ATOM     11  O   UNL     1       7.462   5.935  16.488  0.00  0.00    +0.000 OA
BRANCH  10  12
ATOM     12  OXT UNL     1       8.140   4.126  17.687  0.00  0.00    +0.000 OA
ATOM     13  HXT UNL     1       9.001   4.227  17.202  0.00  0.00    +0.000 HD
ENDBRANCH  10  12
ENDBRANCH   6  10
ENDBRANCH   2   6
BRANCH   1  14
ATOM     14  C   UNL     1       3.035   4.604  19.448  0.00  0.00    +0.000 C 
BRANCH  14  15
ATOM     15  P   UNL     1       2.657   3.046  18.566  0.00  0.00    +0.000 P 
ATOM     16  O   UNL     1       1.940   2.469  19.793  0.00  0.00    +0.000 OA
BRANCH  15  17
ATOM     17  O   UNL     1       1.457   3.771  17.722  0.00  0.00    +0.000 OA
ATOM     18  H   UNL     1       1.803   4.090  16.864  0.00  0.00    +0.000 HD
ENDBRANCH  15  17
BRANCH  15  19
ATOM     19  O   UNL     1       2.299   1.573  17.732  0.00  0.00    +0.000 OA
ATOM     20  H   UNL     1       1.537   1.198  18.222  0.00  0.00    +0.000 HD
ENDBRANCH  15  19
ENDBRANCH  14  15
ENDBRANCH   1  14
TORSDOF 10
ENDMDL
MODEL 4
REMARK VINA RESULT:      -5.8      2.500      3.485
REMARK  Name = 
REMARK  11 active torsions:
REMARK  status: ('A' for Active; 'I' for Inactive)
REMARK    1  A    between atoms: C_1  and  C_2
REMARK    2  A    between atoms: C_2  and  C_3
REMARK    3  A    between atoms: C_3  and  C_4
REMARK    4  A    between atoms: C_4  and  C_11
REMARK    5  A    between atoms: C_5  and  CA_6
REMARK    6  A    between atoms: CA_6  and  N_7
REMARK    7  A    between atoms: CA_6  and  C_8
REMARK    8  A    between atoms: C_8  and  OXT_10
REMARK    9  A    between atoms: C_11  and  P_12
REMARK   10  A    between atoms: P_12  and  O_14
REMARK   11  A    between atoms: P_12  and  O_15
REMARK                            x       y       z     vdW  Elec       q    Type
REMARK                         _______ _______ _______ _____ _____    ______ ____
ROOT
ATOM      1  C   UNL     1       3.959   5.545  17.560  0.00  0.00    +0.000 C 
ATOM      2  C   UNL     1       3.590   4.244  17.556  0.00  0.00    +0.000 C 
ENDROOT
BRANCH   1   3
ATOM      3  C   UNL     1       3.254   6.617  18.379  0.00  0.00    +0.000 C 
BRANCH   3   5
ATOM      4  C   UNL     1       1.805   8.649  17.911  0.00  0.00    +0.000 C 
ATOM      5  C   UNL     1       3.143   7.965  17.655  0.00  0.00    +0.000 C 
ENDBRANCH   3   5
ENDBRANCH   1   3
BRANCH   2   6
ATOM      6  CA  UNL     1       2.375   3.618  18.199  0.00  0.00    +0.000 C 
BRANCH   6   7
ATOM      7  N   UNL     1       1.184   3.898  17.347  0.00  0.00    +0.000 NA
ATOM      8  H1  UNL     1       0.540   3.105  17.433  0.00  0.00    +0.000 HD
ATOM      9  H2  UNL     1       1.495   3.866  16.373  0.00  0.00    +0.000 HD
ENDBRANCH   6   7
BRANCH   6  10
ATOM     10  C   UNL     1       2.446   2.073  18.407  0.00  0.00    +0.000 C 
ATOM     11  O   UNL     1       3.461   1.396  18.440  0.00  0.00    +0.000 OA
BRANCH  10  12
ATOM     12  OXT UNL     1       1.200   1.568  18.619  0.00  0.00    +0.000 OA
ATOM     13  HXT UNL     1       1.138   1.366  19.589  0.00  0.00    +0.000 HD
ENDBRANCH  10  12
ENDBRANCH   6  10
ENDBRANCH   2   6
BRANCH   1  14
ATOM     14  C   UNL     1       5.120   6.025  16.676  0.00  0.00    +0.000 C 
BRANCH  14  15
ATOM     15  P   UNL     1       6.651   5.059  16.942  0.00  0.00    +0.000 P 
ATOM     16  O   UNL     1       7.467   6.024  16.073  0.00  0.00    +0.000 OA
BRANCH  15  17
ATOM     17  O   UNL     1       6.816   5.666  18.453  0.00  0.00    +0.000 OA
ATOM     18  H   UNL     1       6.142   6.358  18.606  0.00  0.00    +0.000 HD
ENDBRANCH  15  17
BRANCH  15  19
ATOM     19  O   UNL     1       8.099   4.147  17.193  0.00  0.00    +0.000 OA
ATOM     20  H   UNL     1       8.638   4.323  16.392  0.00  0.00    +0.000 HD
ENDBRANCH  15  19
ENDBRANCH  14  15
ENDBRANCH   1  14
TORSDOF 10
ENDMDL
MODEL 5
REMARK VINA RESULT:      -5.8      2.656      3.572
REMARK  Name = 
REMARK  11 active torsions:
REMARK  status: ('A' for Active; 'I' for Inactive)
REMARK    1  A    between atoms: C_1  and  C_2
REMARK    2  A    between atoms: C_2  and  C_3
REMARK    3  A    between atoms: C_3  and  C_4
REMARK    4  A    between atoms: C_4  and  C_11
REMARK    5  A    between atoms: C_5  and  CA_6
REMARK    6  A    between atoms: CA_6  and  N_7
REMARK    7  A    between atoms: CA_6  and  C_8
REMARK    8  A    between atoms: C_8  and  OXT_10
REMARK    9  A    between atoms: C_11  and  P_12
REMARK   10  A    between atoms: P_12  and  O_14
REMARK   11  A    between atoms: P_12  and  O_15
REMARK                            x       y       z     vdW  Elec       q    Type
REMARK                         _______ _______ _______ _____ _____    ______ ____
ROOT
ATOM      1  C   UNL     1       4.582   4.487  18.557  0.00  0.00    +0.000 C 
ATOM      2  C   UNL     1       4.047   3.557  19.381  0.00  0.00    +0.000 C 
ENDROOT
BRANCH   1   3
ATOM      3  C   UNL     1       3.770   5.267  17.531  0.00  0.00    +0.000 C 
BRANCH   3   5
ATOM      4  C   UNL     1       2.538   6.812  19.124  0.00  0.00    +0.000 C 
ATOM      5  C   UNL     1       3.497   6.718  17.944  0.00  0.00    +0.000 C 
ENDBRANCH   3   5
ENDBRANCH   1   3
BRANCH   2   6
ATOM      6  CA  UNL     1       2.644   2.998  19.372  0.00  0.00    +0.000 C 
BRANCH   6   7
ATOM      7  N   UNL     1       2.668   1.655  18.724  0.00  0.00    +0.000 NA
ATOM      8  H1  UNL     1       2.335   1.763  17.761  0.00  0.00    +0.000 HD
ATOM      9  H2  UNL     1       1.948   1.088  19.179  0.00  0.00    +0.000 HD
ENDBRANCH   6   7
BRANCH   6  10
ATOM     10  C   UNL     1       1.980   2.828  20.773  0.00  0.00    +0.000 C 
ATOM     11  O   UNL     1       2.557   2.580  21.819  0.00  0.00    +0.000 OA
BRANCH  10  12
ATOM     12  OXT UNL     1       0.642   3.064  20.693  0.00  0.00    +0.000 OA
ATOM     13  HXT UNL     1       0.383   2.905  19.747  0.00  0.00    +0.000 HD
ENDBRANCH  10  12
ENDBRANCH   6  10
ENDBRANCH   2   6
BRANCH   1  14
ATOM     14  C   UNL     1       6.089   4.780  18.590  0.00  0.00    +0.000 C 
BRANCH  14  15
ATOM     15  P   UNL     1       6.785   5.074  16.924  0.00  0.00    +0.000 P 
ATOM     16  O   UNL     1       7.256   6.480  17.316  0.00  0.00    +0.000 OA
BRANCH  15  17
ATOM     17  O   UNL     1       8.077   4.127  17.255  0.00  0.00    +0.000 OA
ATOM     18  H   UNL     1       8.708   4.155  16.507  0.00  0.00    +0.000 HD
ENDBRANCH  15  17
BRANCH  15  19
ATOM     19  O   UNL     1       7.444   5.353  15.349  0.00  0.00    +0.000 OA
ATOM     20  H   UNL     1       7.074   6.221  15.082  0.00  0.00    +0.000 HD
ENDBRANCH  15  19
ENDBRANCH  14  15
ENDBRANCH   1  14
TORSDOF 10
ENDMDL
MODEL 6
REMARK VINA RESULT:      -5.8      3.126      5.199
REMARK  Name = 
REMARK  11 active torsions:
REMARK  status: ('A' for Active; 'I' for Inactive)
REMARK    1  A    between atoms: C_1  and  C_2
REMARK    2  A    between atoms: C_2  and  C_3
REMARK    3  A    between atoms: C_3  and  C_4
REMARK    4  A    between atoms: C_4  and  C_11
REMARK    5  A    between atoms: C_5  and  CA_6
REMARK    6  A    between atoms: CA_6  and  N_7
REMARK    7  A    between atoms: CA_6  and  C_8
REMARK    8  A    between atoms: C_8  and  OXT_10
REMARK    9  A    between atoms: C_11  and  P_12
REMARK   10  A    between atoms: P_12  and  O_14
REMARK   11  A    between atoms: P_12  and  O_15
REMARK                            x       y       z     vdW  Elec       q    Type
REMARK                         _______ _______ _______ _____ _____    ______ ____
ROOT
ATOM      1  C   UNL     1       4.402   4.659  17.454  0.00  0.00    +0.000 C 
ATOM      2  C   UNL     1       5.516   4.098  16.929  0.00  0.00    +0.000 C 
ENDROOT
BRANCH   1   3
ATOM      3  C   UNL     1       4.088   6.146  17.365  0.00  0.00    +0.000 C 
BRANCH   3   5
ATOM      4  C   UNL     1       2.454   7.986  17.991  0.00  0.00    +0.000 C 
ATOM      5  C   UNL     1       2.981   6.596  18.327  0.00  0.00    +0.000 C 
ENDBRANCH   3   5
ENDBRANCH   1   3
BRANCH   2   6
ATOM      6  CA  UNL     1       6.706   4.792  16.309  0.00  0.00    +0.000 C 
BRANCH   6   7
ATOM      7  N   UNL     1       7.950   4.261  16.936  0.00  0.00    +0.000 NA
ATOM      8  H1  UNL     1       8.643   4.123  16.194  0.00  0.00    +0.000 HD
ATOM      9  H2  UNL     1       7.741   3.315  17.266  0.00  0.00    +0.000 HD
ENDBRANCH   6   7
BRANCH   6  10
ATOM     10  C   UNL     1       6.853   4.623  14.766  0.00  0.00    +0.000 C 
ATOM     11  O   UNL     1       6.199   3.874  14.057  0.00  0.00    +0.000 OA
BRANCH  10  12
ATOM     12  OXT UNL     1       7.785   5.488  14.282  0.00  0.00    +0.000 OA
ATOM     13  HXT UNL     1       7.286   6.219  13.832  0.00  0.00    +0.000 HD
ENDBRANCH  10  12
ENDBRANCH   6  10
ENDBRANCH   2   6
BRANCH   1  14
ATOM     14  C   UNL     1       3.390   3.800  18.226  0.00  0.00    +0.000 C 
BRANCH  14  15
ATOM     15  P   UNL     1       4.182   2.762  19.508  0.00  0.00    +0.000 P 
ATOM     16  O   UNL     1       2.926   2.805  20.386  0.00  0.00    +0.000 OA
BRANCH  15  17
ATOM     17  O   UNL     1       3.973   1.416  18.600  0.00  0.00    +0.000 OA
ATOM     18  H   UNL     1       4.813   0.917  18.551  0.00  0.00    +0.000 HD
ENDBRANCH  15  17
BRANCH  15  19
ATOM     19  O   UNL     1       4.930   1.780  20.719  0.00  0.00    +0.000 OA
ATOM     20  H   UNL     1       4.740   0.860  20.435  0.00  0.00    +0.000 HD
ENDBRANCH  15  19
ENDBRANCH  14  15
ENDBRANCH   1  14
TORSDOF 10
ENDMDL
MODEL 7
REMARK VINA RESULT:      -5.8      2.601      3.502
REMARK  Name = 
REMARK  11 active torsions:
REMARK  status: ('A' for Active; 'I' for Inactive)
REMARK    1  A    between atoms: C_1  and  C_2
REMARK    2  A    between atoms: C_2  and  C_3
REMARK    3  A    between atoms: C_3  and  C_4
REMARK    4  A    between atoms: C_4  and  C_11
REMARK    5  A    between atoms: C_5  and  CA_6
REMARK    6  A    between atoms: CA_6  and  N_7
REMARK    7  A    between atoms: CA_6  and  C_8
REMARK    8  A    between atoms: C_8  and  OXT_10
REMARK    9  A    between atoms: C_11  and  P_12
REMARK   10  A    between atoms: P_12  and  O_14
REMARK   11  A    between atoms: P_12  and  O_15
REMARK                            x       y       z     vdW  Elec       q    Type
REMARK                         _______ _______ _______ _____ _____    ______ ____
ROOT
ATOM      1  C   UNL     1       4.334   4.486  18.186  0.00  0.00    +0.000 C 
ATOM      2  C   UNL     1       3.612   3.435  18.639  0.00  0.00    +0.000 C 
ENDROOT
BRANCH   1   3
ATOM      3  C   UNL     1       3.716   5.697  17.502  0.00  0.00    +0.000 C 
BRANCH   3   5
ATOM      4  C   UNL     1       2.723   8.016  17.793  0.00  0.00    +0.000 C 
ATOM      5  C   UNL     1       3.124   6.717  18.483  0.00  0.00    +0.000 C 
ENDBRANCH   3   5
ENDBRANCH   1   3
BRANCH   2   6
ATOM      6  CA  UNL     1       2.140   3.162  18.446  0.00  0.00    +0.000 C 
BRANCH   6   7
ATOM      7  N   UNL     1       1.955   1.712  18.152  0.00  0.00    +0.000 NA
ATOM      8  H1  UNL     1       0.991   1.461  18.394  0.00  0.00    +0.000 HD
ATOM      9  H2  UNL     1       2.528   1.193  18.823  0.00  0.00    +0.000 HD
ENDBRANCH   6   7
BRANCH   6  10
ATOM     10  C   UNL     1       1.227   3.511  19.662  0.00  0.00    +0.000 C 
ATOM     11  O   UNL     1       1.418   4.400  20.476  0.00  0.00    +0.000 OA
BRANCH  10  12
ATOM     12  OXT UNL     1       0.122   2.717  19.666  0.00  0.00    +0.000 OA
ATOM     13  HXT UNL     1       0.446   1.779  19.640  0.00  0.00    +0.000 HD
ENDBRANCH  10  12
ENDBRANCH   6  10
ENDBRANCH   2   6
BRANCH   1  14
ATOM     14  C   UNL     1       5.865   4.487  18.308  0.00  0.00    +0.000 C 
BRANCH  14  15
ATOM     15  P   UNL     1       6.696   4.870  16.725  0.00  0.00    +0.000 P 
ATOM     16  O   UNL     1       8.048   4.386  17.262  0.00  0.00    +0.000 OA
BRANCH  15  17
ATOM     17  O   UNL     1       6.059   3.535  16.024  0.00  0.00    +0.000 OA
ATOM     18  H   UNL     1       6.561   3.317  15.212  0.00  0.00    +0.000 HD
ENDBRANCH  15  17
BRANCH  15  19
ATOM     19  O   UNL     1       7.483   5.231  15.227  0.00  0.00    +0.000 OA
ATOM     20  H   UNL     1       6.932   4.783  14.550  0.00  0.00    +0.000 HD
ENDBRANCH  15  19
ENDBRANCH  14  15
ENDBRANCH   1  14
TORSDOF 10
ENDMDL
MODEL 8
REMARK VINA RESULT:      -5.8      2.792      5.588
REMARK  Name = 
REMARK  11 active torsions:
REMARK  status: ('A' for Active; 'I' for Inactive)
REMARK    1  A    between atoms: C_1  and  C_2
REMARK    2  A    between atoms: C_2  and  C_3
REMARK    3  A    between atoms: C_3  and  C_4
REMARK    4  A    between atoms: C_4  and  C_11
REMARK    5  A    between atoms: C_5  and  CA_6
REMARK    6  A    between atoms: CA_6  and  N_7
REMARK    7  A    between atoms: CA_6  and  C_8
REMARK    8  A    between atoms: C_8  and  OXT_10
REMARK    9  A    between atoms: C_11  and  P_12
REMARK   10  A    between atoms: P_12  and  O_14
REMARK   11  A    between atoms: P_12  and  O_15
REMARK                            x       y       z     vdW  Elec       q    Type
REMARK                         _______ _______ _______ _____ _____    ______ ____
ROOT
ATOM      1  C   UNL     1       3.638   5.130  18.293  0.00  0.00    +0.000 C 
ATOM      2  C   UNL     1       4.942   4.865  18.046  0.00  0.00    +0.000 C 
ENDROOT
BRANCH   1   3
ATOM      3  C   UNL     1       3.134   6.476  18.793  0.00  0.00    +0.000 C 
BRANCH   3   5
ATOM      4  C   UNL     1       1.975   8.535  17.865  0.00  0.00    +0.000 C 
ATOM      5  C   UNL     1       3.146   7.570  17.719  0.00  0.00    +0.000 C 
ENDBRANCH   3   5
ENDBRANCH   1   3
BRANCH   2   6
ATOM      6  CA  UNL     1       6.142   5.736  18.337  0.00  0.00    +0.000 C 
BRANCH   6   7
ATOM      7  N   UNL     1       6.748   5.299  19.628  0.00  0.00    +0.000 NA
ATOM      8  H1  UNL     1       7.482   4.615  19.417  0.00  0.00    +0.000 HD
ATOM      9  H2  UNL     1       6.037   4.761  20.129  0.00  0.00    +0.000 HD
ENDBRANCH   6   7
BRANCH   6  10
ATOM     10  C   UNL     1       7.269   5.707  17.260  0.00  0.00    +0.000 C 
ATOM     11  O   UNL     1       7.608   6.638  16.546  0.00  0.00    +0.000 OA
BRANCH  10  12
ATOM     12  OXT UNL     1       7.892   4.497  17.260  0.00  0.00    +0.000 OA
ATOM     13  HXT UNL     1       8.599   4.543  17.956  0.00  0.00    +0.000 HD
ENDBRANCH  10  12
ENDBRANCH   6  10
ENDBRANCH   2   6
BRANCH   1  14
ATOM     14  C   UNL     1       2.577   4.035  18.114  0.00  0.00    +0.000 C 
BRANCH  14  15
ATOM     15  P   UNL     1       3.279   2.349  18.230  0.00  0.00    +0.000 P 
ATOM     16  O   UNL     1       3.010   2.290  19.739  0.00  0.00    +0.000 OA
BRANCH  15  17
ATOM     17  O   UNL     1       1.928   1.701  17.571  0.00  0.00    +0.000 OA
ATOM     18  H   UNL     1       2.023   0.729  17.512  0.00  0.00    +0.000 HD
ENDBRANCH  15  17
BRANCH  15  19
ATOM     19  O   UNL     1       3.941   0.755  18.340  0.00  0.00    +0.000 OA
ATOM     20  H   UNL     1       3.205   0.212  18.695  0.00  0.00    +0.000 HD
ENDBRANCH  15  19
ENDBRANCH  14  15
ENDBRANCH   1  14
TORSDOF 10
ENDMDL
MODEL 9
REMARK VINA RESULT:      -5.7      3.037      5.479
REMARK  Name = 
REMARK  11 active torsions:
REMARK  status: ('A' for Active; 'I' for Inactive)
REMARK    1  A    between atoms: C_1  and  C_2
REMARK    2  A    between atoms: C_2  and  C_3
REMARK    3  A    between atoms: C_3  and  C_4
REMARK    4  A    between atoms: C_4  and  C_11
REMARK    5  A    between atoms: C_5  and  CA_6
REMARK    6  A    between atoms: CA_6  and  N_7
REMARK    7  A    between atoms: CA_6  and  C_8
REMARK    8  A    between atoms: C_8  and  OXT_10
REMARK    9  A    between atoms: C_11  and  P_12
REMARK   10  A    between atoms: P_12  and  O_14
REMARK   11  A    between atoms: P_12  and  O_15
REMARK                            x       y       z     vdW  Elec       q    Type
REMARK                         _______ _______ _______ _____ _____    ______ ____
ROOT
ATOM      1  C   UNL     1       4.334   4.996  18.798  0.00  0.00    +0.000 C 
ATOM      2  C   UNL     1       5.624   4.816  19.165  0.00  0.00    +0.000 C 
ENDROOT
BRANCH   1   3
ATOM      3  C   UNL     1       3.858   6.161  17.940  0.00  0.00    +0.000 C 
BRANCH   3   5
ATOM      4  C   UNL     1       2.447   8.267  17.827  0.00  0.00    +0.000 C 
ATOM      5  C   UNL     1       2.738   6.980  18.590  0.00  0.00    +0.000 C 
ENDBRANCH   3   5
ENDBRANCH   1   3
BRANCH   2   6
ATOM      6  CA  UNL     1       6.792   5.750  18.954  0.00  0.00    +0.000 C 
BRANCH   6   7
ATOM      7  N   UNL     1       7.821   5.473  19.997  0.00  0.00    +0.000 NA
ATOM      8  H1  UNL     1       8.742   5.509  19.550  0.00  0.00    +0.000 HD
ATOM      9  H2  UNL     1       7.713   4.494  20.276  0.00  0.00    +0.000 HD
ENDBRANCH   6   7
BRANCH   6  10
ATOM     10  C   UNL     1       7.496   5.642  17.566  0.00  0.00    +0.000 C 
ATOM     11  O   UNL     1       7.601   6.534  16.740  0.00  0.00    +0.000 OA
BRANCH  10  12
ATOM     12  OXT UNL     1       8.053   4.410  17.413  0.00  0.00    +0.000 OA
ATOM     13  HXT UNL     1       7.409   3.872  16.883  0.00  0.00    +0.000 HD
ENDBRANCH  10  12
ENDBRANCH   6  10
ENDBRANCH   2   6
BRANCH   1  14
ATOM     14  C   UNL     1       3.247   4.025  19.281  0.00  0.00    +0.000 C 
BRANCH  14  15
ATOM     15  P   UNL     1       3.640   2.280  18.897  0.00  0.00    +0.000 P 
ATOM     16  O   UNL     1       2.155   1.926  18.759  0.00  0.00    +0.000 OA
BRANCH  15  17
ATOM     17  O   UNL     1       4.086   2.678  17.373  0.00  0.00    +0.000 OA
ATOM     18  H   UNL     1       4.570   3.529  17.382  0.00  0.00    +0.000 HD
ENDBRANCH  15  17
BRANCH  15  19
ATOM     19  O   UNL     1       4.012   0.631  18.532  0.00  0.00    +0.000 OA
ATOM     20  H   UNL     1       4.660   0.371  19.221  0.00  0.00    +0.000 HD
ENDBRANCH  15  19
ENDBRANCH  14  15
ENDBRANCH   1  14
TORSDOF 10
ENDMDL
