MODEL 1
REMARK VINA RESULT:      -7.2      0.000      0.000
REMARK  Name = 
REMARK  7 active torsions:
REMARK  status: ('A' for Active; 'I' for Inactive)
REMARK    1  A    between atoms: C_1  and  O_2
REMARK    2  A    between atoms: O_2  and  C_3
REMARK    3  A    between atoms: C_3  and  C_5
REMARK    4  A    between atoms: C_6  and  N_7
REMARK    5  A    between atoms: C_20  and  C_21
REMARK    6  A    between atoms: C_21  and  O_23
REMARK    7  A    between atoms: O_23  and  C_24
REMARK                            x       y       z     vdW  Elec       q    Type
REMARK                         _______ _______ _______ _____ _____    ______ ____
ROOT
ATOM      1  C   UNL     1       4.326   5.706  17.829  0.00  0.00    +0.000 C 
ATOM      2  C   UNL     1       3.116   6.272  18.066  0.00  0.00    +0.000 C 
ATOM      3  C   UNL     1       2.489   4.913  17.872  0.00  0.00    +0.000 C 
ATOM      4  C   UNL     1       2.312   4.122  19.240  0.00  0.00    +0.000 A 
ATOM      5  C   UNL     1       1.595   4.485  20.390  0.00  0.00    +0.000 A 
ATOM      6  C   UNL     1       1.607   3.674  21.534  0.00  0.00    +0.000 A 
ATOM      7  C   UNL     1       2.349   2.495  21.555  0.00  0.00    +0.000 A 
ATOM      8  C   UNL     1       3.036   2.100  20.416  0.00  0.00    +0.000 A 
ATOM      9  C   UNL     1       2.980   2.905  19.285  0.00  0.00    +0.000 A 
ATOM     10  S   UNL     1       3.681   2.448  17.743  0.00  0.00    +0.000 S 
ATOM     11  C   UNL     1       3.683   4.460  16.930  0.00  0.00    +0.000 C 
ENDROOT
BRANCH   2  12
ATOM     12  N   UNL     1       2.587   7.423  18.437  0.00  0.00    +0.000 N 
ATOM     13  C   UNL     1       2.304   8.546  17.537  0.00  0.00    +0.000 C 
ATOM     14  C   UNL     1       1.520   9.480  18.398  0.00  0.00    +0.000 C 
ATOM     15  C   UNL     1       1.392   9.003  19.640  0.00  0.00    +0.000 C 
ATOM     16  C   UNL     1       2.076   7.690  19.790  0.00  0.00    +0.000 C 
ENDBRANCH   2  12
BRANCH   1  17
ATOM     17  C   UNL     1       5.524   6.558  17.560  0.00  0.00    +0.000 C 
ATOM     18  O   UNL     1       5.716   7.289  16.595  0.00  0.00    +0.000 OA
BRANCH  17  20
ATOM     19  C   UNL     1       7.753   6.711  18.205  0.00  0.00    +0.000 C 
ATOM     20  O   UNL     1       6.418   6.347  18.557  0.00  0.00    +0.000 OA
ENDBRANCH  17  20
ENDBRANCH   1  17
BRANCH  11  21
ATOM     21  C   UNL     1       5.100   4.145  16.279  0.00  0.00    +0.000 C 
ATOM     22  O   UNL     1       6.100   3.685  16.841  0.00  0.00    +0.000 OA
BRANCH  21  23
ATOM     23  O   UNL     1       5.109   4.364  14.923  0.00  0.00    +0.000 OA
ATOM     24  C   UNL     1       6.425   4.489  14.358  0.00  0.00    +0.000 C 
ENDBRANCH  21  23
ENDBRANCH  11  21
TORSDOF 5
ENDMDL
MODEL 2
REMARK VINA RESULT:      -6.1      5.722      9.066
REMARK  Name = 
REMARK  7 active torsions:
REMARK  status: ('A' for Active; 'I' for Inactive)
REMARK    1  A    between atoms: C_1  and  O_2
REMARK    2  A    between atoms: O_2  and  C_3
REMARK    3  A    between atoms: C_3  and  C_5
REMARK    4  A    between atoms: C_6  and  N_7
REMARK    5  A    between atoms: C_20  and  C_21
REMARK    6  A    between atoms: C_21  and  O_23
REMARK    7  A    between atoms: O_23  and  C_24
REMARK                            x       y       z     vdW  Elec       q    Type
REMARK                         _______ _______ _______ _____ _____    ______ ____
ROOT
ATOM      1  C   UNL     1       0.178  11.804  19.727  0.00  0.00    +0.000 C 
ATOM      2  C   UNL     1       0.298  10.469  19.513  0.00  0.00    +0.000 C 
ATOM      3  C   UNL     1      -1.191  10.344  19.719  0.00  0.00    +0.000 C 
ATOM      4  C   UNL     1      -2.005  10.422  18.355  0.00  0.00    +0.000 A 
ATOM      5  C   UNL     1      -1.915   9.604  17.219  0.00  0.00    +0.000 A 
ATOM      6  C   UNL     1      -2.681   9.870  16.075  0.00  0.00    +0.000 A 
ATOM      7  C   UNL     1      -3.539  10.968  16.041  0.00  0.00    +0.000 A 
ATOM      8  C   UNL     1      -3.670  11.768  17.166  0.00  0.00    +0.000 A 
ATOM      9  C   UNL     1      -2.924  11.462  18.298  0.00  0.00    +0.000 A 
ATOM     10  S   UNL     1      -3.105  12.304  19.827  0.00  0.00    +0.000 S 
ATOM     11  C   UNL     1      -1.207  11.637  20.639  0.00  0.00    +0.000 C 
ENDROOT
BRANCH   2  12
ATOM     12  N   UNL     1       1.199   9.575  19.152  0.00  0.00    +0.000 N 
ATOM     13  C   UNL     1       1.565   8.389  19.933  0.00  0.00    +0.000 C 
ATOM     14  C   UNL     1       2.432   7.618  18.992  0.00  0.00    +0.000 C 
ATOM     15  C   UNL     1       2.593   8.270  17.836  0.00  0.00    +0.000 C 
ATOM     16  C   UNL     1       1.866   9.569  17.840  0.00  0.00    +0.000 C 
ENDBRANCH   2  12
BRANCH   1  17
ATOM     17  C   UNL     1       1.387  12.646  19.973  0.00  0.00    +0.000 C 
ATOM     18  O   UNL     1       2.106  12.643  20.965  0.00  0.00    +0.000 OA
BRANCH  17  20
ATOM     19  C   UNL     1       2.689  13.187  18.124  0.00  0.00    +0.000 C 
ATOM     20  O   UNL     1       1.537  13.480  18.914  0.00  0.00    +0.000 OA
ENDBRANCH  17  20
ENDBRANCH   1  17
BRANCH  11  21
ATOM     21  C   UNL     1      -1.018  13.089  21.263  0.00  0.00    +0.000 C 
ATOM     22  O   UNL     1      -1.179  14.176  20.699  0.00  0.00    +0.000 OA
BRANCH  21  23
ATOM     23  O   UNL     1      -0.716  13.043  22.602  0.00  0.00    +0.000 OA
ATOM     24  C   UNL     1      -1.726  13.612  23.451  0.00  0.00    +0.000 C 
ENDBRANCH  21  23
ENDBRANCH  11  21
TORSDOF 5
ENDMDL
MODEL 3
REMARK VINA RESULT:      -6.0      1.880      4.759
REMARK  Name = 
REMARK  7 active torsions:
REMARK  status: ('A' for Active; 'I' for Inactive)
REMARK    1  A    between atoms: C_1  and  O_2
REMARK    2  A    between atoms: O_2  and  C_3
REMARK    3  A    between atoms: C_3  and  C_5
REMARK    4  A    between atoms: C_6  and  N_7
REMARK    5  A    between atoms: C_20  and  C_21
REMARK    6  A    between atoms: C_21  and  O_23
REMARK    7  A    between atoms: O_23  and  C_24
REMARK                            x       y       z     vdW  Elec       q    Type
REMARK                         _______ _______ _______ _____ _____    ______ ____
ROOT
ATOM      1  C   UNL     1       3.478   4.448  17.935  0.00  0.00    +0.000 C 
ATOM      2  C   UNL     1       3.291   4.533  19.276  0.00  0.00    +0.000 C 
ATOM      3  C   UNL     1       4.016   5.856  19.251  0.00  0.00    +0.000 C 
ATOM      4  C   UNL     1       3.025   7.092  19.103  0.00  0.00    +0.000 A 
ATOM      5  C   UNL     1       1.966   7.486  19.933  0.00  0.00    +0.000 A 
ATOM      6  C   UNL     1       1.158   8.582  19.601  0.00  0.00    +0.000 A 
ATOM      7  C   UNL     1       1.383   9.293  18.423  0.00  0.00    +0.000 A 
ATOM      8  C   UNL     1       2.448   8.941  17.607  0.00  0.00    +0.000 A 
ATOM      9  C   UNL     1       3.254   7.873  17.977  0.00  0.00    +0.000 A 
ATOM     10  S   UNL     1       4.712   7.421  17.111  0.00  0.00    +0.000 S 
ATOM     11  C   UNL     1       4.827   5.426  17.958  0.00  0.00    +0.000 C 
ENDROOT
BRANCH   2  12
ATOM     12  N   UNL     1       2.672   3.904  20.258  0.00  0.00    +0.000 N 
ATOM     13  C   UNL     1       1.234   3.987  20.533  0.00  0.00    +0.000 C 
ATOM     14  C   UNL     1       1.028   2.936  21.574  0.00  0.00    +0.000 C 
ATOM     15  C   UNL     1       2.181   2.343  21.900  0.00  0.00    +0.000 C 
ATOM     16  C   UNL     1       3.321   2.917  21.135  0.00  0.00    +0.000 C 
ENDBRANCH   2  12
BRANCH   1  17
ATOM     17  C   UNL     1       3.246   3.160  17.215  0.00  0.00    +0.000 C 
ATOM     18  O   UNL     1       2.349   2.902  16.420  0.00  0.00    +0.000 OA
BRANCH  17  20
ATOM     19  C   UNL     1       3.625   1.113  18.252  0.00  0.00    +0.000 C 
ATOM     20  O   UNL     1       4.182   2.273  17.634  0.00  0.00    +0.000 OA
ENDBRANCH  17  20
ENDBRANCH   1  17
BRANCH  11  21
ATOM     21  C   UNL     1       5.283   4.897  16.527  0.00  0.00    +0.000 C 
ATOM     22  O   UNL     1       4.740   5.111  15.439  0.00  0.00    +0.000 OA
BRANCH  21  23
ATOM     23  O   UNL     1       6.462   4.195  16.586  0.00  0.00    +0.000 OA
ATOM     24  C   UNL     1       7.373   4.661  17.595  0.00  0.00    +0.000 C 
ENDBRANCH  21  23
ENDBRANCH  11  21
TORSDOF 5
ENDMDL
MODEL 4
REMARK VINA RESULT:      -5.8      1.486      1.893
REMARK  Name = 
REMARK  7 active torsions:
REMARK  status: ('A' for Active; 'I' for Inactive)
REMARK    1  A    between atoms: C_1  and  O_2
REMARK    2  A    between atoms: O_2  and  C_3
REMARK    3  A    between atoms: C_3  and  C_5
REMARK    4  A    between atoms: C_6  and  N_7
REMARK    5  A    between atoms: C_20  and  C_21
REMARK    6  A    between atoms: C_21  and  O_23
REMARK    7  A    between atoms: O_23  and  C_24
REMARK                            x       y       z     vdW  Elec       q    Type
REMARK                         _______ _______ _______ _____ _____    ______ ____
ROOT
ATOM      1  C   UNL     1       5.493   5.726  17.652  0.00  0.00    +0.000 C 
ATOM      2  C   UNL     1       4.236   6.226  17.560  0.00  0.00    +0.000 C 
ATOM      3  C   UNL     1       3.877   5.049  16.686  0.00  0.00    +0.000 C 
ATOM      4  C   UNL     1       3.263   3.839  17.516  0.00  0.00    +0.000 A 
ATOM      5  C   UNL     1       2.122   3.809  18.330  0.00  0.00    +0.000 A 
ATOM      6  C   UNL     1       1.770   2.650  19.037  0.00  0.00    +0.000 A 
ATOM      7  C   UNL     1       2.562   1.506  18.956  0.00  0.00    +0.000 A 
ATOM      8  C   UNL     1       3.675   1.504  18.129  0.00  0.00    +0.000 A 
ATOM      9  C   UNL     1       3.982   2.655  17.412  0.00  0.00    +0.000 A 
ATOM     10  S   UNL     1       5.271   2.734  16.225  0.00  0.00    +0.000 S 
ATOM     11  C   UNL     1       5.383   4.901  16.209  0.00  0.00    +0.000 C 
ENDROOT
BRANCH   2  12
ATOM     12  N   UNL     1       3.489   7.197  18.050  0.00  0.00    +0.000 N 
ATOM     13  C   UNL     1       3.158   8.441  17.346  0.00  0.00    +0.000 C 
ATOM     14  C   UNL     1       2.130   9.067  18.229  0.00  0.00    +0.000 C 
ATOM     15  C   UNL     1       1.911   8.326  19.320  0.00  0.00    +0.000 C 
ATOM     16  C   UNL     1       2.764   7.107  19.328  0.00  0.00    +0.000 C 
ENDBRANCH   2  12
BRANCH   1  17
ATOM     17  C   UNL     1       6.607   6.566  18.188  0.00  0.00    +0.000 C 
ATOM     18  O   UNL     1       7.310   6.334  19.166  0.00  0.00    +0.000 OA
BRANCH  17  20
ATOM     19  C   UNL     1       7.854   8.465  17.693  0.00  0.00    +0.000 C 
ATOM     20  O   UNL     1       6.686   7.688  17.432  0.00  0.00    +0.000 OA
ENDBRANCH  17  20
ENDBRANCH   1  17
BRANCH  11  21
ATOM     21  C   UNL     1       6.967   4.772  16.116  0.00  0.00    +0.000 C 
ATOM     22  O   UNL     1       7.712   4.123  16.857  0.00  0.00    +0.000 OA
BRANCH  21  23
ATOM     23  O   UNL     1       7.477   5.422  15.019  0.00  0.00    +0.000 OA
ATOM     24  C   UNL     1       7.072   4.856  13.761  0.00  0.00    +0.000 C 
ENDBRANCH  21  23
ENDBRANCH  11  21
TORSDOF 5
ENDMDL
MODEL 5
REMARK VINA RESULT:      -5.8      5.820      9.075
REMARK  Name = 
REMARK  7 active torsions:
REMARK  status: ('A' for Active; 'I' for Inactive)
REMARK    1  A    between atoms: C_1  and  O_2
REMARK    2  A    between atoms: O_2  and  C_3
REMARK    3  A    between atoms: C_3  and  C_5
REMARK    4  A    between atoms: C_6  and  N_7
REMARK    5  A    between atoms: C_20  and  C_21
REMARK    6  A    between atoms: C_21  and  O_23
REMARK    7  A    between atoms: O_23  and  C_24
REMARK                            x       y       z     vdW  Elec       q    Type
REMARK                         _______ _______ _______ _____ _____    ______ ____
ROOT
ATOM      1  C   UNL     1       0.023  12.018  19.418  0.00  0.00    +0.000 C 
ATOM      2  C   UNL     1       0.181  10.674  19.316  0.00  0.00    +0.000 C 
ATOM      3  C   UNL     1      -1.299  10.523  19.571  0.00  0.00    +0.000 C 
ATOM      4  C   UNL     1      -2.146  10.458  18.226  0.00  0.00    +0.000 A 
ATOM      5  C   UNL     1      -2.056   9.549  17.162  0.00  0.00    +0.000 A 
ATOM      6  C   UNL     1      -2.857   9.692  16.020  0.00  0.00    +0.000 A 
ATOM      7  C   UNL     1      -3.750  10.757  15.914  0.00  0.00    +0.000 A 
ATOM      8  C   UNL     1      -3.879  11.647  16.969  0.00  0.00    +0.000 A 
ATOM      9  C   UNL     1      -3.098  11.462  18.104  0.00  0.00    +0.000 A 
ATOM     10  S   UNL     1      -3.271  12.427  19.559  0.00  0.00    +0.000 S 
ATOM     11  C   UNL     1      -1.334  11.890  20.376  0.00  0.00    +0.000 C 
ENDROOT
BRANCH   2  12
ATOM     12  N   UNL     1       1.101   9.779  19.010  0.00  0.00    +0.000 N 
ATOM     13  C   UNL     1       1.432   8.604  19.822  0.00  0.00    +0.000 C 
ATOM     14  C   UNL     1       2.346   7.825  18.934  0.00  0.00    +0.000 C 
ATOM     15  C   UNL     1       2.561   8.464  17.779  0.00  0.00    +0.000 C 
ATOM     16  C   UNL     1       1.831   9.760  17.733  0.00  0.00    +0.000 C 
ENDBRANCH   2  12
BRANCH   1  17
ATOM     17  C   UNL     1       1.210  12.913  19.560  0.00  0.00    +0.000 C 
ATOM     18  O   UNL     1       1.615  13.746  18.757  0.00  0.00    +0.000 OA
BRANCH  17  20
ATOM     19  C   UNL     1       2.707  13.637  21.186  0.00  0.00    +0.000 C 
ATOM     20  O   UNL     1       1.821  12.614  20.733  0.00  0.00    +0.000 OA
ENDBRANCH  17  20
ENDBRANCH   1  17
BRANCH  11  21
ATOM     21  C   UNL     1      -1.177  13.395  20.868  0.00  0.00    +0.000 C 
ATOM     22  O   UNL     1      -1.309  14.423  20.197  0.00  0.00    +0.000 OA
BRANCH  21  23
ATOM     23  O   UNL     1      -0.942  13.477  22.219  0.00  0.00    +0.000 OA
ATOM     24  C   UNL     1      -1.196  12.256  22.934  0.00  0.00    +0.000 C 
ENDBRANCH  21  23
ENDBRANCH  11  21
TORSDOF 5
ENDMDL
MODEL 6
REMARK VINA RESULT:      -5.7      2.516      4.887
REMARK  Name = 
REMARK  7 active torsions:
REMARK  status: ('A' for Active; 'I' for Inactive)
REMARK    1  A    between atoms: C_1  and  O_2
REMARK    2  A    between atoms: O_2  and  C_3
REMARK    3  A    between atoms: C_3  and  C_5
REMARK    4  A    between atoms: C_6  and  N_7
REMARK    5  A    between atoms: C_20  and  C_21
REMARK    6  A    between atoms: C_21  and  O_23
REMARK    7  A    between atoms: O_23  and  C_24
REMARK                            x       y       z     vdW  Elec       q    Type
REMARK                         _______ _______ _______ _____ _____    ______ ____
ROOT
ATOM      1  C   UNL     1       2.530   4.899  19.178  0.00  0.00    +0.000 C 
ATOM      2  C   UNL     1       2.875   6.210  19.212  0.00  0.00    +0.000 C 
ATOM      3  C   UNL     1       4.320   5.789  19.110  0.00  0.00    +0.000 C 
ATOM      4  C   UNL     1       4.842   5.760  17.607  0.00  0.00    +0.000 A 
ATOM      5  C   UNL     1       4.893   6.796  16.664  0.00  0.00    +0.000 A 
ATOM      6  C   UNL     1       5.335   6.560  15.354  0.00  0.00    +0.000 A 
ATOM      7  C   UNL     1       5.717   5.279  14.960  0.00  0.00    +0.000 A 
ATOM      8  C   UNL     1       5.708   4.248  15.887  0.00  0.00    +0.000 A 
ATOM      9  C   UNL     1       5.299   4.517  17.187  0.00  0.00    +0.000 A 
ATOM     10  S   UNL     1       5.380   3.339  18.485  0.00  0.00    +0.000 S 
ATOM     11  C   UNL     1       3.996   4.390  19.784  0.00  0.00    +0.000 C 
ENDROOT
BRANCH   2  12
ATOM     12  N   UNL     1       2.321   7.408  19.202  0.00  0.00    +0.000 N 
ATOM     13  C   UNL     1       2.108   8.225  18.003  0.00  0.00    +0.000 C 
ATOM     14  C   UNL     1       1.263   9.349  18.505  0.00  0.00    +0.000 C 
ATOM     15  C   UNL     1       1.040   9.240  19.819  0.00  0.00    +0.000 C 
ATOM     16  C   UNL     1       1.709   8.036  20.384  0.00  0.00    +0.000 C 
ENDBRANCH   2  12
BRANCH   1  17
ATOM     17  C   UNL     1       1.146   4.468  19.541  0.00  0.00    +0.000 C 
ATOM     18  O   UNL     1       0.536   4.716  20.575  0.00  0.00    +0.000 OA
BRANCH  17  20
ATOM     19  C   UNL     1       1.333   3.911  17.291  0.00  0.00    +0.000 C 
ATOM     20  O   UNL     1       0.675   3.687  18.537  0.00  0.00    +0.000 OA
ENDBRANCH  17  20
ENDBRANCH   1  17
BRANCH  11  21
ATOM     21  C   UNL     1       3.382   2.980  20.193  0.00  0.00    +0.000 C 
ATOM     22  O   UNL     1       3.152   2.018  19.454  0.00  0.00    +0.000 OA
BRANCH  21  23
ATOM     23  O   UNL     1       3.185   2.873  21.548  0.00  0.00    +0.000 OA
ATOM     24  C   UNL     1       1.971   2.196  21.913  0.00  0.00    +0.000 C 
ENDBRANCH  21  23
ENDBRANCH  11  21
TORSDOF 5
ENDMDL
MODEL 7
REMARK VINA RESULT:      -5.7      8.614     11.122
REMARK  Name = 
REMARK  7 active torsions:
REMARK  status: ('A' for Active; 'I' for Inactive)
REMARK    1  A    between atoms: C_1  and  O_2
REMARK    2  A    between atoms: O_2  and  C_3
REMARK    3  A    between atoms: C_3  and  C_5
REMARK    4  A    between atoms: C_6  and  N_7
REMARK    5  A    between atoms: C_20  and  C_21
REMARK    6  A    between atoms: C_21  and  O_23
REMARK    7  A    between atoms: O_23  and  C_24
REMARK                            x       y       z     vdW  Elec       q    Type
REMARK                         _______ _______ _______ _____ _____    ______ ____
ROOT
ATOM      1  C   UNL     1      -3.604  12.610  20.563  0.00  0.00    +0.000 C 
ATOM      2  C   UNL     1      -2.863  12.275  19.478  0.00  0.00    +0.000 C 
ATOM      3  C   UNL     1      -1.623  12.573  20.285  0.00  0.00    +0.000 C 
ATOM      4  C   UNL     1      -1.037  11.279  21.002  0.00  0.00    +0.000 A 
ATOM      5  C   UNL     1      -0.595  10.074  20.437  0.00  0.00    +0.000 A 
ATOM      6  C   UNL     1      -0.163   9.013  21.246  0.00  0.00    +0.000 A 
ATOM      7  C   UNL     1      -0.182   9.132  22.635  0.00  0.00    +0.000 A 
ATOM      8  C   UNL     1      -0.582  10.328  23.212  0.00  0.00    +0.000 A 
ATOM      9  C   UNL     1      -0.972  11.375  22.386  0.00  0.00    +0.000 A 
ATOM     10  S   UNL     1      -1.358  12.979  22.983  0.00  0.00    +0.000 S 
ATOM     11  C   UNL     1      -2.421  13.598  21.195  0.00  0.00    +0.000 C 
ENDROOT
BRANCH   2  12
ATOM     12  N   UNL     1      -3.005  11.777  18.264  0.00  0.00    +0.000 N 
ATOM     13  C   UNL     1      -1.908  11.538  17.321  0.00  0.00    +0.000 C 
ATOM     14  C   UNL     1      -2.568  10.774  16.221  0.00  0.00    +0.000 C 
ATOM     15  C   UNL     1      -3.875  10.617  16.455  0.00  0.00    +0.000 C 
ATOM     16  C   UNL     1      -4.277  11.259  17.736  0.00  0.00    +0.000 C 
ENDBRANCH   2  12
BRANCH   1  17
ATOM     17  C   UNL     1      -5.074  12.844  20.437  0.00  0.00    +0.000 C 
ATOM     18  O   UNL     1      -5.636  13.727  19.799  0.00  0.00    +0.000 OA
BRANCH  17  20
ATOM     19  C   UNL     1      -7.030  12.321  21.581  0.00  0.00    +0.000 C 
ATOM     20  O   UNL     1      -5.711  11.927  21.207  0.00  0.00    +0.000 OA
ENDBRANCH  17  20
ENDBRANCH   1  17
BRANCH  11  21
ATOM     21  C   UNL     1      -3.477  14.330  22.134  0.00  0.00    +0.000 C 
ATOM     22  O   UNL     1      -4.019  13.880  23.149  0.00  0.00    +0.000 OA
BRANCH  21  23
ATOM     23  O   UNL     1      -3.702  15.629  21.749  0.00  0.00    +0.000 OA
ATOM     24  C   UNL     1      -4.908  16.199  22.284  0.00  0.00    +0.000 C 
ENDBRANCH  21  23
ENDBRANCH  11  21
TORSDOF 5
ENDMDL
MODEL 8
REMARK VINA RESULT:      -5.6      2.352      5.028
REMARK  Name = 
REMARK  7 active torsions:
REMARK  status: ('A' for Active; 'I' for Inactive)
REMARK    1  A    between atoms: C_1  and  O_2
REMARK    2  A    between atoms: O_2  and  C_3
REMARK    3  A    between atoms: C_3  and  C_5
REMARK    4  A    between atoms: C_6  and  N_7
REMARK    5  A    between atoms: C_20  and  C_21
REMARK    6  A    between atoms: C_21  and  O_23
REMARK    7  A    between atoms: O_23  and  C_24
REMARK                            x       y       z     vdW  Elec       q    Type
REMARK                         _______ _______ _______ _____ _____    ______ ____
ROOT
ATOM      1  C   UNL     1       3.893   4.885  19.053  0.00  0.00    +0.000 C 
ATOM      2  C   UNL     1       3.745   5.177  17.737  0.00  0.00    +0.000 C 
ATOM      3  C   UNL     1       2.305   5.530  18.021  0.00  0.00    +0.000 C 
ATOM      4  C   UNL     1       2.105   7.080  18.317  0.00  0.00    +0.000 A 
ATOM      5  C   UNL     1       2.402   8.185  17.507  0.00  0.00    +0.000 A 
ATOM      6  C   UNL     1       2.209   9.494  17.971  0.00  0.00    +0.000 A 
ATOM      7  C   UNL     1       1.731   9.721  19.261  0.00  0.00    +0.000 A 
ATOM      8  C   UNL     1       1.398   8.641  20.065  0.00  0.00    +0.000 A 
ATOM      9  C   UNL     1       1.567   7.355  19.567  0.00  0.00    +0.000 A 
ATOM     10  S   UNL     1       1.049   5.915  20.426  0.00  0.00    +0.000 S 
ATOM     11  C   UNL     1       2.276   4.550  19.268  0.00  0.00    +0.000 C 
ENDROOT
BRANCH   2  12
ATOM     12  N   UNL     1       4.459   5.281  16.631  0.00  0.00    +0.000 N 
ATOM     13  C   UNL     1       5.076   6.518  16.144  0.00  0.00    +0.000 C 
ATOM     14  C   UNL     1       5.934   6.047  15.016  0.00  0.00    +0.000 C 
ATOM     15  C   UNL     1       5.813   4.729  14.833  0.00  0.00    +0.000 C 
ATOM     16  C   UNL     1       4.854   4.132  15.801  0.00  0.00    +0.000 C 
ENDBRANCH   2  12
BRANCH   1  17
ATOM     17  C   UNL     1       5.094   4.139  19.535  0.00  0.00    +0.000 C 
ATOM     18  O   UNL     1       5.251   2.924  19.573  0.00  0.00    +0.000 OA
BRANCH  17  20
ATOM     19  C   UNL     1       7.040   5.320  19.060  0.00  0.00    +0.000 C 
ATOM     20  O   UNL     1       5.994   5.045  19.991  0.00  0.00    +0.000 OA
ENDBRANCH  17  20
ENDBRANCH   1  17
BRANCH  11  21
ATOM     21  C   UNL     1       2.578   3.756  20.614  0.00  0.00    +0.000 C 
ATOM     22  O   UNL     1       2.914   4.227  21.705  0.00  0.00    +0.000 OA
BRANCH  21  23
ATOM     23  O   UNL     1       2.344   2.409  20.485  0.00  0.00    +0.000 OA
ATOM     24  C   UNL     1       1.719   2.038  19.244  0.00  0.00    +0.000 C 
ENDBRANCH  21  23
ENDBRANCH  11  21
TORSDOF 5
ENDMDL
MODEL 9
REMARK VINA RESULT:      -5.5      8.581     10.966
REMARK  Name = 
REMARK  7 active torsions:
REMARK  status: ('A' for Active; 'I' for Inactive)
REMARK    1  A    between atoms: C_1  and  O_2
REMARK    2  A    between atoms: O_2  and  C_3
REMARK    3  A    between atoms: C_3  and  C_5
REMARK    4  A    between atoms: C_6  and  N_7
REMARK    5  A    between atoms: C_20  and  C_21
REMARK    6  A    between atoms: C_21  and  O_23
REMARK    7  A    between atoms: O_23  and  C_24
REMARK                            x       y       z     vdW  Elec       q    Type
REMARK                         _______ _______ _______ _____ _____    ______ ____
ROOT
ATOM      1  C   UNL     1      -3.756  12.392  20.029  0.00  0.00    +0.000 C 
ATOM      2  C   UNL     1      -3.010  11.916  19.001  0.00  0.00    +0.000 C 
ATOM      3  C   UNL     1      -1.776  12.374  19.740  0.00  0.00    +0.000 C 
ATOM      4  C   UNL     1      -1.145  11.225  20.641  0.00  0.00    +0.000 A 
ATOM      5  C   UNL     1      -0.667   9.962  20.264  0.00  0.00    +0.000 A 
ATOM      6  C   UNL     1      -0.197   9.052  21.222  0.00  0.00    +0.000 A 
ATOM      7  C   UNL     1      -0.213   9.383  22.577  0.00  0.00    +0.000 A 
ATOM      8  C   UNL     1      -0.648  10.640  22.967  0.00  0.00    +0.000 A 
ATOM      9  C   UNL     1      -1.076  11.535  21.994  0.00  0.00    +0.000 A 
ATOM     10  S   UNL     1      -1.511  13.199  22.340  0.00  0.00    +0.000 S 
ATOM     11  C   UNL     1      -2.602  13.502  20.489  0.00  0.00    +0.000 C 
ENDROOT
BRANCH   2  12
ATOM     12  N   UNL     1      -3.142  11.233  17.879  0.00  0.00    +0.000 N 
ATOM     13  C   UNL     1      -4.118  11.529  16.826  0.00  0.00    +0.000 C 
ATOM     14  C   UNL     1      -3.699  10.626  15.712  0.00  0.00    +0.000 C 
ATOM     15  C   UNL     1      -2.652   9.874  16.066  0.00  0.00    +0.000 C 
ATOM     16  C   UNL     1      -2.228  10.157  17.464  0.00  0.00    +0.000 C 
ENDBRANCH   2  12
BRANCH   1  17
ATOM     17  C   UNL     1      -5.234  12.557  19.882  0.00  0.00    +0.000 C 
ATOM     18  O   UNL     1      -5.827  13.358  19.168  0.00  0.00    +0.000 OA
BRANCH  17  20
ATOM     19  C   UNL     1      -7.049  11.141  20.213  0.00  0.00    +0.000 C 
ATOM     20  O   UNL     1      -5.837  11.688  20.731  0.00  0.00    +0.000 OA
ENDBRANCH  17  20
ENDBRANCH   1  17
BRANCH  11  21
ATOM     21  C   UNL     1      -3.678  14.336  21.315  0.00  0.00    +0.000 C 
ATOM     22  O   UNL     1      -4.220  14.018  22.378  0.00  0.00    +0.000 OA
BRANCH  21  23
ATOM     23  O   UNL     1      -3.919  15.567  20.757  0.00  0.00    +0.000 OA
ATOM     24  C   UNL     1      -3.634  16.673  21.630  0.00  0.00    +0.000 C 
ENDBRANCH  21  23
ENDBRANCH  11  21
TORSDOF 5
ENDMDL
