MODEL 1
REMARK VINA RESULT:      -7.5      0.000      0.000
REMARK  Name = 
REMARK  4 active torsions:
REMARK  status: ('A' for Active; 'I' for Inactive)
REMARK    1  A    between atoms: O_1  and  C_2
REMARK    2  A    between atoms: C_5  and  C_6
REMARK    3  A    between atoms: C_9  and  C_10
REMARK    4  A    between atoms: C_14  and  O_15
REMARK                            x       y       z     vdW  Elec       q    Type
REMARK                         _______ _______ _______ _____ _____    ______ ____
ROOT
ATOM      1  C   UNL     1       3.792   4.611  17.990  0.00  0.00    +0.000 A 
ATOM      2  C   UNL     1       4.181   5.907  17.702  0.00  0.00    +0.000 A 
ATOM      3  N   UNL     1       4.946   6.081  16.567  0.00  0.00    +0.000 NA
ATOM      4  C   UNL     1       5.119   4.925  15.959  0.00  0.00    +0.000 A 
ATOM      5  S   UNL     1       4.416   3.577  16.765  0.00  0.00    +0.000 S 
ENDROOT
BRANCH   1   9
ATOM      6  C   UNL     1       1.593   3.040  21.306  0.00  0.00    +0.000 A 
ATOM      7  C   UNL     1       0.996   3.987  20.485  0.00  0.00    +0.000 A 
ATOM      8  C   UNL     1       1.713   4.513  19.404  0.00  0.00    +0.000 A 
ATOM      9  C   UNL     1       3.026   4.091  19.131  0.00  0.00    +0.000 A 
ATOM     10  C   UNL     1       3.608   3.144  19.990  0.00  0.00    +0.000 A 
ATOM     11  C   UNL     1       2.895   2.619  21.070  0.00  0.00    +0.000 A 
BRANCH   6  12
ATOM     12  O   UNL     1       0.930   2.492  22.361  0.00  0.00    +0.000 OA
ATOM     13  H   UNL     1       0.762   1.555  22.170  0.00  0.00    +0.000 HD
ENDBRANCH   6  12
ENDBRANCH   1   9
BRANCH   4  14
ATOM     14  C   UNL     1       5.887   4.759  14.717  0.00  0.00    +0.000 A 
ATOM     15  C   UNL     1       5.442   3.829  13.762  0.00  0.00    +0.000 A 
ATOM     16  C   UNL     1       6.157   3.613  12.581  0.00  0.00    +0.000 A 
ATOM     17  C   UNL     1       7.335   4.315  12.341  0.00  0.00    +0.000 A 
ATOM     18  C   UNL     1       7.786   5.230  13.286  0.00  0.00    +0.000 A 
ATOM     19  C   UNL     1       7.074   5.460  14.462  0.00  0.00    +0.000 A 
BRANCH  18  20
ATOM     20  O   UNL     1       8.944   5.926  13.104  0.00  0.00    +0.000 OA
ATOM     21  H   UNL     1       8.785   6.857  13.336  0.00  0.00    +0.000 HD
ENDBRANCH  18  20
ENDBRANCH   4  14
TORSDOF 4
ENDMDL
MODEL 2
REMARK VINA RESULT:      -7.5      0.081      1.109
REMARK  Name = 
REMARK  4 active torsions:
REMARK  status: ('A' for Active; 'I' for Inactive)
REMARK    1  A    between atoms: O_1  and  C_2
REMARK    2  A    between atoms: C_5  and  C_6
REMARK    3  A    between atoms: C_9  and  C_10
REMARK    4  A    between atoms: C_14  and  O_15
REMARK                            x       y       z     vdW  Elec       q    Type
REMARK                         _______ _______ _______ _____ _____    ______ ____
ROOT
ATOM      1  C   UNL     1       3.793   4.527  17.954  0.00  0.00    +0.000 A 
ATOM      2  C   UNL     1       4.097   5.838  17.634  0.00  0.00    +0.000 A 
ATOM      3  N   UNL     1       4.849   6.034  16.495  0.00  0.00    +0.000 NA
ATOM      4  C   UNL     1       5.096   4.877  15.914  0.00  0.00    +0.000 A 
ATOM      5  S   UNL     1       4.482   3.506  16.753  0.00  0.00    +0.000 S 
ENDROOT
BRANCH   1   9
ATOM      6  C   UNL     1       1.633   3.014  21.322  0.00  0.00    +0.000 A 
ATOM      7  C   UNL     1       2.922   2.556  21.083  0.00  0.00    +0.000 A 
ATOM      8  C   UNL     1       3.631   3.040  19.977  0.00  0.00    +0.000 A 
ATOM      9  C   UNL     1       3.062   3.987  19.109  0.00  0.00    +0.000 A 
ATOM     10  C   UNL     1       1.750   4.418  19.368  0.00  0.00    +0.000 A 
ATOM     11  C   UNL     1       1.039   3.936  20.470  0.00  0.00    +0.000 A 
BRANCH   6  12
ATOM     12  O   UNL     1       0.910   2.581  22.392  0.00  0.00    +0.000 OA
ATOM     13  H   UNL     1       1.391   1.853  22.817  0.00  0.00    +0.000 HD
ENDBRANCH   6  12
ENDBRANCH   1   9
BRANCH   4  14
ATOM     14  C   UNL     1       5.873   4.731  14.676  0.00  0.00    +0.000 A 
ATOM     15  C   UNL     1       5.438   3.813  13.704  0.00  0.00    +0.000 A 
ATOM     16  C   UNL     1       6.162   3.615  12.525  0.00  0.00    +0.000 A 
ATOM     17  C   UNL     1       7.339   4.324  12.303  0.00  0.00    +0.000 A 
ATOM     18  C   UNL     1       7.780   5.228  13.264  0.00  0.00    +0.000 A 
ATOM     19  C   UNL     1       7.059   5.439  14.438  0.00  0.00    +0.000 A 
BRANCH  18  20
ATOM     20  O   UNL     1       8.938   5.930  13.100  0.00  0.00    +0.000 OA
ATOM     21  H   UNL     1       8.853   6.780  13.565  0.00  0.00    +0.000 HD
ENDBRANCH  18  20
ENDBRANCH   4  14
TORSDOF 4
ENDMDL
MODEL 3
REMARK VINA RESULT:      -7.1      1.177      1.613
REMARK  Name = 
REMARK  4 active torsions:
REMARK  status: ('A' for Active; 'I' for Inactive)
REMARK    1  A    between atoms: O_1  and  C_2
REMARK    2  A    between atoms: C_5  and  C_6
REMARK    3  A    between atoms: C_9  and  C_10
REMARK    4  A    between atoms: C_14  and  O_15
REMARK                            x       y       z     vdW  Elec       q    Type
REMARK                         _______ _______ _______ _____ _____    ______ ____
ROOT
ATOM      1  C   UNL     1       3.916   4.465  17.993  0.00  0.00    +0.000 A 
ATOM      2  C   UNL     1       4.507   5.694  17.757  0.00  0.00    +0.000 A 
ATOM      3  N   UNL     1       5.246   5.808  16.598  0.00  0.00    +0.000 NA
ATOM      4  C   UNL     1       5.197   4.679  15.920  0.00  0.00    +0.000 A 
ATOM      5  S   UNL     1       4.309   3.419  16.684  0.00  0.00    +0.000 S 
ENDROOT
BRANCH   1   9
ATOM      6  C   UNL     1       1.624   3.082  21.328  0.00  0.00    +0.000 A 
ATOM      7  C   UNL     1       1.076   4.033  20.478  0.00  0.00    +0.000 A 
ATOM      8  C   UNL     1       1.824   4.498  19.390  0.00  0.00    +0.000 A 
ATOM      9  C   UNL     1       3.119   4.010  19.140  0.00  0.00    +0.000 A 
ATOM     10  C   UNL     1       3.651   3.061  20.028  0.00  0.00    +0.000 A 
ATOM     11  C   UNL     1       2.907   2.597  21.116  0.00  0.00    +0.000 A 
BRANCH   6  12
ATOM     12  O   UNL     1       0.928   2.592  22.392  0.00  0.00    +0.000 OA
ATOM     13  H   UNL     1       1.149   1.653  22.501  0.00  0.00    +0.000 HD
ENDBRANCH   6  12
ENDBRANCH   1   9
BRANCH   4  14
ATOM     14  C   UNL     1       5.877   4.464  14.635  0.00  0.00    +0.000 A 
ATOM     15  C   UNL     1       7.040   5.199  14.349  0.00  0.00    +0.000 A 
ATOM     16  C   UNL     1       7.702   5.053  13.128  0.00  0.00    +0.000 A 
ATOM     17  C   UNL     1       7.205   4.178  12.165  0.00  0.00    +0.000 A 
ATOM     18  C   UNL     1       6.049   3.454  12.438  0.00  0.00    +0.000 A 
ATOM     19  C   UNL     1       5.389   3.586  13.658  0.00  0.00    +0.000 A 
BRANCH  18  20
ATOM     20  O   UNL     1       5.513   2.600  11.519  0.00  0.00    +0.000 OA
ATOM     21  H   UNL     1       6.155   1.890  11.346  0.00  0.00    +0.000 HD
ENDBRANCH  18  20
ENDBRANCH   4  14
TORSDOF 4
ENDMDL
MODEL 4
REMARK VINA RESULT:      -7.1      4.719      8.646
REMARK  Name = 
REMARK  4 active torsions:
REMARK  status: ('A' for Active; 'I' for Inactive)
REMARK    1  A    between atoms: O_1  and  C_2
REMARK    2  A    between atoms: C_5  and  C_6
REMARK    3  A    between atoms: C_9  and  C_10
REMARK    4  A    between atoms: C_14  and  O_15
REMARK                            x       y       z     vdW  Elec       q    Type
REMARK                         _______ _______ _______ _____ _____    ______ ____
ROOT
ATOM      1  C   UNL     1       2.765   7.415  18.189  0.00  0.00    +0.000 A 
ATOM      2  C   UNL     1       2.353   8.592  17.590  0.00  0.00    +0.000 A 
ATOM      3  N   UNL     1       1.565   9.427  18.353  0.00  0.00    +0.000 NA
ATOM      4  C   UNL     1       1.397   8.913  19.555  0.00  0.00    +0.000 A 
ATOM      5  S   UNL     1       2.133   7.376  19.789  0.00  0.00    +0.000 S 
ENDROOT
BRANCH   1   9
ATOM      6  C   UNL     1       5.091   4.230  16.534  0.00  0.00    +0.000 A 
ATOM      7  C   UNL     1       3.995   3.925  17.330  0.00  0.00    +0.000 A 
ATOM      8  C   UNL     1       3.235   4.962  17.883  0.00  0.00    +0.000 A 
ATOM      9  C   UNL     1       3.560   6.308  17.639  0.00  0.00    +0.000 A 
ATOM     10  C   UNL     1       4.684   6.584  16.843  0.00  0.00    +0.000 A 
ATOM     11  C   UNL     1       5.445   5.550  16.291  0.00  0.00    +0.000 A 
BRANCH   6  12
ATOM     12  O   UNL     1       5.852   3.254  15.964  0.00  0.00    +0.000 OA
ATOM     13  H   UNL     1       6.748   3.602  15.823  0.00  0.00    +0.000 HD
ENDBRANCH   6  12
ENDBRANCH   1   9
BRANCH   4  14
ATOM     14  C   UNL     1       0.609   9.553  20.617  0.00  0.00    +0.000 A 
ATOM     15  C   UNL     1      -0.205  10.652  20.293  0.00  0.00    +0.000 A 
ATOM     16  C   UNL     1      -0.947  11.313  21.275  0.00  0.00    +0.000 A 
ATOM     17  C   UNL     1      -0.880  10.893  22.601  0.00  0.00    +0.000 A 
ATOM     18  C   UNL     1      -0.069   9.812  22.931  0.00  0.00    +0.000 A 
ATOM     19  C   UNL     1       0.666   9.140  21.956  0.00  0.00    +0.000 A 
BRANCH  18  20
ATOM     20  O   UNL     1       0.045   9.377  24.218  0.00  0.00    +0.000 OA
ATOM     21  H   UNL     1       0.516   8.526  24.217  0.00  0.00    +0.000 HD
ENDBRANCH  18  20
ENDBRANCH   4  14
TORSDOF 4
ENDMDL
MODEL 5
REMARK VINA RESULT:      -7.0      4.773      8.703
REMARK  Name = 
REMARK  4 active torsions:
REMARK  status: ('A' for Active; 'I' for Inactive)
REMARK    1  A    between atoms: O_1  and  C_2
REMARK    2  A    between atoms: C_5  and  C_6
REMARK    3  A    between atoms: C_9  and  C_10
REMARK    4  A    between atoms: C_14  and  O_15
REMARK                            x       y       z     vdW  Elec       q    Type
REMARK                         _______ _______ _______ _____ _____    ______ ____
ROOT
ATOM      1  C   UNL     1       2.692   7.498  18.212  0.00  0.00    +0.000 A 
ATOM      2  C   UNL     1       2.204   8.647  17.615  0.00  0.00    +0.000 A 
ATOM      3  N   UNL     1       1.413   9.459  18.401  0.00  0.00    +0.000 NA
ATOM      4  C   UNL     1       1.318   8.957  19.615  0.00  0.00    +0.000 A 
ATOM      5  S   UNL     1       2.129   7.456  19.837  0.00  0.00    +0.000 S 
ENDROOT
BRANCH   1   9
ATOM      6  C   UNL     1       5.054   4.314  16.607  0.00  0.00    +0.000 A 
ATOM      7  C   UNL     1       5.476   5.626  16.431  0.00  0.00    +0.000 A 
ATOM      8  C   UNL     1       4.703   6.673  16.945  0.00  0.00    +0.000 A 
ATOM      9  C   UNL     1       3.510   6.418  17.644  0.00  0.00    +0.000 A 
ATOM     10  C   UNL     1       3.102   5.082  17.790  0.00  0.00    +0.000 A 
ATOM     11  C   UNL     1       3.870   4.035  17.276  0.00  0.00    +0.000 A 
BRANCH   6  12
ATOM     12  O   UNL     1       5.780   3.263  16.135  0.00  0.00    +0.000 OA
ATOM     13  H   UNL     1       5.409   2.989  15.280  0.00  0.00    +0.000 HD
ENDBRANCH   6  12
ENDBRANCH   1   9
BRANCH   4  14
ATOM     14  C   UNL     1       0.547   9.578  20.701  0.00  0.00    +0.000 A 
ATOM     15  C   UNL     1      -0.279  10.676  20.408  0.00  0.00    +0.000 A 
ATOM     16  C   UNL     1      -1.005  11.320  21.413  0.00  0.00    +0.000 A 
ATOM     17  C   UNL     1      -0.908  10.884  22.731  0.00  0.00    +0.000 A 
ATOM     18  C   UNL     1      -0.085   9.803  23.031  0.00  0.00    +0.000 A 
ATOM     19  C   UNL     1       0.634   9.149  22.033  0.00  0.00    +0.000 A 
BRANCH  18  20
ATOM     20  O   UNL     1       0.058   9.353  24.310  0.00  0.00    +0.000 OA
ATOM     21  H   UNL     1       0.652   9.957  24.786  0.00  0.00    +0.000 HD
ENDBRANCH  18  20
ENDBRANCH   4  14
TORSDOF 4
ENDMDL
MODEL 6
REMARK VINA RESULT:      -7.0      1.185      1.961
REMARK  Name = 
REMARK  4 active torsions:
REMARK  status: ('A' for Active; 'I' for Inactive)
REMARK    1  A    between atoms: O_1  and  C_2
REMARK    2  A    between atoms: C_5  and  C_6
REMARK    3  A    between atoms: C_9  and  C_10
REMARK    4  A    between atoms: C_14  and  O_15
REMARK                            x       y       z     vdW  Elec       q    Type
REMARK                         _______ _______ _______ _____ _____    ______ ____
ROOT
ATOM      1  C   UNL     1       3.880   4.386  17.958  0.00  0.00    +0.000 A 
ATOM      2  C   UNL     1       4.247   5.675  17.611  0.00  0.00    +0.000 A 
ATOM      3  N   UNL     1       4.959   5.816  16.437  0.00  0.00    +0.000 NA
ATOM      4  C   UNL     1       5.111   4.641  15.860  0.00  0.00    +0.000 A 
ATOM      5  S   UNL     1       4.454   3.317  16.739  0.00  0.00    +0.000 S 
ENDROOT
BRANCH   1   9
ATOM      6  C   UNL     1       1.783   3.032  21.431  0.00  0.00    +0.000 A 
ATOM      7  C   UNL     1       3.040   2.512  21.153  0.00  0.00    +0.000 A 
ATOM      8  C   UNL     1       3.728   2.943  20.013  0.00  0.00    +0.000 A 
ATOM      9  C   UNL     1       3.169   3.901  19.149  0.00  0.00    +0.000 A 
ATOM     10  C   UNL     1       1.890   4.397  19.449  0.00  0.00    +0.000 A 
ATOM     11  C   UNL     1       1.200   3.966  20.585  0.00  0.00    +0.000 A 
BRANCH   6  12
ATOM     12  O   UNL     1       1.083   2.652  22.536  0.00  0.00    +0.000 OA
ATOM     13  H   UNL     1       0.297   3.217  22.615  0.00  0.00    +0.000 HD
ENDBRANCH   6  12
ENDBRANCH   1   9
BRANCH   4  14
ATOM     14  C   UNL     1       5.823   4.438  14.590  0.00  0.00    +0.000 A 
ATOM     15  C   UNL     1       6.990   5.180  14.338  0.00  0.00    +0.000 A 
ATOM     16  C   UNL     1       7.682   5.046  13.132  0.00  0.00    +0.000 A 
ATOM     17  C   UNL     1       7.212   4.175  12.152  0.00  0.00    +0.000 A 
ATOM     18  C   UNL     1       6.053   3.444  12.391  0.00  0.00    +0.000 A 
ATOM     19  C   UNL     1       5.363   3.564  13.595  0.00  0.00    +0.000 A 
BRANCH  18  20
ATOM     20  O   UNL     1       5.544   2.594  11.454  0.00  0.00    +0.000 OA
ATOM     21  H   UNL     1       4.636   2.359  11.711  0.00  0.00    +0.000 HD
ENDBRANCH  18  20
ENDBRANCH   4  14
TORSDOF 4
ENDMDL
MODEL 7
REMARK VINA RESULT:      -7.0      5.148      8.839
REMARK  Name = 
REMARK  4 active torsions:
REMARK  status: ('A' for Active; 'I' for Inactive)
REMARK    1  A    between atoms: O_1  and  C_2
REMARK    2  A    between atoms: C_5  and  C_6
REMARK    3  A    between atoms: C_9  and  C_10
REMARK    4  A    between atoms: C_14  and  O_15
REMARK                            x       y       z     vdW  Elec       q    Type
REMARK                         _______ _______ _______ _____ _____    ______ ____
ROOT
ATOM      1  C   UNL     1       2.581   7.617  18.357  0.00  0.00    +0.000 A 
ATOM      2  C   UNL     1       2.132   8.794  17.786  0.00  0.00    +0.000 A 
ATOM      3  N   UNL     1       1.354   9.607  18.584  0.00  0.00    +0.000 NA
ATOM      4  C   UNL     1       1.230   9.074  19.783  0.00  0.00    +0.000 A 
ATOM      5  S   UNL     1       1.997   7.547  19.974  0.00  0.00    +0.000 S 
ENDROOT
BRANCH   1   9
ATOM      6  C   UNL     1       4.878   4.415  16.695  0.00  0.00    +0.000 A 
ATOM      7  C   UNL     1       5.299   5.724  16.498  0.00  0.00    +0.000 A 
ATOM      8  C   UNL     1       4.547   6.777  17.031  0.00  0.00    +0.000 A 
ATOM      9  C   UNL     1       3.376   6.531  17.769  0.00  0.00    +0.000 A 
ATOM     10  C   UNL     1       2.968   5.197  17.936  0.00  0.00    +0.000 A 
ATOM     11  C   UNL     1       3.716   4.144  17.404  0.00  0.00    +0.000 A 
BRANCH   6  12
ATOM     12  O   UNL     1       5.585   3.358  16.206  0.00  0.00    +0.000 OA
ATOM     13  H   UNL     1       6.408   3.273  16.714  0.00  0.00    +0.000 HD
ENDBRANCH   6  12
ENDBRANCH   1   9
BRANCH   4  14
ATOM     14  C   UNL     1       0.464   9.687  20.877  0.00  0.00    +0.000 A 
ATOM     15  C   UNL     1       0.498   9.092  22.149  0.00  0.00    +0.000 A 
ATOM     16  C   UNL     1      -0.240   9.619  23.212  0.00  0.00    +0.000 A 
ATOM     17  C   UNL     1      -1.034  10.746  23.017  0.00  0.00    +0.000 A 
ATOM     18  C   UNL     1      -1.081  11.335  21.758  0.00  0.00    +0.000 A 
ATOM     19  C   UNL     1      -0.340  10.822  20.696  0.00  0.00    +0.000 A 
BRANCH  18  20
ATOM     20  O   UNL     1      -1.860  12.428  21.514  0.00  0.00    +0.000 OA
ATOM     21  H   UNL     1      -2.466  12.550  22.264  0.00  0.00    +0.000 HD
ENDBRANCH  18  20
ENDBRANCH   4  14
TORSDOF 4
ENDMDL
MODEL 8
REMARK VINA RESULT:      -6.9      5.148      8.837
REMARK  Name = 
REMARK  4 active torsions:
REMARK  status: ('A' for Active; 'I' for Inactive)
REMARK    1  A    between atoms: O_1  and  C_2
REMARK    2  A    between atoms: C_5  and  C_6
REMARK    3  A    between atoms: C_9  and  C_10
REMARK    4  A    between atoms: C_14  and  O_15
REMARK                            x       y       z     vdW  Elec       q    Type
REMARK                         _______ _______ _______ _____ _____    ______ ____
ROOT
ATOM      1  C   UNL     1       2.571   7.575  18.387  0.00  0.00    +0.000 A 
ATOM      2  C   UNL     1       2.132   8.748  17.798  0.00  0.00    +0.000 A 
ATOM      3  N   UNL     1       1.357   9.576  18.582  0.00  0.00    +0.000 NA
ATOM      4  C   UNL     1       1.225   9.061  19.788  0.00  0.00    +0.000 A 
ATOM      5  S   UNL     1       1.981   7.531  20.002  0.00  0.00    +0.000 S 
ENDROOT
BRANCH   1   9
ATOM      6  C   UNL     1       4.888   4.415  16.674  0.00  0.00    +0.000 A 
ATOM      7  C   UNL     1       3.735   4.102  17.381  0.00  0.00    +0.000 A 
ATOM      8  C   UNL     1       2.977   5.130  17.953  0.00  0.00    +0.000 A 
ATOM      9  C   UNL     1       3.361   6.476  17.816  0.00  0.00    +0.000 A 
ATOM     10  C   UNL     1       4.541   6.758  17.108  0.00  0.00    +0.000 A 
ATOM     11  C   UNL     1       5.301   5.733  16.538  0.00  0.00    +0.000 A 
BRANCH   6  12
ATOM     12  O   UNL     1       5.650   3.448  16.090  0.00  0.00    +0.000 OA
ATOM     13  H   UNL     1       6.231   3.866  15.433  0.00  0.00    +0.000 HD
ENDBRANCH   6  12
ENDBRANCH   1   9
BRANCH   4  14
ATOM     14  C   UNL     1       0.459   9.694  20.871  0.00  0.00    +0.000 A 
ATOM     15  C   UNL     1       0.476   9.109  22.148  0.00  0.00    +0.000 A 
ATOM     16  C   UNL     1      -0.262   9.656  23.201  0.00  0.00    +0.000 A 
ATOM     17  C   UNL     1      -1.040  10.791  22.990  0.00  0.00    +0.000 A 
ATOM     18  C   UNL     1      -1.069  11.371  21.726  0.00  0.00    +0.000 A 
ATOM     19  C   UNL     1      -0.327  10.838  20.673  0.00  0.00    +0.000 A 
BRANCH  18  20
ATOM     20  O   UNL     1      -1.832  12.471  21.466  0.00  0.00    +0.000 OA
ATOM     21  H   UNL     1      -2.605  12.196  20.944  0.00  0.00    +0.000 HD
ENDBRANCH  18  20
ENDBRANCH   4  14
TORSDOF 4
ENDMDL
MODEL 9
REMARK VINA RESULT:      -6.9      4.687      6.468
REMARK  Name = 
REMARK  4 active torsions:
REMARK  status: ('A' for Active; 'I' for Inactive)
REMARK    1  A    between atoms: O_1  and  C_2
REMARK    2  A    between atoms: C_5  and  C_6
REMARK    3  A    between atoms: C_9  and  C_10
REMARK    4  A    between atoms: C_14  and  O_15
REMARK                            x       y       z     vdW  Elec       q    Type
REMARK                         _______ _______ _______ _____ _____    ______ ____
ROOT
ATOM      1  C   UNL     1       1.559   7.930  20.002  0.00  0.00    +0.000 A 
ATOM      2  C   UNL     1       2.268   8.038  18.818  0.00  0.00    +0.000 A 
ATOM      3  N   UNL     1       2.799   6.870  18.312  0.00  0.00    +0.000 NA
ATOM      4  C   UNL     1       2.473   5.854  19.085  0.00  0.00    +0.000 A 
ATOM      5  S   UNL     1       1.563   6.278  20.482  0.00  0.00    +0.000 S 
ENDROOT
BRANCH   1   9
ATOM      6  C   UNL     1      -0.336  10.925  22.395  0.00  0.00    +0.000 A 
ATOM      7  C   UNL     1       0.002  11.222  21.081  0.00  0.00    +0.000 A 
ATOM      8  C   UNL     1       0.631  10.250  20.295  0.00  0.00    +0.000 A 
ATOM      9  C   UNL     1       0.920   8.975  20.812  0.00  0.00    +0.000 A 
ATOM     10  C   UNL     1       0.579   8.711  22.149  0.00  0.00    +0.000 A 
ATOM     11  C   UNL     1      -0.047   9.680  22.937  0.00  0.00    +0.000 A 
BRANCH   6  12
ATOM     12  O   UNL     1      -0.961  11.835  23.193  0.00  0.00    +0.000 OA
ATOM     13  H   UNL     1      -1.522  11.359  23.826  0.00  0.00    +0.000 HD
ENDBRANCH   6  12
ENDBRANCH   1   9
BRANCH   4  14
ATOM     14  C   UNL     1       2.878   4.465  18.828  0.00  0.00    +0.000 A 
ATOM     15  C   UNL     1       2.232   3.745  17.809  0.00  0.00    +0.000 A 
ATOM     16  C   UNL     1       2.561   2.412  17.550  0.00  0.00    +0.000 A 
ATOM     17  C   UNL     1       3.533   1.773  18.314  0.00  0.00    +0.000 A 
ATOM     18  C   UNL     1       4.171   2.477  19.331  0.00  0.00    +0.000 A 
ATOM     19  C   UNL     1       3.857   3.810  19.589  0.00  0.00    +0.000 A 
BRANCH  18  20
ATOM     20  O   UNL     1       5.115   1.888  20.118  0.00  0.00    +0.000 OA
ATOM     21  H   UNL     1       5.296   0.998  19.772  0.00  0.00    +0.000 HD
ENDBRANCH  18  20
ENDBRANCH   4  14
TORSDOF 4
ENDMDL
