MODEL 1
REMARK VINA RESULT:      -7.6      0.000      0.000
REMARK  Name = 
REMARK  9 active torsions:
REMARK  status: ('A' for Active; 'I' for Inactive)
REMARK    1  A    between atoms: C_1  and  C_2
REMARK    2  A    between atoms: C_2  and  C_3
REMARK    3  A    between atoms: N_10  and  O_11
REMARK    4  A    between atoms: O_11  and  C_12
REMARK    5  A    between atoms: C_12  and  C_13
REMARK    6  A    between atoms: C_13  and  C_14
REMARK    7  A    between atoms: C_14  and  C_15
REMARK    8  A    between atoms: C_15  and  O_16
REMARK    9  A    between atoms: O_16  and  C_17
REMARK                            x       y       z     vdW  Elec       q    Type
REMARK                         _______ _______ _______ _____ _____    ______ ____
ROOT
ATOM      1  C   UNL     1       2.560   5.831  17.937  0.00  0.00    +0.000 C 
ATOM      2  C   UNL     1       2.507   4.904  19.161  0.00  0.00    +0.000 C 
ATOM      3  C   UNL     1       2.126   5.683  20.429  0.00  0.00    +0.000 C 
ATOM      4  N   UNL     1       1.436   3.946  18.920  0.00  0.00    +0.000 N 
ATOM      5  C   UNL     1       1.602   2.542  18.930  0.00  0.00    +0.000 C 
ATOM      6  N   UNL     1       0.473   1.708  18.720  0.00  0.00    +0.000 N 
ATOM      7  N   UNL     1       2.753   2.023  19.158  0.00  0.00    +0.000 NA
ATOM      8  C   UNL     1       3.901   2.821  19.393  0.00  0.00    +0.000 C 
ATOM      9  N   UNL     1       5.021   2.247  19.654  0.00  0.00    +0.000 NA
ATOM     10  N   UNL     1       3.813   4.248  19.369  0.00  0.00    +0.000 N 
ATOM     11  H   UNL     1       0.486   4.316  18.755  0.00  0.00    +0.000 HD
ATOM     12  H   UNL     1      -0.453   2.126  18.558  0.00  0.00    +0.000 HD
ATOM     13  H   UNL     1       0.560   0.682  18.755  0.00  0.00    +0.000 HD
ATOM     14  H   UNL     1       5.099   1.220  19.686  0.00  0.00    +0.000 HD
ENDROOT
BRANCH  10  15
ATOM     15  O   UNL     1       4.912   4.984  19.696  0.00  0.00    +0.000 OA
BRANCH  15  16
ATOM     16  C   UNL     1       5.913   4.763  18.714  0.00  0.00    +0.000 C 
BRANCH  16  17
ATOM     17  C   UNL     1       7.183   5.595  18.972  0.00  0.00    +0.000 C 
BRANCH  17  18
ATOM     18  C   UNL     1       7.584   6.516  17.806  0.00  0.00    +0.000 C 
BRANCH  18  19
ATOM     19  C   UNL     1       6.682   6.266  16.585  0.00  0.00    +0.000 C 
BRANCH  19  20
ATOM     20  O   UNL     1       7.437   5.897  15.484  0.00  0.00    +0.000 OA
BRANCH  20  21
ATOM     21  C   UNL     1       6.995   5.131  14.447  0.00  0.00    +0.000 A 
ATOM     22  C   UNL     1       7.706   5.015  13.231  0.00  0.00    +0.000 A 
ATOM     23  C   UNL     1       7.214   4.211  12.196  0.00  0.00    +0.000 A 
ATOM     24  C   UNL     1       6.016   3.515  12.358  0.00  0.00    +0.000 A 
ATOM     25  C   UNL     1       5.302   3.623  13.554  0.00  0.00    +0.000 A 
ATOM     26  C   UNL     1       5.789   4.426  14.593  0.00  0.00    +0.000 A 
ENDBRANCH  20  21
ENDBRANCH  19  20
ENDBRANCH  18  19
ENDBRANCH  17  18
ENDBRANCH  16  17
ENDBRANCH  15  16
ENDBRANCH  10  15
TORSDOF 7
ENDMDL
MODEL 2
REMARK VINA RESULT:      -7.4      1.336      1.700
REMARK  Name = 
REMARK  9 active torsions:
REMARK  status: ('A' for Active; 'I' for Inactive)
REMARK    1  A    between atoms: C_1  and  C_2
REMARK    2  A    between atoms: C_2  and  C_3
REMARK    3  A    between atoms: N_10  and  O_11
REMARK    4  A    between atoms: O_11  and  C_12
REMARK    5  A    between atoms: C_12  and  C_13
REMARK    6  A    between atoms: C_13  and  C_14
REMARK    7  A    between atoms: C_14  and  C_15
REMARK    8  A    between atoms: C_15  and  O_16
REMARK    9  A    between atoms: O_16  and  C_17
REMARK                            x       y       z     vdW  Elec       q    Type
REMARK                         _______ _______ _______ _____ _____    ______ ____
ROOT
ATOM      1  C   UNL     1       1.313   4.251  17.893  0.00  0.00    +0.000 C 
ATOM      2  C   UNL     1       2.149   4.475  19.162  0.00  0.00    +0.000 C 
ATOM      3  C   UNL     1       2.352   5.973  19.435  0.00  0.00    +0.000 C 
ATOM      4  N   UNL     1       1.376   3.947  20.278  0.00  0.00    +0.000 N 
ATOM      5  C   UNL     1       1.839   2.958  21.175  0.00  0.00    +0.000 C 
ATOM      6  N   UNL     1       1.007   2.550  22.250  0.00  0.00    +0.000 N 
ATOM      7  N   UNL     1       3.012   2.454  21.041  0.00  0.00    +0.000 NA
ATOM      8  C   UNL     1       3.882   2.849  19.995  0.00  0.00    +0.000 C 
ATOM      9  N   UNL     1       5.060   2.339  19.932  0.00  0.00    +0.000 NA
ATOM     10  N   UNL     1       3.468   3.824  19.034  0.00  0.00    +0.000 N 
ATOM     11  H   UNL     1       0.434   4.338  20.440  0.00  0.00    +0.000 HD
ATOM     12  H   UNL     1       0.075   2.970  22.368  0.00  0.00    +0.000 HD
ATOM     13  H   UNL     1       1.333   1.856  22.937  0.00  0.00    +0.000 HD
ATOM     14  H   UNL     1       5.377   1.644  20.624  0.00  0.00    +0.000 HD
ENDROOT
BRANCH  10  15
ATOM     15  O   UNL     1       4.362   4.253  18.099  0.00  0.00    +0.000 OA
BRANCH  15  16
ATOM     16  C   UNL     1       4.888   5.503  18.516  0.00  0.00    +0.000 C 
BRANCH  16  17
ATOM     17  C   UNL     1       6.347   5.396  18.998  0.00  0.00    +0.000 C 
BRANCH  17  18
ATOM     18  C   UNL     1       7.389   5.854  17.962  0.00  0.00    +0.000 C 
BRANCH  18  19
ATOM     19  C   UNL     1       7.454   4.864  16.786  0.00  0.00    +0.000 C 
BRANCH  19  20
ATOM     20  O   UNL     1       7.179   5.505  15.589  0.00  0.00    +0.000 OA
BRANCH  20  21
ATOM     21  C   UNL     1       6.796   4.888  14.435  0.00  0.00    +0.000 A 
ATOM     22  C   UNL     1       5.559   4.217  14.308  0.00  0.00    +0.000 A 
ATOM     23  C   UNL     1       5.207   3.603  13.100  0.00  0.00    +0.000 A 
ATOM     24  C   UNL     1       6.077   3.649  12.011  0.00  0.00    +0.000 A 
ATOM     25  C   UNL     1       7.304   4.307  12.125  0.00  0.00    +0.000 A 
ATOM     26  C   UNL     1       7.662   4.923  13.330  0.00  0.00    +0.000 A 
ENDBRANCH  20  21
ENDBRANCH  19  20
ENDBRANCH  18  19
ENDBRANCH  17  18
ENDBRANCH  16  17
ENDBRANCH  15  16
ENDBRANCH  10  15
TORSDOF 7
ENDMDL
MODEL 3
REMARK VINA RESULT:      -7.3      3.760      7.698
REMARK  Name = 
REMARK  9 active torsions:
REMARK  status: ('A' for Active; 'I' for Inactive)
REMARK    1  A    between atoms: C_1  and  C_2
REMARK    2  A    between atoms: C_2  and  C_3
REMARK    3  A    between atoms: N_10  and  O_11
REMARK    4  A    between atoms: O_11  and  C_12
REMARK    5  A    between atoms: C_12  and  C_13
REMARK    6  A    between atoms: C_13  and  C_14
REMARK    7  A    between atoms: C_14  and  C_15
REMARK    8  A    between atoms: C_15  and  O_16
REMARK    9  A    between atoms: O_16  and  C_17
REMARK                            x       y       z     vdW  Elec       q    Type
REMARK                         _______ _______ _______ _____ _____    ______ ____
ROOT
ATOM      1  C   UNL     1       5.620   5.646  18.428  0.00  0.00    +0.000 C 
ATOM      2  C   UNL     1       4.685   4.453  18.176  0.00  0.00    +0.000 C 
ATOM      3  C   UNL     1       4.665   4.071  16.689  0.00  0.00    +0.000 C 
ATOM      4  N   UNL     1       5.247   3.317  18.893  0.00  0.00    +0.000 N 
ATOM      5  C   UNL     1       4.552   2.561  19.865  0.00  0.00    +0.000 C 
ATOM      6  N   UNL     1       5.193   1.448  20.470  0.00  0.00    +0.000 N 
ATOM      7  N   UNL     1       3.343   2.857  20.179  0.00  0.00    +0.000 NA
ATOM      8  C   UNL     1       2.660   3.947  19.584  0.00  0.00    +0.000 C 
ATOM      9  N   UNL     1       1.437   4.173  19.907  0.00  0.00    +0.000 NA
ATOM     10  N   UNL     1       3.311   4.771  18.613  0.00  0.00    +0.000 N 
ATOM     11  H   UNL     1       6.210   3.026  18.659  0.00  0.00    +0.000 HD
ATOM     12  H   UNL     1       6.155   1.201  20.202  0.00  0.00    +0.000 HD
ATOM     13  H   UNL     1       4.698   0.862  21.156  0.00  0.00    +0.000 HD
ATOM     14  H   UNL     1       0.950   3.581  20.596  0.00  0.00    +0.000 HD
ENDROOT
BRANCH  10  15
ATOM     15  O   UNL     1       2.597   5.749  17.990  0.00  0.00    +0.000 OA
BRANCH  15  16
ATOM     16  C   UNL     1       2.681   6.935  18.765  0.00  0.00    +0.000 C 
BRANCH  16  17
ATOM     17  C   UNL     1       2.752   8.203  17.892  0.00  0.00    +0.000 C 
BRANCH  17  18
ATOM     18  C   UNL     1       1.413   8.947  17.748  0.00  0.00    +0.000 C 
BRANCH  18  19
ATOM     19  C   UNL     1       1.421  10.243  18.577  0.00  0.00    +0.000 C 
BRANCH  19  20
ATOM     20  O   UNL     1       0.167  10.492  19.112  0.00  0.00    +0.000 OA
BRANCH  20  21
ATOM     21  C   UNL     1      -0.153  10.417  20.435  0.00  0.00    +0.000 A 
ATOM     22  C   UNL     1      -0.779  11.478  21.125  0.00  0.00    +0.000 A 
ATOM     23  C   UNL     1      -1.095  11.352  22.483  0.00  0.00    +0.000 A 
ATOM     24  C   UNL     1      -0.792  10.174  23.167  0.00  0.00    +0.000 A 
ATOM     25  C   UNL     1      -0.170   9.119  22.496  0.00  0.00    +0.000 A 
ATOM     26  C   UNL     1       0.147   9.239  21.138  0.00  0.00    +0.000 A 
ENDBRANCH  20  21
ENDBRANCH  19  20
ENDBRANCH  18  19
ENDBRANCH  17  18
ENDBRANCH  16  17
ENDBRANCH  15  16
ENDBRANCH  10  15
TORSDOF 7
ENDMDL
MODEL 4
REMARK VINA RESULT:      -7.3      1.656      2.642
REMARK  Name = 
REMARK  9 active torsions:
REMARK  status: ('A' for Active; 'I' for Inactive)
REMARK    1  A    between atoms: C_1  and  C_2
REMARK    2  A    between atoms: C_2  and  C_3
REMARK    3  A    between atoms: N_10  and  O_11
REMARK    4  A    between atoms: O_11  and  C_12
REMARK    5  A    between atoms: C_12  and  C_13
REMARK    6  A    between atoms: C_13  and  C_14
REMARK    7  A    between atoms: C_14  and  C_15
REMARK    8  A    between atoms: C_15  and  O_16
REMARK    9  A    between atoms: O_16  and  C_17
REMARK                            x       y       z     vdW  Elec       q    Type
REMARK                         _______ _______ _______ _____ _____    ______ ____
ROOT
ATOM      1  C   UNL     1       4.296   3.290  18.041  0.00  0.00    +0.000 C 
ATOM      2  C   UNL     1       2.911   3.758  18.513  0.00  0.00    +0.000 C 
ATOM      3  C   UNL     1       1.818   3.351  17.513  0.00  0.00    +0.000 C 
ATOM      4  N   UNL     1       2.626   3.053  19.755  0.00  0.00    +0.000 N 
ATOM      5  C   UNL     1       2.314   3.685  20.981  0.00  0.00    +0.000 C 
ATOM      6  N   UNL     1       2.015   2.889  22.117  0.00  0.00    +0.000 N 
ATOM      7  N   UNL     1       2.270   4.965  21.061  0.00  0.00    +0.000 NA
ATOM      8  C   UNL     1       2.540   5.796  19.945  0.00  0.00    +0.000 C 
ATOM      9  N   UNL     1       2.443   7.070  20.074  0.00  0.00    +0.000 NA
ATOM     10  N   UNL     1       2.890   5.225  18.682  0.00  0.00    +0.000 N 
ATOM     11  H   UNL     1       2.626   2.020  19.735  0.00  0.00    +0.000 HD
ATOM     12  H   UNL     1       2.031   1.862  22.045  0.00  0.00    +0.000 HD
ATOM     13  H   UNL     1       1.753   3.323  23.013  0.00  0.00    +0.000 HD
ATOM     14  H   UNL     1       2.182   7.497  20.975  0.00  0.00    +0.000 HD
ENDROOT
BRANCH  10  15
ATOM     15  O   UNL     1       3.048   6.046  17.606  0.00  0.00    +0.000 OA
BRANCH  15  16
ATOM     16  C   UNL     1       4.382   5.924  17.136  0.00  0.00    +0.000 C 
BRANCH  16  17
ATOM     17  C   UNL     1       5.291   7.057  17.649  0.00  0.00    +0.000 C 
BRANCH  17  18
ATOM     18  C   UNL     1       6.794   6.809  17.429  0.00  0.00    +0.000 C 
BRANCH  18  19
ATOM     19  C   UNL     1       7.022   5.465  16.715  0.00  0.00    +0.000 C 
BRANCH  19  20
ATOM     20  O   UNL     1       7.441   5.667  15.410  0.00  0.00    +0.000 OA
BRANCH  20  21
ATOM     21  C   UNL     1       7.009   4.961  14.326  0.00  0.00    +0.000 A 
ATOM     22  C   UNL     1       5.859   4.142  14.363  0.00  0.00    +0.000 A 
ATOM     23  C   UNL     1       5.451   3.440  13.223  0.00  0.00    +0.000 A 
ATOM     24  C   UNL     1       6.181   3.544  12.038  0.00  0.00    +0.000 A 
ATOM     25  C   UNL     1       7.322   4.349  11.990  0.00  0.00    +0.000 A 
ATOM     26  C   UNL     1       7.734   5.053  13.127  0.00  0.00    +0.000 A 
ENDBRANCH  20  21
ENDBRANCH  19  20
ENDBRANCH  18  19
ENDBRANCH  17  18
ENDBRANCH  16  17
ENDBRANCH  15  16
ENDBRANCH  10  15
TORSDOF 7
ENDMDL
MODEL 5
REMARK VINA RESULT:      -7.2      1.348      2.298
REMARK  Name = 
REMARK  9 active torsions:
REMARK  status: ('A' for Active; 'I' for Inactive)
REMARK    1  A    between atoms: C_1  and  C_2
REMARK    2  A    between atoms: C_2  and  C_3
REMARK    3  A    between atoms: N_10  and  O_11
REMARK    4  A    between atoms: O_11  and  C_12
REMARK    5  A    between atoms: C_12  and  C_13
REMARK    6  A    between atoms: C_13  and  C_14
REMARK    7  A    between atoms: C_14  and  C_15
REMARK    8  A    between atoms: C_15  and  O_16
REMARK    9  A    between atoms: O_16  and  C_17
REMARK                            x       y       z     vdW  Elec       q    Type
REMARK                         _______ _______ _______ _____ _____    ______ ____
ROOT
ATOM      1  C   UNL     1       1.596   4.240  17.600  0.00  0.00    +0.000 C 
ATOM      2  C   UNL     1       2.285   3.868  18.922  0.00  0.00    +0.000 C 
ATOM      3  C   UNL     1       1.307   3.966  20.102  0.00  0.00    +0.000 C 
ATOM      4  N   UNL     1       2.675   2.469  18.816  0.00  0.00    +0.000 N 
ATOM      5  C   UNL     1       3.995   1.992  18.981  0.00  0.00    +0.000 C 
ATOM      6  N   UNL     1       4.247   0.598  18.894  0.00  0.00    +0.000 N 
ATOM      7  N   UNL     1       4.955   2.805  19.239  0.00  0.00    +0.000 NA
ATOM      8  C   UNL     1       4.742   4.201  19.355  0.00  0.00    +0.000 C 
ATOM      9  N   UNL     1       5.733   4.964  19.652  0.00  0.00    +0.000 NA
ATOM     10  N   UNL     1       3.437   4.756  19.172  0.00  0.00    +0.000 N 
ATOM     11  H   UNL     1       1.933   1.773  18.634  0.00  0.00    +0.000 HD
ATOM     12  H   UNL     1       3.473  -0.054  18.708  0.00  0.00    +0.000 HD
ATOM     13  H   UNL     1       5.194   0.221  19.043  0.00  0.00    +0.000 HD
ATOM     14  H   UNL     1       6.677   4.578  19.798  0.00  0.00    +0.000 HD
ENDROOT
BRANCH  10  15
ATOM     15  O   UNL     1       3.249   6.089  19.387  0.00  0.00    +0.000 OA
BRANCH  15  16
ATOM     16  C   UNL     1       2.956   6.710  18.145  0.00  0.00    +0.000 C 
BRANCH  16  17
ATOM     17  C   UNL     1       4.212   7.297  17.472  0.00  0.00    +0.000 C 
BRANCH  17  18
ATOM     18  C   UNL     1       4.818   6.402  16.376  0.00  0.00    +0.000 C 
BRANCH  18  19
ATOM     19  C   UNL     1       6.347   6.317  16.532  0.00  0.00    +0.000 C 
BRANCH  19  20
ATOM     20  O   UNL     1       6.826   5.120  16.023  0.00  0.00    +0.000 OA
BRANCH  20  21
ATOM     21  C   UNL     1       6.835   4.773  14.705  0.00  0.00    +0.000 A 
ATOM     22  C   UNL     1       5.988   3.773  14.177  0.00  0.00    +0.000 A 
ATOM     23  C   UNL     1       6.029   3.456  12.815  0.00  0.00    +0.000 A 
ATOM     24  C   UNL     1       6.911   4.125  11.965  0.00  0.00    +0.000 A 
ATOM     25  C   UNL     1       7.756   5.113  12.476  0.00  0.00    +0.000 A 
ATOM     26  C   UNL     1       7.718   5.436  13.837  0.00  0.00    +0.000 A 
ENDBRANCH  20  21
ENDBRANCH  19  20
ENDBRANCH  18  19
ENDBRANCH  17  18
ENDBRANCH  16  17
ENDBRANCH  15  16
ENDBRANCH  10  15
TORSDOF 7
ENDMDL
MODEL 6
REMARK VINA RESULT:      -7.2      1.510      3.572
REMARK  Name = 
REMARK  9 active torsions:
REMARK  status: ('A' for Active; 'I' for Inactive)
REMARK    1  A    between atoms: C_1  and  C_2
REMARK    2  A    between atoms: C_2  and  C_3
REMARK    3  A    between atoms: N_10  and  O_11
REMARK    4  A    between atoms: O_11  and  C_12
REMARK    5  A    between atoms: C_12  and  C_13
REMARK    6  A    between atoms: C_13  and  C_14
REMARK    7  A    between atoms: C_14  and  C_15
REMARK    8  A    between atoms: C_15  and  O_16
REMARK    9  A    between atoms: O_16  and  C_17
REMARK                            x       y       z     vdW  Elec       q    Type
REMARK                         _______ _______ _______ _____ _____    ______ ____
ROOT
ATOM      1  C   UNL     1       1.337   4.418  17.807  0.00  0.00    +0.000 C 
ATOM      2  C   UNL     1       2.191   4.601  19.071  0.00  0.00    +0.000 C 
ATOM      3  C   UNL     1       2.399   6.089  19.388  0.00  0.00    +0.000 C 
ATOM      4  N   UNL     1       1.430   4.039  20.180  0.00  0.00    +0.000 N 
ATOM      5  C   UNL     1       1.903   3.022  21.040  0.00  0.00    +0.000 C 
ATOM      6  N   UNL     1       1.085   2.582  22.112  0.00  0.00    +0.000 N 
ATOM      7  N   UNL     1       3.073   2.521  20.875  0.00  0.00    +0.000 NA
ATOM      8  C   UNL     1       3.931   2.947  19.830  0.00  0.00    +0.000 C 
ATOM      9  N   UNL     1       5.107   2.438  19.736  0.00  0.00    +0.000 NA
ATOM     10  N   UNL     1       3.507   3.952  18.906  0.00  0.00    +0.000 N 
ATOM     11  H   UNL     1       0.492   4.427  20.367  0.00  0.00    +0.000 HD
ATOM     12  H   UNL     1       0.155   2.999  22.255  0.00  0.00    +0.000 HD
ATOM     13  H   UNL     1       1.418   1.865  22.773  0.00  0.00    +0.000 HD
ATOM     14  H   UNL     1       5.432   1.720  20.401  0.00  0.00    +0.000 HD
ENDROOT
BRANCH  10  15
ATOM     15  O   UNL     1       4.389   4.409  17.973  0.00  0.00    +0.000 OA
BRANCH  15  16
ATOM     16  C   UNL     1       4.170   3.706  16.760  0.00  0.00    +0.000 C 
BRANCH  16  17
ATOM     17  C   UNL     1       4.643   4.500  15.528  0.00  0.00    +0.000 C 
BRANCH  17  18
ATOM     18  C   UNL     1       5.734   3.794  14.702  0.00  0.00    +0.000 C 
BRANCH  18  19
ATOM     19  C   UNL     1       7.004   4.659  14.632  0.00  0.00    +0.000 C 
BRANCH  19  20
ATOM     20  O   UNL     1       6.871   5.791  15.420  0.00  0.00    +0.000 OA
BRANCH  20  21
ATOM     21  C   UNL     1       7.311   5.912  16.704  0.00  0.00    +0.000 A 
ATOM     22  C   UNL     1       7.586   4.792  17.521  0.00  0.00    +0.000 A 
ATOM     23  C   UNL     1       8.042   4.966  18.833  0.00  0.00    +0.000 A 
ATOM     24  C   UNL     1       8.228   6.250  19.345  0.00  0.00    +0.000 A 
ATOM     25  C   UNL     1       7.957   7.365  18.549  0.00  0.00    +0.000 A 
ATOM     26  C   UNL     1       7.501   7.197  17.236  0.00  0.00    +0.000 A 
ENDBRANCH  20  21
ENDBRANCH  19  20
ENDBRANCH  18  19
ENDBRANCH  17  18
ENDBRANCH  16  17
ENDBRANCH  15  16
ENDBRANCH  10  15
TORSDOF 7
ENDMDL
MODEL 7
REMARK VINA RESULT:      -7.1      1.607      2.354
REMARK  Name = 
REMARK  9 active torsions:
REMARK  status: ('A' for Active; 'I' for Inactive)
REMARK    1  A    between atoms: C_1  and  C_2
REMARK    2  A    between atoms: C_2  and  C_3
REMARK    3  A    between atoms: N_10  and  O_11
REMARK    4  A    between atoms: O_11  and  C_12
REMARK    5  A    between atoms: C_12  and  C_13
REMARK    6  A    between atoms: C_13  and  C_14
REMARK    7  A    between atoms: C_14  and  C_15
REMARK    8  A    between atoms: C_15  and  O_16
REMARK    9  A    between atoms: O_16  and  C_17
REMARK                            x       y       z     vdW  Elec       q    Type
REMARK                         _______ _______ _______ _____ _____    ______ ____
ROOT
ATOM      1  C   UNL     1       3.644   2.453  18.214  0.00  0.00    +0.000 C 
ATOM      2  C   UNL     1       2.392   3.182  18.725  0.00  0.00    +0.000 C 
ATOM      3  C   UNL     1       1.215   3.011  17.753  0.00  0.00    +0.000 C 
ATOM      4  N   UNL     1       2.004   2.534  19.971  0.00  0.00    +0.000 N 
ATOM      5  C   UNL     1       1.855   3.202  21.208  0.00  0.00    +0.000 C 
ATOM      6  N   UNL     1       1.433   2.469  22.347  0.00  0.00    +0.000 N 
ATOM      7  N   UNL     1       2.069   4.464  21.297  0.00  0.00    +0.000 NA
ATOM      8  C   UNL     1       2.471   5.237  20.178  0.00  0.00    +0.000 C 
ATOM      9  N   UNL     1       2.634   6.504  20.317  0.00  0.00    +0.000 NA
ATOM     10  N   UNL     1       2.668   4.622  18.903  0.00  0.00    +0.000 N 
ATOM     11  H   UNL     1       1.798   1.522  19.945  0.00  0.00    +0.000 HD
ATOM     12  H   UNL     1       1.242   1.461  22.270  0.00  0.00    +0.000 HD
ATOM     13  H   UNL     1       1.286   2.937  23.253  0.00  0.00    +0.000 HD
ATOM     14  H   UNL     1       2.485   6.964  21.227  0.00  0.00    +0.000 HD
ENDROOT
BRANCH  10  15
ATOM     15  O   UNL     1       2.959   5.407  17.828  0.00  0.00    +0.000 OA
BRANCH  15  16
ATOM     16  C   UNL     1       4.355   5.334  17.579  0.00  0.00    +0.000 C 
BRANCH  16  17
ATOM     17  C   UNL     1       5.079   6.655  17.901  0.00  0.00    +0.000 C 
BRANCH  17  18
ATOM     18  C   UNL     1       6.295   6.944  17.004  0.00  0.00    +0.000 C 
BRANCH  18  19
ATOM     19  C   UNL     1       7.032   5.639  16.655  0.00  0.00    +0.000 C 
BRANCH  19  20
ATOM     20  O   UNL     1       7.583   5.712  15.386  0.00  0.00    +0.000 OA
BRANCH  20  21
ATOM     21  C   UNL     1       7.135   5.029  14.294  0.00  0.00    +0.000 A 
ATOM     22  C   UNL     1       7.795   5.078  13.045  0.00  0.00    +0.000 A 
ATOM     23  C   UNL     1       7.300   4.355  11.954  0.00  0.00    +0.000 A 
ATOM     24  C   UNL     1       6.148   3.579  12.090  0.00  0.00    +0.000 A 
ATOM     25  C   UNL     1       5.486   3.525  13.319  0.00  0.00    +0.000 A 
ATOM     26  C   UNL     1       5.976   4.246  14.414  0.00  0.00    +0.000 A 
ENDBRANCH  20  21
ENDBRANCH  19  20
ENDBRANCH  18  19
ENDBRANCH  17  18
ENDBRANCH  16  17
ENDBRANCH  15  16
ENDBRANCH  10  15
TORSDOF 7
ENDMDL
MODEL 8
REMARK VINA RESULT:      -7.0      1.962      2.402
REMARK  Name = 
REMARK  9 active torsions:
REMARK  status: ('A' for Active; 'I' for Inactive)
REMARK    1  A    between atoms: C_1  and  C_2
REMARK    2  A    between atoms: C_2  and  C_3
REMARK    3  A    between atoms: N_10  and  O_11
REMARK    4  A    between atoms: O_11  and  C_12
REMARK    5  A    between atoms: C_12  and  C_13
REMARK    6  A    between atoms: C_13  and  C_14
REMARK    7  A    between atoms: C_14  and  C_15
REMARK    8  A    between atoms: C_15  and  O_16
REMARK    9  A    between atoms: O_16  and  C_17
REMARK                            x       y       z     vdW  Elec       q    Type
REMARK                         _______ _______ _______ _____ _____    ______ ____
ROOT
ATOM      1  C   UNL     1       1.477   4.425  17.860  0.00  0.00    +0.000 C 
ATOM      2  C   UNL     1       2.299   4.579  19.149  0.00  0.00    +0.000 C 
ATOM      3  C   UNL     1       2.543   6.059  19.477  0.00  0.00    +0.000 C 
ATOM      4  N   UNL     1       1.491   4.037  20.233  0.00  0.00    +0.000 N 
ATOM      5  C   UNL     1       1.908   3.004  21.103  0.00  0.00    +0.000 C 
ATOM      6  N   UNL     1       1.046   2.585  22.150  0.00  0.00    +0.000 N 
ATOM      7  N   UNL     1       3.067   2.468  20.970  0.00  0.00    +0.000 NA
ATOM      8  C   UNL     1       3.966   2.871  19.951  0.00  0.00    +0.000 C 
ATOM      9  N   UNL     1       5.129   2.327  19.889  0.00  0.00    +0.000 NA
ATOM     10  N   UNL     1       3.599   3.891  19.018  0.00  0.00    +0.000 N 
ATOM     11  H   UNL     1       0.559   4.452  20.395  0.00  0.00    +0.000 HD
ATOM     12  H   UNL     1       0.126   3.030  22.268  0.00  0.00    +0.000 HD
ATOM     13  H   UNL     1       1.339   1.858  22.817  0.00  0.00    +0.000 HD
ATOM     14  H   UNL     1       5.413   1.599  20.560  0.00  0.00    +0.000 HD
ENDROOT
BRANCH  10  15
ATOM     15  O   UNL     1       4.521   4.324  18.113  0.00  0.00    +0.000 OA
BRANCH  15  16
ATOM     16  C   UNL     1       4.247   3.714  16.862  0.00  0.00    +0.000 C 
BRANCH  16  17
ATOM     17  C   UNL     1       4.944   4.434  15.692  0.00  0.00    +0.000 C 
BRANCH  17  18
ATOM     18  C   UNL     1       6.280   3.801  15.266  0.00  0.00    +0.000 C 
BRANCH  18  19
ATOM     19  C   UNL     1       7.130   4.810  14.475  0.00  0.00    +0.000 C 
BRANCH  19  20
ATOM     20  O   UNL     1       6.775   4.808  13.136  0.00  0.00    +0.000 OA
BRANCH  20  21
ATOM     21  C   UNL     1       6.530   3.694  12.389  0.00  0.00    +0.000 A 
ATOM     22  C   UNL     1       7.565   2.877  11.882  0.00  0.00    +0.000 A 
ATOM     23  C   UNL     1       7.263   1.739  11.124  0.00  0.00    +0.000 A 
ATOM     24  C   UNL     1       5.934   1.403  10.863  0.00  0.00    +0.000 A 
ATOM     25  C   UNL     1       4.902   2.205  11.355  0.00  0.00    +0.000 A 
ATOM     26  C   UNL     1       5.198   3.344  12.114  0.00  0.00    +0.000 A 
ENDBRANCH  20  21
ENDBRANCH  19  20
ENDBRANCH  18  19
ENDBRANCH  17  18
ENDBRANCH  16  17
ENDBRANCH  15  16
ENDBRANCH  10  15
TORSDOF 7
ENDMDL
MODEL 9
REMARK VINA RESULT:      -6.8      3.278      5.404
REMARK  Name = 
REMARK  9 active torsions:
REMARK  status: ('A' for Active; 'I' for Inactive)
REMARK    1  A    between atoms: C_1  and  C_2
REMARK    2  A    between atoms: C_2  and  C_3
REMARK    3  A    between atoms: N_10  and  O_11
REMARK    4  A    between atoms: O_11  and  C_12
REMARK    5  A    between atoms: C_12  and  C_13
REMARK    6  A    between atoms: C_13  and  C_14
REMARK    7  A    between atoms: C_14  and  C_15
REMARK    8  A    between atoms: C_15  and  O_16
REMARK    9  A    between atoms: O_16  and  C_17
REMARK                            x       y       z     vdW  Elec       q    Type
REMARK                         _______ _______ _______ _____ _____    ______ ____
ROOT
ATOM      1  C   UNL     1       3.478   5.772  17.497  0.00  0.00    +0.000 C 
ATOM      2  C   UNL     1       3.261   5.090  18.857  0.00  0.00    +0.000 C 
ATOM      3  C   UNL     1       3.116   6.128  19.980  0.00  0.00    +0.000 C 
ATOM      4  N   UNL     1       1.991   4.381  18.777  0.00  0.00    +0.000 N 
ATOM      5  C   UNL     1       1.831   2.997  19.017  0.00  0.00    +0.000 C 
ATOM      6  N   UNL     1       0.535   2.424  18.947  0.00  0.00    +0.000 N 
ATOM      7  N   UNL     1       2.842   2.268  19.327  0.00  0.00    +0.000 NA
ATOM      8  C   UNL     1       4.150   2.805  19.428  0.00  0.00    +0.000 C 
ATOM      9  N   UNL     1       5.118   2.037  19.780  0.00  0.00    +0.000 NA
ATOM     10  N   UNL     1       4.389   4.191  19.171  0.00  0.00    +0.000 N 
ATOM     11  H   UNL     1       1.144   4.929  18.554  0.00  0.00    +0.000 HD
ATOM     12  H   UNL     1      -0.277   3.013  18.719  0.00  0.00    +0.000 HD
ATOM     13  H   UNL     1       0.387   1.425  19.150  0.00  0.00    +0.000 HD
ATOM     14  H   UNL     1       4.960   1.038  19.980  0.00  0.00    +0.000 HD
ENDROOT
BRANCH  10  15
ATOM     15  O   UNL     1       5.639   4.695  19.371  0.00  0.00    +0.000 OA
BRANCH  15  16
ATOM     16  C   UNL     1       6.187   5.060  18.114  0.00  0.00    +0.000 C 
BRANCH  16  17
ATOM     17  C   UNL     1       7.513   5.831  18.253  0.00  0.00    +0.000 C 
BRANCH  17  18
ATOM     18  C   UNL     1       7.491   7.242  17.638  0.00  0.00    +0.000 C 
BRANCH  18  19
ATOM     19  C   UNL     1       8.325   8.216  18.488  0.00  0.00    +0.000 C 
BRANCH  19  20
ATOM     20  O   UNL     1       8.413   9.454  17.873  0.00  0.00    +0.000 OA
BRANCH  20  21
ATOM     21  C   UNL     1       8.957  10.573  18.429  0.00  0.00    +0.000 A 
ATOM     22  C   UNL     1       8.796  11.857  17.864  0.00  0.00    +0.000 A 
ATOM     23  C   UNL     1       9.369  12.978  18.475  0.00  0.00    +0.000 A 
ATOM     24  C   UNL     1      10.106  12.835  19.652  0.00  0.00    +0.000 A 
ATOM     25  C   UNL     1      10.275  11.570  20.219  0.00  0.00    +0.000 A 
ATOM     26  C   UNL     1       9.704  10.445  19.612  0.00  0.00    +0.000 A 
ENDBRANCH  20  21
ENDBRANCH  19  20
ENDBRANCH  18  19
ENDBRANCH  17  18
ENDBRANCH  16  17
ENDBRANCH  15  16
ENDBRANCH  10  15
TORSDOF 7
ENDMDL
