MODEL 1
REMARK VINA RESULT:      -6.7      0.000      0.000
REMARK  Name = 
REMARK  6 active torsions:
REMARK  status: ('A' for Active; 'I' for Inactive)
REMARK    1  A    between atoms: C_1  and  C_2
REMARK    2  A    between atoms: C_9  and  C_10
REMARK    3  A    between atoms: C_9  and  C_18
REMARK    4  A    between atoms: C_13  and  O_14
REMARK    5  A    between atoms: C_16  and  C_17
REMARK    6  A    between atoms: C_23  and  S_24
REMARK                            x       y       z     vdW  Elec       q    Type
REMARK                         _______ _______ _______ _____ _____    ______ ____
ROOT
ATOM      1  C   UNL     1       2.200  12.814  20.843  0.00  0.00    +0.000 C 
ATOM      2  C   UNL     1       1.332  13.763  20.089  0.00  0.00    +0.000 C 
ATOM      3  C   UNL     1       1.906  14.942  19.772  0.00  0.00    +0.000 C 
ATOM      4  C   UNL     1       1.220  15.990  19.003  0.00  0.00    +0.000 C 
ATOM      5  O   UNL     1       1.790  17.033  18.702  0.00  0.00    +0.000 OA
ATOM      6  C   UNL     1      -0.191  15.756  18.678  0.00  0.00    +0.000 C 
ATOM      7  C   UNL     1      -0.763  14.578  18.951  0.00  0.00    +0.000 C 
ATOM      8  C   UNL     1      -0.059  13.449  19.613  0.00  0.00    +0.000 C 
ATOM      9  C   UNL     1      -0.724  12.248  19.749  0.00  0.00    +0.000 C 
ENDROOT
BRANCH   9  10
ATOM     10  C   UNL     1      -2.041  12.032  19.021  0.00  0.00    +0.000 A 
ATOM     11  C   UNL     1      -1.968  11.591  17.680  0.00  0.00    +0.000 A 
ATOM     12  C   UNL     1      -3.115  11.357  16.917  0.00  0.00    +0.000 A 
ATOM     13  C   UNL     1      -4.360  11.563  17.486  0.00  0.00    +0.000 A 
ATOM     14  C   UNL     1      -4.470  12.022  18.793  0.00  0.00    +0.000 A 
ATOM     15  C   UNL     1      -3.322  12.278  19.572  0.00  0.00    +0.000 A 
ATOM     16  C   UNL     1      -3.533  12.845  20.946  0.00  0.00    +0.000 C 
BRANCH  13  17
ATOM     17  O   UNL     1      -5.512  11.340  16.790  0.00  0.00    +0.000 OA
ATOM     18  H   UNL     1      -5.709  12.138  16.270  0.00  0.00    +0.000 HD
ENDBRANCH  13  17
ENDBRANCH   9  10
BRANCH   9  19
ATOM     19  C   UNL     1      -0.221  11.114  20.606  0.00  0.00    +0.000 A 
ATOM     20  C   UNL     1      -0.602  11.176  21.968  0.00  0.00    +0.000 A 
ATOM     21  C   UNL     1      -0.250  10.189  22.900  0.00  0.00    +0.000 A 
ATOM     22  C   UNL     1       0.529   9.113  22.506  0.00  0.00    +0.000 A 
ATOM     23  C   UNL     1       0.930   9.024  21.177  0.00  0.00    +0.000 A 
ATOM     24  C   UNL     1       0.538   9.993  20.223  0.00  0.00    +0.000 A 
BRANCH  24  25
ATOM     25  S   UNL     1       1.185   9.711  18.545  0.00  0.00    +0.000 S 
ATOM     26  O   UNL     1       0.006   9.527  17.730  0.00  0.00    +0.000 OA
ATOM     27  O   UNL     1       1.887  10.980  18.301  0.00  0.00    +0.000 OA
ATOM     28  O   UNL     1       2.040   8.545  18.753  0.00  0.00    +0.000 OA
ENDBRANCH  24  25
ENDBRANCH   9  19
TORSDOF 4
ENDMDL
MODEL 2
REMARK VINA RESULT:      -6.4      2.708      5.969
REMARK  Name = 
REMARK  6 active torsions:
REMARK  status: ('A' for Active; 'I' for Inactive)
REMARK    1  A    between atoms: C_1  and  C_2
REMARK    2  A    between atoms: C_9  and  C_10
REMARK    3  A    between atoms: C_9  and  C_18
REMARK    4  A    between atoms: C_13  and  O_14
REMARK    5  A    between atoms: C_16  and  C_17
REMARK    6  A    between atoms: C_23  and  S_24
REMARK                            x       y       z     vdW  Elec       q    Type
REMARK                         _______ _______ _______ _____ _____    ______ ____
ROOT
ATOM      1  C   UNL     1      -0.952  13.471  18.233  0.00  0.00    +0.000 C 
ATOM      2  C   UNL     1      -1.466  12.089  18.015  0.00  0.00    +0.000 C 
ATOM      3  C   UNL     1      -2.486  11.985  17.138  0.00  0.00    +0.000 C 
ATOM      4  C   UNL     1      -3.102  10.702  16.769  0.00  0.00    +0.000 C 
ATOM      5  O   UNL     1      -4.002  10.646  15.939  0.00  0.00    +0.000 OA
ATOM      6  C   UNL     1      -2.637   9.512  17.491  0.00  0.00    +0.000 C 
ATOM      7  C   UNL     1      -1.602   9.593  18.334  0.00  0.00    +0.000 C 
ATOM      8  C   UNL     1      -0.872  10.853  18.632  0.00  0.00    +0.000 C 
ATOM      9  C   UNL     1       0.245  10.792  19.440  0.00  0.00    +0.000 C 
ENDROOT
BRANCH   9  10
ATOM     10  C   UNL     1       0.835   9.439  19.803  0.00  0.00    +0.000 A 
ATOM     11  C   UNL     1       0.509   8.917  21.076  0.00  0.00    +0.000 A 
ATOM     12  C   UNL     1       0.993   7.681  21.512  0.00  0.00    +0.000 A 
ATOM     13  C   UNL     1       1.815   6.943  20.678  0.00  0.00    +0.000 A 
ATOM     14  C   UNL     1       2.178   7.436  19.431  0.00  0.00    +0.000 A 
ATOM     15  C   UNL     1       1.711   8.690  18.981  0.00  0.00    +0.000 A 
ATOM     16  C   UNL     1       2.216   9.177  17.654  0.00  0.00    +0.000 C 
BRANCH  13  17
ATOM     17  O   UNL     1       2.306   5.726  21.050  0.00  0.00    +0.000 OA
ATOM     18  H   UNL     1       1.812   5.041  20.567  0.00  0.00    +0.000 HD
ENDBRANCH  13  17
ENDBRANCH   9  10
BRANCH   9  19
ATOM     19  C   UNL     1       0.923  12.011  20.011  0.00  0.00    +0.000 A 
ATOM     20  C   UNL     1       2.040  12.477  19.276  0.00  0.00    +0.000 A 
ATOM     21  C   UNL     1       2.769  13.617  19.643  0.00  0.00    +0.000 A 
ATOM     22  C   UNL     1       2.424  14.317  20.789  0.00  0.00    +0.000 A 
ATOM     23  C   UNL     1       1.339  13.883  21.541  0.00  0.00    +0.000 A 
ATOM     24  C   UNL     1       0.571  12.760  21.148  0.00  0.00    +0.000 A 
BRANCH  24  25
ATOM     25  S   UNL     1      -0.792  12.339  22.279  0.00  0.00    +0.000 S 
ATOM     26  O   UNL     1      -0.316  11.181  23.001  0.00  0.00    +0.000 OA
ATOM     27  O   UNL     1      -0.865  13.561  23.093  0.00  0.00    +0.000 OA
ATOM     28  O   UNL     1      -1.895  12.135  21.345  0.00  0.00    +0.000 OA
ENDBRANCH  24  25
ENDBRANCH   9  19
TORSDOF 4
ENDMDL
MODEL 3
REMARK VINA RESULT:      -6.4      1.791      2.341
REMARK  Name = 
REMARK  6 active torsions:
REMARK  status: ('A' for Active; 'I' for Inactive)
REMARK    1  A    between atoms: C_1  and  C_2
REMARK    2  A    between atoms: C_9  and  C_10
REMARK    3  A    between atoms: C_9  and  C_18
REMARK    4  A    between atoms: C_13  and  O_14
REMARK    5  A    between atoms: C_16  and  C_17
REMARK    6  A    between atoms: C_23  and  S_24
REMARK                            x       y       z     vdW  Elec       q    Type
REMARK                         _______ _______ _______ _____ _____    ______ ____
ROOT
ATOM      1  C   UNL     1       1.380  13.028  20.828  0.00  0.00    +0.000 C 
ATOM      2  C   UNL     1       0.362  14.116  20.779  0.00  0.00    +0.000 C 
ATOM      3  C   UNL     1       0.849  15.350  20.533  0.00  0.00    +0.000 C 
ATOM      4  C   UNL     1      -0.002  16.542  20.414  0.00  0.00    +0.000 C 
ATOM      5  O   UNL     1       0.475  17.639  20.151  0.00  0.00    +0.000 OA
ATOM      6  C   UNL     1      -1.432  16.365  20.693  0.00  0.00    +0.000 C 
ATOM      7  C   UNL     1      -1.936  15.143  20.901  0.00  0.00    +0.000 C 
ATOM      8  C   UNL     1      -1.121  13.900  20.899  0.00  0.00    +0.000 C 
ATOM      9  C   UNL     1      -1.769  12.688  21.023  0.00  0.00    +0.000 C 
ENDROOT
BRANCH   9  10
ATOM     10  C   UNL     1      -3.285  12.633  20.916  0.00  0.00    +0.000 A 
ATOM     11  C   UNL     1      -3.831  12.492  19.620  0.00  0.00    +0.000 A 
ATOM     12  C   UNL     1      -5.211  12.427  19.405  0.00  0.00    +0.000 A 
ATOM     13  C   UNL     1      -6.069  12.504  20.488  0.00  0.00    +0.000 A 
ATOM     14  C   UNL     1      -5.569  12.670  21.773  0.00  0.00    +0.000 A 
ATOM     15  C   UNL     1      -4.179  12.753  22.007  0.00  0.00    +0.000 A 
ATOM     16  C   UNL     1      -3.731  13.010  23.416  0.00  0.00    +0.000 C 
BRANCH  13  17
ATOM     17  O   UNL     1      -7.423  12.435  20.335  0.00  0.00    +0.000 OA
ATOM     18  H   UNL     1      -7.772  13.343  20.323  0.00  0.00    +0.000 HD
ENDBRANCH  13  17
ENDBRANCH   9  10
BRANCH   9  19
ATOM     19  C   UNL     1      -1.053  11.387  21.277  0.00  0.00    +0.000 A 
ATOM     20  C   UNL     1      -0.814  11.088  22.641  0.00  0.00    +0.000 A 
ATOM     21  C   UNL     1      -0.190   9.906  23.062  0.00  0.00    +0.000 A 
ATOM     22  C   UNL     1       0.252   8.987  22.123  0.00  0.00    +0.000 A 
ATOM     23  C   UNL     1       0.044   9.251  20.774  0.00  0.00    +0.000 A 
ATOM     24  C   UNL     1      -0.628  10.421  20.347  0.00  0.00    +0.000 A 
BRANCH  24  25
ATOM     25  S   UNL     1      -0.778  10.594  18.541  0.00  0.00    +0.000 S 
ATOM     26  O   UNL     1      -0.631  12.011  18.301  0.00  0.00    +0.000 OA
ATOM     27  O   UNL     1       0.366   9.789  18.089  0.00  0.00    +0.000 OA
ATOM     28  O   UNL     1      -2.095  10.011  18.300  0.00  0.00    +0.000 OA
ENDBRANCH  24  25
ENDBRANCH   9  19
TORSDOF 4
ENDMDL
MODEL 4
REMARK VINA RESULT:      -6.3      2.848      4.143
REMARK  Name = 
REMARK  6 active torsions:
REMARK  status: ('A' for Active; 'I' for Inactive)
REMARK    1  A    between atoms: C_1  and  C_2
REMARK    2  A    between atoms: C_9  and  C_10
REMARK    3  A    between atoms: C_9  and  C_18
REMARK    4  A    between atoms: C_13  and  O_14
REMARK    5  A    between atoms: C_16  and  C_17
REMARK    6  A    between atoms: C_23  and  S_24
REMARK                            x       y       z     vdW  Elec       q    Type
REMARK                         _______ _______ _______ _____ _____    ______ ____
ROOT
ATOM      1  C   UNL     1      -0.144  14.029  18.488  0.00  0.00    +0.000 C 
ATOM      2  C   UNL     1      -0.558  14.921  19.608  0.00  0.00    +0.000 C 
ATOM      3  C   UNL     1      -0.054  16.172  19.565  0.00  0.00    +0.000 C 
ATOM      4  C   UNL     1      -0.374  17.204  20.562  0.00  0.00    +0.000 C 
ATOM      5  O   UNL     1       0.073  18.340  20.465  0.00  0.00    +0.000 OA
ATOM      6  C   UNL     1      -1.194  16.787  21.706  0.00  0.00    +0.000 C 
ATOM      7  C   UNL     1      -1.732  15.563  21.743  0.00  0.00    +0.000 C 
ATOM      8  C   UNL     1      -1.533  14.538  20.687  0.00  0.00    +0.000 C 
ATOM      9  C   UNL     1      -2.222  13.346  20.786  0.00  0.00    +0.000 C 
ENDROOT
BRANCH   9  10
ATOM     10  C   UNL     1      -3.330  13.205  21.818  0.00  0.00    +0.000 A 
ATOM     11  C   UNL     1      -2.976  12.639  23.064  0.00  0.00    +0.000 A 
ATOM     12  C   UNL     1      -3.912  12.465  24.087  0.00  0.00    +0.000 A 
ATOM     13  C   UNL     1      -5.223  12.856  23.878  0.00  0.00    +0.000 A 
ATOM     14  C   UNL     1      -5.613  13.392  22.658  0.00  0.00    +0.000 A 
ATOM     15  C   UNL     1      -4.684  13.560  21.609  0.00  0.00    +0.000 A 
ATOM     16  C   UNL     1      -5.209  14.074  20.299  0.00  0.00    +0.000 C 
BRANCH  13  17
ATOM     17  O   UNL     1      -6.175  12.719  24.847  0.00  0.00    +0.000 OA
ATOM     18  H   UNL     1      -7.028  12.555  24.411  0.00  0.00    +0.000 HD
ENDBRANCH  13  17
ENDBRANCH   9  10
BRANCH   9  19
ATOM     19  C   UNL     1      -1.930  12.144  19.926  0.00  0.00    +0.000 A 
ATOM     20  C   UNL     1      -2.744  12.017  18.774  0.00  0.00    +0.000 A 
ATOM     21  C   UNL     1      -2.589  10.978  17.846  0.00  0.00    +0.000 A 
ATOM     22  C   UNL     1      -1.627  10.001  18.056  0.00  0.00    +0.000 A 
ATOM     23  C   UNL     1      -0.816  10.089  19.181  0.00  0.00    +0.000 A 
ATOM     24  C   UNL     1      -0.937  11.162  20.097  0.00  0.00    +0.000 A 
BRANCH  24  25
ATOM     25  S   UNL     1       0.200  11.082  21.516  0.00  0.00    +0.000 S 
ATOM     26  O   UNL     1      -0.658  10.822  22.650  0.00  0.00    +0.000 OA
ATOM     27  O   UNL     1       1.042   9.940  21.131  0.00  0.00    +0.000 OA
ATOM     28  O   UNL     1       0.841  12.392  21.451  0.00  0.00    +0.000 OA
ENDBRANCH  24  25
ENDBRANCH   9  19
TORSDOF 4
ENDMDL
MODEL 5
REMARK VINA RESULT:      -6.3      2.297      3.287
REMARK  Name = 
REMARK  6 active torsions:
REMARK  status: ('A' for Active; 'I' for Inactive)
REMARK    1  A    between atoms: C_1  and  C_2
REMARK    2  A    between atoms: C_9  and  C_10
REMARK    3  A    between atoms: C_9  and  C_18
REMARK    4  A    between atoms: C_13  and  O_14
REMARK    5  A    between atoms: C_16  and  C_17
REMARK    6  A    between atoms: C_23  and  S_24
REMARK                            x       y       z     vdW  Elec       q    Type
REMARK                         _______ _______ _______ _____ _____    ______ ____
ROOT
ATOM      1  C   UNL     1       0.862  14.083  22.056  0.00  0.00    +0.000 C 
ATOM      2  C   UNL     1       1.215  13.999  20.609  0.00  0.00    +0.000 C 
ATOM      3  C   UNL     1       2.363  14.614  20.259  0.00  0.00    +0.000 C 
ATOM      4  C   UNL     1       2.892  14.610  18.888  0.00  0.00    +0.000 C 
ATOM      5  O   UNL     1       3.959  15.148  18.617  0.00  0.00    +0.000 OA
ATOM      6  C   UNL     1       2.050  13.995  17.855  0.00  0.00    +0.000 C 
ATOM      7  C   UNL     1       0.928  13.349  18.192  0.00  0.00    +0.000 C 
ATOM      8  C   UNL     1       0.432  13.223  19.587  0.00  0.00    +0.000 C 
ATOM      9  C   UNL     1      -0.683  12.444  19.822  0.00  0.00    +0.000 C 
ENDROOT
BRANCH   9  10
ATOM     10  C   UNL     1      -1.225  11.556  18.712  0.00  0.00    +0.000 A 
ATOM     11  C   UNL     1      -2.511  11.865  18.215  0.00  0.00    +0.000 A 
ATOM     12  C   UNL     1      -3.106  11.118  17.194  0.00  0.00    +0.000 A 
ATOM     13  C   UNL     1      -2.419  10.045  16.653  0.00  0.00    +0.000 A 
ATOM     14  C   UNL     1      -1.163   9.696  17.135  0.00  0.00    +0.000 A 
ATOM     15  C   UNL     1      -0.556  10.430  18.176  0.00  0.00    +0.000 A 
ATOM     16  C   UNL     1       0.767   9.936  18.686  0.00  0.00    +0.000 C 
BRANCH  13  17
ATOM     17  O   UNL     1      -2.948   9.289  15.647  0.00  0.00    +0.000 OA
ATOM     18  H   UNL     1      -2.596   8.386  15.731  0.00  0.00    +0.000 HD
ENDBRANCH  13  17
ENDBRANCH   9  10
BRANCH   9  19
ATOM     19  C   UNL     1      -1.424  12.430  21.134  0.00  0.00    +0.000 A 
ATOM     20  C   UNL     1      -2.413  13.433  21.277  0.00  0.00    +0.000 A 
ATOM     21  C   UNL     1      -3.220  13.546  22.419  0.00  0.00    +0.000 A 
ATOM     22  C   UNL     1      -3.040  12.674  23.481  0.00  0.00    +0.000 A 
ATOM     23  C   UNL     1      -2.071  11.682  23.379  0.00  0.00    +0.000 A 
ATOM     24  C   UNL     1      -1.287  11.534  22.210  0.00  0.00    +0.000 A 
BRANCH  24  25
ATOM     25  S   UNL     1      -0.058  10.193  22.285  0.00  0.00    +0.000 S 
ATOM     26  O   UNL     1       1.156  10.787  21.773  0.00  0.00    +0.000 OA
ATOM     27  O   UNL     1      -0.028   9.924  23.730  0.00  0.00    +0.000 OA
ATOM     28  O   UNL     1      -0.695   9.167  21.464  0.00  0.00    +0.000 OA
ENDBRANCH  24  25
ENDBRANCH   9  19
TORSDOF 4
ENDMDL
MODEL 6
REMARK VINA RESULT:      -6.2      6.434      9.354
REMARK  Name = 
REMARK  6 active torsions:
REMARK  status: ('A' for Active; 'I' for Inactive)
REMARK    1  A    between atoms: C_1  and  C_2
REMARK    2  A    between atoms: C_9  and  C_10
REMARK    3  A    between atoms: C_9  and  C_18
REMARK    4  A    between atoms: C_13  and  O_14
REMARK    5  A    between atoms: C_16  and  C_17
REMARK    6  A    between atoms: C_23  and  S_24
REMARK                            x       y       z     vdW  Elec       q    Type
REMARK                         _______ _______ _______ _____ _____    ______ ____
ROOT
ATOM      1  C   UNL     1       2.110   5.499  20.714  0.00  0.00    +0.000 C 
ATOM      2  C   UNL     1       2.368   6.525  19.664  0.00  0.00    +0.000 C 
ATOM      3  C   UNL     1       1.769   7.718  19.864  0.00  0.00    +0.000 C 
ATOM      4  C   UNL     1       1.932   8.862  18.956  0.00  0.00    +0.000 C 
ATOM      5  O   UNL     1       1.403   9.941  19.193  0.00  0.00    +0.000 OA
ATOM      6  C   UNL     1       2.698   8.628  17.726  0.00  0.00    +0.000 C 
ATOM      7  C   UNL     1       3.328   7.464  17.532  0.00  0.00    +0.000 C 
ATOM      8  C   UNL     1       3.290   6.331  18.492  0.00  0.00    +0.000 C 
ATOM      9  C   UNL     1       4.064   5.219  18.230  0.00  0.00    +0.000 C 
ENDROOT
BRANCH   9  10
ATOM     10  C   UNL     1       5.102   5.272  17.120  0.00  0.00    +0.000 A 
ATOM     11  C   UNL     1       4.720   4.755  15.861  0.00  0.00    +0.000 A 
ATOM     12  C   UNL     1       5.592   4.756  14.769  0.00  0.00    +0.000 A 
ATOM     13  C   UNL     1       6.865   5.277  14.920  0.00  0.00    +0.000 A 
ATOM     14  C   UNL     1       7.284   5.769  16.149  0.00  0.00    +0.000 A 
ATOM     15  C   UNL     1       6.422   5.762  17.266  0.00  0.00    +0.000 A 
ATOM     16  C   UNL     1       6.983   6.242  18.573  0.00  0.00    +0.000 C 
BRANCH  13  17
ATOM     17  O   UNL     1       7.752   5.312  13.883  0.00  0.00    +0.000 OA
ATOM     18  H   UNL     1       8.367   6.049  14.038  0.00  0.00    +0.000 HD
ENDBRANCH  13  17
ENDBRANCH   9  10
BRANCH   9  19
ATOM     19  C   UNL     1       3.933   3.921  18.984  0.00  0.00    +0.000 A 
ATOM     20  C   UNL     1       4.936   3.685  19.955  0.00  0.00    +0.000 A 
ATOM     21  C   UNL     1       4.950   2.545  20.771  0.00  0.00    +0.000 A 
ATOM     22  C   UNL     1       3.972   1.574  20.618  0.00  0.00    +0.000 A 
ATOM     23  C   UNL     1       2.977   1.767  19.667  0.00  0.00    +0.000 A 
ATOM     24  C   UNL     1       2.931   2.939  18.874  0.00  0.00    +0.000 A 
BRANCH  24  25
ATOM     25  S   UNL     1       1.565   2.989  17.672  0.00  0.00    +0.000 S 
ATOM     26  O   UNL     1       1.244   4.393  17.550  0.00  0.00    +0.000 OA
ATOM     27  O   UNL     1       2.220   2.422  16.485  0.00  0.00    +0.000 OA
ATOM     28  O   UNL     1       0.575   2.133  18.319  0.00  0.00    +0.000 OA
ENDBRANCH  24  25
ENDBRANCH   9  19
TORSDOF 4
ENDMDL
MODEL 7
REMARK VINA RESULT:      -6.2      2.743      5.099
REMARK  Name = 
REMARK  6 active torsions:
REMARK  status: ('A' for Active; 'I' for Inactive)
REMARK    1  A    between atoms: C_1  and  C_2
REMARK    2  A    between atoms: C_9  and  C_10
REMARK    3  A    between atoms: C_9  and  C_18
REMARK    4  A    between atoms: C_13  and  O_14
REMARK    5  A    between atoms: C_16  and  C_17
REMARK    6  A    between atoms: C_23  and  S_24
REMARK                            x       y       z     vdW  Elec       q    Type
REMARK                         _______ _______ _______ _____ _____    ______ ____
ROOT
ATOM      1  C   UNL     1      -0.997  15.158  19.705  0.00  0.00    +0.000 C 
ATOM      2  C   UNL     1       0.326  14.559  19.371  0.00  0.00    +0.000 C 
ATOM      3  C   UNL     1       1.285  15.441  19.020  0.00  0.00    +0.000 C 
ATOM      4  C   UNL     1       2.661  15.044  18.690  0.00  0.00    +0.000 C 
ATOM      5  O   UNL     1       3.514  15.879  18.413  0.00  0.00    +0.000 OA
ATOM      6  C   UNL     1       2.941  13.604  18.640  0.00  0.00    +0.000 C 
ATOM      7  C   UNL     1       2.012  12.720  19.022  0.00  0.00    +0.000 C 
ATOM      8  C   UNL     1       0.652  13.096  19.485  0.00  0.00    +0.000 C 
ATOM      9  C   UNL     1      -0.184  12.102  19.951  0.00  0.00    +0.000 C 
ENDROOT
BRANCH   9  10
ATOM     10  C   UNL     1       0.375  10.710  20.204  0.00  0.00    +0.000 A 
ATOM     11  C   UNL     1       0.843  10.434  21.508  0.00  0.00    +0.000 A 
ATOM     12  C   UNL     1       1.373   9.188  21.853  0.00  0.00    +0.000 A 
ATOM     13  C   UNL     1       1.443   8.193  20.893  0.00  0.00    +0.000 A 
ATOM     14  C   UNL     1       1.017   8.437  19.594  0.00  0.00    +0.000 A 
ATOM     15  C   UNL     1       0.493   9.694  19.225  0.00  0.00    +0.000 A 
ATOM     16  C   UNL     1       0.129   9.893  17.782  0.00  0.00    +0.000 C 
BRANCH  13  17
ATOM     17  O   UNL     1       1.942   6.956  21.179  0.00  0.00    +0.000 OA
ATOM     18  H   UNL     1       1.297   6.494  21.743  0.00  0.00    +0.000 HD
ENDBRANCH  13  17
ENDBRANCH   9  10
BRANCH   9  19
ATOM     19  C   UNL     1      -1.652  12.309  20.218  0.00  0.00    +0.000 A 
ATOM     20  C   UNL     1      -2.498  12.141  19.095  0.00  0.00    +0.000 A 
ATOM     21  C   UNL     1      -3.892  12.263  19.168  0.00  0.00    +0.000 A 
ATOM     22  C   UNL     1      -4.494  12.596  20.372  0.00  0.00    +0.000 A 
ATOM     23  C   UNL     1      -3.695  12.778  21.495  0.00  0.00    +0.000 A 
ATOM     24  C   UNL     1      -2.290  12.609  21.436  0.00  0.00    +0.000 A 
BRANCH  24  25
ATOM     25  S   UNL     1      -1.422  12.917  23.006  0.00  0.00    +0.000 S 
ATOM     26  O   UNL     1      -0.345  13.813  22.653  0.00  0.00    +0.000 OA
ATOM     27  O   UNL     1      -2.490  13.549  23.794  0.00  0.00    +0.000 OA
ATOM     28  O   UNL     1      -1.057  11.561  23.409  0.00  0.00    +0.000 OA
ENDBRANCH  24  25
ENDBRANCH   9  19
TORSDOF 4
ENDMDL
MODEL 8
REMARK VINA RESULT:      -6.1      2.560      3.945
REMARK  Name = 
REMARK  6 active torsions:
REMARK  status: ('A' for Active; 'I' for Inactive)
REMARK    1  A    between atoms: C_1  and  C_2
REMARK    2  A    between atoms: C_9  and  C_10
REMARK    3  A    between atoms: C_9  and  C_18
REMARK    4  A    between atoms: C_13  and  O_14
REMARK    5  A    between atoms: C_16  and  C_17
REMARK    6  A    between atoms: C_23  and  S_24
REMARK                            x       y       z     vdW  Elec       q    Type
REMARK                         _______ _______ _______ _____ _____    ______ ____
ROOT
ATOM      1  C   UNL     1       1.198  13.251  18.434  0.00  0.00    +0.000 C 
ATOM      2  C   UNL     1       1.157  13.984  19.731  0.00  0.00    +0.000 C 
ATOM      3  C   UNL     1       2.089  14.950  19.877  0.00  0.00    +0.000 C 
ATOM      4  C   UNL     1       2.184  15.801  21.071  0.00  0.00    +0.000 C 
ATOM      5  O   UNL     1       3.020  16.694  21.149  0.00  0.00    +0.000 OA
ATOM      6  C   UNL     1       1.283  15.485  22.185  0.00  0.00    +0.000 C 
ATOM      7  C   UNL     1       0.330  14.556  22.042  0.00  0.00    +0.000 C 
ATOM      8  C   UNL     1       0.123  13.767  20.800  0.00  0.00    +0.000 C 
ATOM      9  C   UNL     1      -0.958  12.911  20.737  0.00  0.00    +0.000 C 
ENDROOT
BRANCH   9  10
ATOM     10  C   UNL     1      -2.027  12.971  21.817  0.00  0.00    +0.000 A 
ATOM     11  C   UNL     1      -2.016  11.943  22.786  0.00  0.00    +0.000 A 
ATOM     12  C   UNL     1      -2.949  11.900  23.826  0.00  0.00    +0.000 A 
ATOM     13  C   UNL     1      -3.913  12.890  23.911  0.00  0.00    +0.000 A 
ATOM     14  C   UNL     1      -3.970  13.902  22.961  0.00  0.00    +0.000 A 
ATOM     15  C   UNL     1      -3.045  13.951  21.896  0.00  0.00    +0.000 A 
ATOM     16  C   UNL     1      -3.229  15.034  20.873  0.00  0.00    +0.000 C 
BRANCH  13  17
ATOM     17  O   UNL     1      -4.840  12.903  24.912  0.00  0.00    +0.000 OA
ATOM     18  H   UNL     1      -5.680  13.223  24.540  0.00  0.00    +0.000 HD
ENDBRANCH  13  17
ENDBRANCH   9  10
BRANCH   9  19
ATOM     19  C   UNL     1      -1.142  11.886  19.647  0.00  0.00    +0.000 A 
ATOM     20  C   UNL     1      -1.983  12.287  18.580  0.00  0.00    +0.000 A 
ATOM     21  C   UNL     1      -2.239  11.473  17.468  0.00  0.00    +0.000 A 
ATOM     22  C   UNL     1      -1.684  10.205  17.398  0.00  0.00    +0.000 A 
ATOM     23  C   UNL     1      -0.860   9.774  18.431  0.00  0.00    +0.000 A 
ATOM     24  C   UNL     1      -0.561  10.610  19.534  0.00  0.00    +0.000 A 
BRANCH  24  25
ATOM     25  S   UNL     1       0.515   9.852  20.792  0.00  0.00    +0.000 S 
ATOM     26  O   UNL     1       1.173  10.971  21.425  0.00  0.00    +0.000 OA
ATOM     27  O   UNL     1      -0.481   9.185  21.643  0.00  0.00    +0.000 OA
ATOM     28  O   UNL     1       1.341   8.967  19.975  0.00  0.00    +0.000 OA
ENDBRANCH  24  25
ENDBRANCH   9  19
TORSDOF 4
ENDMDL
MODEL 9
REMARK VINA RESULT:      -6.0      7.627     10.957
REMARK  Name = 
REMARK  6 active torsions:
REMARK  status: ('A' for Active; 'I' for Inactive)
REMARK    1  A    between atoms: C_1  and  C_2
REMARK    2  A    between atoms: C_9  and  C_10
REMARK    3  A    between atoms: C_9  and  C_18
REMARK    4  A    between atoms: C_13  and  O_14
REMARK    5  A    between atoms: C_16  and  C_17
REMARK    6  A    between atoms: C_23  and  S_24
REMARK                            x       y       z     vdW  Elec       q    Type
REMARK                         _______ _______ _______ _____ _____    ______ ____
ROOT
ATOM      1  C   UNL     1       7.487  13.416  17.326  0.00  0.00    +0.000 C 
ATOM      2  C   UNL     1       6.850  14.420  18.225  0.00  0.00    +0.000 C 
ATOM      3  C   UNL     1       5.642  14.867  17.824  0.00  0.00    +0.000 C 
ATOM      4  C   UNL     1       4.845  15.833  18.595  0.00  0.00    +0.000 C 
ATOM      5  O   UNL     1       3.734  16.185  18.217  0.00  0.00    +0.000 OA
ATOM      6  C   UNL     1       5.473  16.401  19.794  0.00  0.00    +0.000 C 
ATOM      7  C   UNL     1       6.653  15.941  20.224  0.00  0.00    +0.000 C 
ATOM      8  C   UNL     1       7.425  14.873  19.538  0.00  0.00    +0.000 C 
ATOM      9  C   UNL     1       8.580  14.409  20.133  0.00  0.00    +0.000 C 
ENDROOT
BRANCH   9  10
ATOM     10  C   UNL     1       8.904  14.818  21.562  0.00  0.00    +0.000 A 
ATOM     11  C   UNL     1       9.832  15.869  21.733  0.00  0.00    +0.000 A 
ATOM     12  C   UNL     1      10.201  16.329  23.001  0.00  0.00    +0.000 A 
ATOM     13  C   UNL     1       9.643  15.739  24.122  0.00  0.00    +0.000 A 
ATOM     14  C   UNL     1       8.747  14.686  23.993  0.00  0.00    +0.000 A 
ATOM     15  C   UNL     1       8.376  14.200  22.721  0.00  0.00    +0.000 A 
ATOM     16  C   UNL     1       7.463  13.009  22.678  0.00  0.00    +0.000 C 
BRANCH  13  17
ATOM     17  O   UNL     1       9.959  16.156  25.383  0.00  0.00    +0.000 OA
ATOM     18  H   UNL     1      10.185  17.101  25.340  0.00  0.00    +0.000 HD
ENDBRANCH  13  17
ENDBRANCH   9  10
BRANCH   9  19
ATOM     19  C   UNL     1       9.572  13.515  19.435  0.00  0.00    +0.000 A 
ATOM     20  C   UNL     1       9.442  12.134  19.721  0.00  0.00    +0.000 A 
ATOM     21  C   UNL     1      10.259  11.157  19.134  0.00  0.00    +0.000 A 
ATOM     22  C   UNL     1      11.266  11.533  18.259  0.00  0.00    +0.000 A 
ATOM     23  C   UNL     1      11.430  12.881  17.963  0.00  0.00    +0.000 A 
ATOM     24  C   UNL     1      10.578  13.867  18.516  0.00  0.00    +0.000 A 
BRANCH  24  25
ATOM     25  S   UNL     1      10.972  15.575  18.024  0.00  0.00    +0.000 S 
ATOM     26  O   UNL     1       9.693  16.158  17.689  0.00  0.00    +0.000 OA
ATOM     27  O   UNL     1      11.557  16.094  19.269  0.00  0.00    +0.000 OA
ATOM     28  O   UNL     1      11.911  15.354  16.928  0.00  0.00    +0.000 OA
ENDBRANCH  24  25
ENDBRANCH   9  19
TORSDOF 4
ENDMDL
