MODEL 1
REMARK VINA RESULT:      -7.3      0.000      0.000
REMARK  Name = 
REMARK  7 active torsions:
REMARK  status: ('A' for Active; 'I' for Inactive)
REMARK    1  A    between atoms: C_1  and  O_2
REMARK    2  A    between atoms: O_2  and  C_3
REMARK    3  A    between atoms: N_14  and  C_15
REMARK    4  A    between atoms: C_18  and  C_19
REMARK    5  A    between atoms: C_19  and  C_20
REMARK    6  A    between atoms: C_20  and  C_21
REMARK    7  A    between atoms: C_21  and  O_22
REMARK                            x       y       z     vdW  Elec       q    Type
REMARK                         _______ _______ _______ _____ _____    ______ ____
ROOT
ATOM      1  C   UNL     1       7.570   7.169  17.620  0.00  0.00    +0.000 A 
ATOM      2  C   UNL     1       7.955   6.650  18.877  0.00  0.00    +0.000 A 
ATOM      3  C   UNL     1       7.253   5.592  19.519  0.00  0.00    +0.000 A 
ATOM      4  C   UNL     1       6.145   5.021  18.899  0.00  0.00    +0.000 A 
ATOM      5  C   UNL     1       5.839   5.523  17.623  0.00  0.00    +0.000 A 
ATOM      6  C   UNL     1       6.480   6.585  17.014  0.00  0.00    +0.000 A 
ATOM      7  O   UNL     1       5.785   7.072  15.936  0.00  0.00    +0.000 OA
ATOM      8  C   UNL     1       4.599   6.267  15.823  0.00  0.00    +0.000 C 
ATOM      9  C   UNL     1       4.485   5.326  17.020  0.00  0.00    +0.000 C 
ATOM     10  C   UNL     1       4.462   3.843  16.592  0.00  0.00    +0.000 C 
ATOM     11  C   UNL     1       3.165   3.192  16.974  0.00  0.00    +0.000 C 
ATOM     12  N   UNL     1       2.792   3.426  18.371  0.00  0.00    +0.000 NA
ATOM     13  C   UNL     1       2.528   2.183  19.088  0.00  0.00    +0.000 C 
ATOM     14  C   UNL     1       3.544   4.460  19.124  0.00  0.00    +0.000 C 
ATOM     15  C   UNL     1       5.069   4.147  19.595  0.00  0.00    +0.000 C 
ATOM     16  C   UNL     1       3.634   5.743  18.273  0.00  0.00    +0.000 C 
ENDROOT
BRANCH   1  18
ATOM     17  C   UNL     1       8.363   9.359  18.097  0.00  0.00    +0.000 C 
ATOM     18  O   UNL     1       8.259   8.267  17.181  0.00  0.00    +0.000 OA
ENDBRANCH   1  18
BRANCH  16  19
ATOM     19  C   UNL     1       2.559   6.833  18.222  0.00  0.00    +0.000 C 
BRANCH  19  20
ATOM     20  C   UNL     1       2.896   8.271  17.929  0.00  0.00    +0.000 C 
BRANCH  20  21
ATOM     21  C   UNL     1       1.589   9.064  17.865  0.00  0.00    +0.000 C 
BRANCH  21  22
ATOM     22  O   UNL     1       1.837  10.397  17.431  0.00  0.00    +0.000 OA
ATOM     23  H   UNL     1       2.130  10.902  18.200  0.00  0.00    +0.000 HD
ENDBRANCH  21  22
ENDBRANCH  20  21
ENDBRANCH  19  20
ENDBRANCH  16  19
TORSDOF 5
ENDMDL
MODEL 2
REMARK VINA RESULT:      -6.8      2.250      5.122
REMARK  Name = 
REMARK  7 active torsions:
REMARK  status: ('A' for Active; 'I' for Inactive)
REMARK    1  A    between atoms: C_1  and  O_2
REMARK    2  A    between atoms: O_2  and  C_3
REMARK    3  A    between atoms: N_14  and  C_15
REMARK    4  A    between atoms: C_18  and  C_19
REMARK    5  A    between atoms: C_19  and  C_20
REMARK    6  A    between atoms: C_20  and  C_21
REMARK    7  A    between atoms: C_21  and  O_22
REMARK                            x       y       z     vdW  Elec       q    Type
REMARK                         _______ _______ _______ _____ _____    ______ ____
ROOT
ATOM      1  C   UNL     1       1.967   7.253  19.951  0.00  0.00    +0.000 A 
ATOM      2  C   UNL     1       2.057   8.334  19.044  0.00  0.00    +0.000 A 
ATOM      3  C   UNL     1       2.778   8.251  17.820  0.00  0.00    +0.000 A 
ATOM      4  C   UNL     1       3.419   7.065  17.474  0.00  0.00    +0.000 A 
ATOM      5  C   UNL     1       3.247   5.999  18.372  0.00  0.00    +0.000 A 
ATOM      6  C   UNL     1       2.596   6.083  19.588  0.00  0.00    +0.000 A 
ATOM      7  O   UNL     1       2.851   5.006  20.398  0.00  0.00    +0.000 OA
ATOM      8  C   UNL     1       3.734   4.144  19.659  0.00  0.00    +0.000 C 
ATOM      9  C   UNL     1       4.177   4.827  18.367  0.00  0.00    +0.000 C 
ATOM     10  C   UNL     1       3.777   4.018  17.116  0.00  0.00    +0.000 C 
ATOM     11  C   UNL     1       4.988   3.570  16.353  0.00  0.00    +0.000 C 
ATOM     12  N   UNL     1       5.939   4.654  16.094  0.00  0.00    +0.000 NA
ATOM     13  C   UNL     1       6.268   4.775  14.679  0.00  0.00    +0.000 C 
ATOM     14  C   UNL     1       5.748   5.931  16.826  0.00  0.00    +0.000 C 
ATOM     15  C   UNL     1       4.527   6.915  16.398  0.00  0.00    +0.000 C 
ATOM     16  C   UNL     1       5.526   5.630  18.322  0.00  0.00    +0.000 C 
ENDROOT
BRANCH   1  18
ATOM     17  C   UNL     1       1.304   8.883  21.550  0.00  0.00    +0.000 C 
ATOM     18  O   UNL     1       1.349   7.513  21.143  0.00  0.00    +0.000 OA
ENDBRANCH   1  18
BRANCH  16  19
ATOM     19  C   UNL     1       6.647   5.431  19.347  0.00  0.00    +0.000 C 
BRANCH  19  20
ATOM     20  C   UNL     1       8.050   5.916  19.097  0.00  0.00    +0.000 C 
BRANCH  20  21
ATOM     21  C   UNL     1       7.967   7.258  18.366  0.00  0.00    +0.000 C 
BRANCH  21  22
ATOM     22  O   UNL     1       8.790   8.226  19.009  0.00  0.00    +0.000 OA
ATOM     23  H   UNL     1       9.649   8.216  18.567  0.00  0.00    +0.000 HD
ENDBRANCH  21  22
ENDBRANCH  20  21
ENDBRANCH  19  20
ENDBRANCH  16  19
TORSDOF 5
ENDMDL
MODEL 3
REMARK VINA RESULT:      -6.8      1.046      1.046
REMARK  Name = 
REMARK  7 active torsions:
REMARK  status: ('A' for Active; 'I' for Inactive)
REMARK    1  A    between atoms: C_1  and  O_2
REMARK    2  A    between atoms: O_2  and  C_3
REMARK    3  A    between atoms: N_14  and  C_15
REMARK    4  A    between atoms: C_18  and  C_19
REMARK    5  A    between atoms: C_19  and  C_20
REMARK    6  A    between atoms: C_20  and  C_21
REMARK    7  A    between atoms: C_21  and  O_22
REMARK                            x       y       z     vdW  Elec       q    Type
REMARK                         _______ _______ _______ _____ _____    ______ ____
ROOT
ATOM      1  C   UNL     1       7.509   7.055  17.603  0.00  0.00    +0.000 A 
ATOM      2  C   UNL     1       7.847   6.578  18.890  0.00  0.00    +0.000 A 
ATOM      3  C   UNL     1       7.130   5.530  19.532  0.00  0.00    +0.000 A 
ATOM      4  C   UNL     1       6.056   4.928  18.884  0.00  0.00    +0.000 A 
ATOM      5  C   UNL     1       5.797   5.390  17.583  0.00  0.00    +0.000 A 
ATOM      6  C   UNL     1       6.451   6.441  16.970  0.00  0.00    +0.000 A 
ATOM      7  O   UNL     1       5.797   6.888  15.850  0.00  0.00    +0.000 OA
ATOM      8  C   UNL     1       4.626   6.066  15.712  0.00  0.00    +0.000 C 
ATOM      9  C   UNL     1       4.472   5.158  16.930  0.00  0.00    +0.000 C 
ATOM     10  C   UNL     1       4.483   3.664  16.545  0.00  0.00    +0.000 C 
ATOM     11  C   UNL     1       3.178   3.008  16.891  0.00  0.00    +0.000 C 
ATOM     12  N   UNL     1       2.745   3.278  18.265  0.00  0.00    +0.000 NA
ATOM     13  C   UNL     1       2.464   2.053  19.006  0.00  0.00    +0.000 C 
ATOM     14  C   UNL     1       3.454   4.342  19.017  0.00  0.00    +0.000 C 
ATOM     15  C   UNL     1       4.960   4.061  19.560  0.00  0.00    +0.000 C 
ATOM     16  C   UNL     1       3.565   5.601  18.134  0.00  0.00    +0.000 C 
ENDROOT
BRANCH   1  18
ATOM     17  C   UNL     1       8.238   9.276  18.039  0.00  0.00    +0.000 C 
ATOM     18  O   UNL     1       8.203   8.148  17.162  0.00  0.00    +0.000 OA
ENDBRANCH   1  18
BRANCH  16  19
ATOM     19  C   UNL     1       2.481   6.676  18.006  0.00  0.00    +0.000 C 
BRANCH  19  20
ATOM     20  C   UNL     1       2.697   8.085  18.489  0.00  0.00    +0.000 C 
BRANCH  20  21
ATOM     21  C   UNL     1       1.727   8.349  19.643  0.00  0.00    +0.000 C 
BRANCH  21  22
ATOM     22  O   UNL     1       2.032   7.508  20.751  0.00  0.00    +0.000 OA
ATOM     23  H   UNL     1       2.938   7.195  20.636  0.00  0.00    +0.000 HD
ENDBRANCH  21  22
ENDBRANCH  20  21
ENDBRANCH  19  20
ENDBRANCH  16  19
TORSDOF 5
ENDMDL
MODEL 4
REMARK VINA RESULT:      -6.6      2.730      4.974
REMARK  Name = 
REMARK  7 active torsions:
REMARK  status: ('A' for Active; 'I' for Inactive)
REMARK    1  A    between atoms: C_1  and  O_2
REMARK    2  A    between atoms: O_2  and  C_3
REMARK    3  A    between atoms: N_14  and  C_15
REMARK    4  A    between atoms: C_18  and  C_19
REMARK    5  A    between atoms: C_19  and  C_20
REMARK    6  A    between atoms: C_20  and  C_21
REMARK    7  A    between atoms: C_21  and  O_22
REMARK                            x       y       z     vdW  Elec       q    Type
REMARK                         _______ _______ _______ _____ _____    ______ ____
ROOT
ATOM      1  C   UNL     1       3.422   3.012  19.889  0.00  0.00    +0.000 A 
ATOM      2  C   UNL     1       2.760   2.293  18.868  0.00  0.00    +0.000 A 
ATOM      3  C   UNL     1       3.159   2.354  17.504  0.00  0.00    +0.000 A 
ATOM      4  C   UNL     1       4.248   3.138  17.136  0.00  0.00    +0.000 A 
ATOM      5  C   UNL     1       4.915   3.782  18.191  0.00  0.00    +0.000 A 
ATOM      6  C   UNL     1       4.506   3.774  19.510  0.00  0.00    +0.000 A 
ATOM      7  O   UNL     1       5.136   4.731  20.264  0.00  0.00    +0.000 OA
ATOM      8  C   UNL     1       6.032   5.420  19.374  0.00  0.00    +0.000 C 
ATOM      9  C   UNL     1       5.810   4.953  17.938  0.00  0.00    +0.000 C 
ATOM     10  C   UNL     1       7.086   4.342  17.323  0.00  0.00    +0.000 C 
ATOM     11  C   UNL     1       7.554   5.143  16.143  0.00  0.00    +0.000 C 
ATOM     12  N   UNL     1       6.488   5.421  15.177  0.00  0.00    +0.000 NA
ATOM     13  C   UNL     1       6.845   5.003  13.826  0.00  0.00    +0.000 C 
ATOM     14  C   UNL     1       5.090   5.147  15.592  0.00  0.00    +0.000 C 
ATOM     15  C   UNL     1       4.580   3.607  15.694  0.00  0.00    +0.000 C 
ATOM     16  C   UNL     1       4.847   5.753  16.989  0.00  0.00    +0.000 C 
ENDROOT
BRANCH   1  18
ATOM     17  C   UNL     1       1.431   3.065  21.187  0.00  0.00    +0.000 C 
ATOM     18  O   UNL     1       2.856   2.959  21.133  0.00  0.00    +0.000 OA
ENDBRANCH   1  18
BRANCH  16  19
ATOM     19  C   UNL     1       4.441   7.206  17.250  0.00  0.00    +0.000 C 
BRANCH  19  20
ATOM     20  C   UNL     1       3.044   7.579  17.673  0.00  0.00    +0.000 C 
BRANCH  20  21
ATOM     21  C   UNL     1       2.479   6.432  18.515  0.00  0.00    +0.000 C 
BRANCH  21  22
ATOM     22  O   UNL     1       2.740   6.654  19.896  0.00  0.00    +0.000 OA
ATOM     23  H   UNL     1       2.844   7.606  20.022  0.00  0.00    +0.000 HD
ENDBRANCH  21  22
ENDBRANCH  20  21
ENDBRANCH  19  20
ENDBRANCH  16  19
TORSDOF 5
ENDMDL
MODEL 5
REMARK VINA RESULT:      -6.6      2.504      5.402
REMARK  Name = 
REMARK  7 active torsions:
REMARK  status: ('A' for Active; 'I' for Inactive)
REMARK    1  A    between atoms: C_1  and  O_2
REMARK    2  A    between atoms: O_2  and  C_3
REMARK    3  A    between atoms: N_14  and  C_15
REMARK    4  A    between atoms: C_18  and  C_19
REMARK    5  A    between atoms: C_19  and  C_20
REMARK    6  A    between atoms: C_20  and  C_21
REMARK    7  A    between atoms: C_21  and  O_22
REMARK                            x       y       z     vdW  Elec       q    Type
REMARK                         _______ _______ _______ _____ _____    ______ ____
ROOT
ATOM      1  C   UNL     1       1.812   7.446  20.085  0.00  0.00    +0.000 A 
ATOM      2  C   UNL     1       1.891   8.518  19.167  0.00  0.00    +0.000 A 
ATOM      3  C   UNL     1       2.572   8.414  17.922  0.00  0.00    +0.000 A 
ATOM      4  C   UNL     1       3.184   7.215  17.566  0.00  0.00    +0.000 A 
ATOM      5  C   UNL     1       3.023   6.159  18.478  0.00  0.00    +0.000 A 
ATOM      6  C   UNL     1       2.411   6.263  19.713  0.00  0.00    +0.000 A 
ATOM      7  O   UNL     1       2.674   5.189  20.524  0.00  0.00    +0.000 OA
ATOM      8  C   UNL     1       3.520   4.307  19.765  0.00  0.00    +0.000 C 
ATOM      9  C   UNL     1       3.933   4.973  18.455  0.00  0.00    +0.000 C 
ATOM     10  C   UNL     1       3.483   4.160  17.223  0.00  0.00    +0.000 C 
ATOM     11  C   UNL     1       4.663   3.687  16.427  0.00  0.00    +0.000 C 
ATOM     12  N   UNL     1       5.623   4.754  16.131  0.00  0.00    +0.000 NA
ATOM     13  C   UNL     1       5.910   4.858  14.705  0.00  0.00    +0.000 C 
ATOM     14  C   UNL     1       5.474   6.039  16.858  0.00  0.00    +0.000 C 
ATOM     15  C   UNL     1       4.256   7.040  16.458  0.00  0.00    +0.000 C 
ATOM     16  C   UNL     1       5.293   5.754  18.362  0.00  0.00    +0.000 C 
ENDROOT
BRANCH   1  18
ATOM     17  C   UNL     1       1.276   9.090  21.717  0.00  0.00    +0.000 C 
ATOM     18  O   UNL     1       1.235   7.725  21.294  0.00  0.00    +0.000 OA
ENDBRANCH   1  18
BRANCH  16  19
ATOM     19  C   UNL     1       6.442   5.544  19.354  0.00  0.00    +0.000 C 
BRANCH  19  20
ATOM     20  C   UNL     1       7.857   5.943  19.029  0.00  0.00    +0.000 C 
BRANCH  20  21
ATOM     21  C   UNL     1       8.795   5.178  19.965  0.00  0.00    +0.000 C 
BRANCH  21  22
ATOM     22  O   UNL     1       8.253   5.128  21.280  0.00  0.00    +0.000 OA
ATOM     23  H   UNL     1       8.344   6.010  21.665  0.00  0.00    +0.000 HD
ENDBRANCH  21  22
ENDBRANCH  20  21
ENDBRANCH  19  20
ENDBRANCH  16  19
TORSDOF 5
ENDMDL
MODEL 6
REMARK VINA RESULT:      -6.5      2.555      5.034
REMARK  Name = 
REMARK  7 active torsions:
REMARK  status: ('A' for Active; 'I' for Inactive)
REMARK    1  A    between atoms: C_1  and  O_2
REMARK    2  A    between atoms: O_2  and  C_3
REMARK    3  A    between atoms: N_14  and  C_15
REMARK    4  A    between atoms: C_18  and  C_19
REMARK    5  A    between atoms: C_19  and  C_20
REMARK    6  A    between atoms: C_20  and  C_21
REMARK    7  A    between atoms: C_21  and  O_22
REMARK                            x       y       z     vdW  Elec       q    Type
REMARK                         _______ _______ _______ _____ _____    ______ ____
ROOT
ATOM      1  C   UNL     1       2.063   3.228  19.463  0.00  0.00    +0.000 A 
ATOM      2  C   UNL     1       1.818   2.432  18.322  0.00  0.00    +0.000 A 
ATOM      3  C   UNL     1       2.662   2.454  17.175  0.00  0.00    +0.000 A 
ATOM      4  C   UNL     1       3.783   3.278  17.158  0.00  0.00    +0.000 A 
ATOM      5  C   UNL     1       4.022   4.001  18.338  0.00  0.00    +0.000 A 
ATOM      6  C   UNL     1       3.184   4.028  19.436  0.00  0.00    +0.000 A 
ATOM      7  O   UNL     1       3.482   5.048  20.302  0.00  0.00    +0.000 OA
ATOM      8  C   UNL     1       4.606   5.744  19.735  0.00  0.00    +0.000 C 
ATOM      9  C   UNL     1       4.910   5.205  18.340  0.00  0.00    +0.000 C 
ATOM     10  C   UNL     1       6.340   4.635  18.237  0.00  0.00    +0.000 C 
ATOM     11  C   UNL     1       7.159   5.407  17.245  0.00  0.00    +0.000 C 
ATOM     12  N   UNL     1       6.483   5.587  15.957  0.00  0.00    +0.000 NA
ATOM     13  C   UNL     1       7.299   5.131  14.837  0.00  0.00    +0.000 C 
ATOM     14  C   UNL     1       5.038   5.260  15.882  0.00  0.00    +0.000 C 
ATOM     15  C   UNL     1       4.576   3.701  15.893  0.00  0.00    +0.000 C 
ATOM     16  C   UNL     1       4.307   5.911  17.073  0.00  0.00    +0.000 C 
ENDROOT
BRANCH   1  18
ATOM     17  C   UNL     1       1.479   2.601  21.681  0.00  0.00    +0.000 C 
ATOM     18  O   UNL     1       1.103   3.198  20.438  0.00  0.00    +0.000 OA
ENDBRANCH   1  18
BRANCH  16  19
ATOM     19  C   UNL     1       3.786   7.352  17.094  0.00  0.00    +0.000 C 
BRANCH  19  20
ATOM     20  C   UNL     1       2.432   7.700  17.654  0.00  0.00    +0.000 C 
BRANCH  20  21
ATOM     21  C   UNL     1       2.473   9.154  18.130  0.00  0.00    +0.000 C 
BRANCH  21  22
ATOM     22  O   UNL     1       1.553   9.946  17.386  0.00  0.00    +0.000 OA
ATOM     23  H   UNL     1       0.829   9.369  17.112  0.00  0.00    +0.000 HD
ENDBRANCH  21  22
ENDBRANCH  20  21
ENDBRANCH  19  20
ENDBRANCH  16  19
TORSDOF 5
ENDMDL
MODEL 7
REMARK VINA RESULT:      -6.5      2.781      5.596
REMARK  Name = 
REMARK  7 active torsions:
REMARK  status: ('A' for Active; 'I' for Inactive)
REMARK    1  A    between atoms: C_1  and  O_2
REMARK    2  A    between atoms: O_2  and  C_3
REMARK    3  A    between atoms: N_14  and  C_15
REMARK    4  A    between atoms: C_18  and  C_19
REMARK    5  A    between atoms: C_19  and  C_20
REMARK    6  A    between atoms: C_20  and  C_21
REMARK    7  A    between atoms: C_21  and  O_22
REMARK                            x       y       z     vdW  Elec       q    Type
REMARK                         _______ _______ _______ _____ _____    ______ ____
ROOT
ATOM      1  C   UNL     1       2.213   4.024  21.082  0.00  0.00    +0.000 A 
ATOM      2  C   UNL     1       1.522   5.245  20.910  0.00  0.00    +0.000 A 
ATOM      3  C   UNL     1       1.745   6.103  19.797  0.00  0.00    +0.000 A 
ATOM      4  C   UNL     1       2.669   5.743  18.820  0.00  0.00    +0.000 A 
ATOM      5  C   UNL     1       3.283   4.492  18.999  0.00  0.00    +0.000 A 
ATOM      6  C   UNL     1       3.115   3.676  20.101  0.00  0.00    +0.000 A 
ATOM      7  O   UNL     1       4.062   2.686  20.174  0.00  0.00    +0.000 OA
ATOM      8  C   UNL     1       4.917   2.861  19.031  0.00  0.00    +0.000 C 
ATOM      9  C   UNL     1       4.559   4.151  18.298  0.00  0.00    +0.000 C 
ATOM     10  C   UNL     1       4.142   3.891  16.835  0.00  0.00    +0.000 C 
ATOM     11  C   UNL     1       5.090   4.552  15.878  0.00  0.00    +0.000 C 
ATOM     12  N   UNL     1       5.339   5.961  16.195  0.00  0.00    +0.000 NA
ATOM     13  C   UNL     1       5.083   6.837  15.058  0.00  0.00    +0.000 C 
ATOM     14  C   UNL     1       4.885   6.462  17.516  0.00  0.00    +0.000 C 
ATOM     15  C   UNL     1       3.297   6.698  17.771  0.00  0.00    +0.000 C 
ATOM     16  C   UNL     1       5.335   5.480  18.615  0.00  0.00    +0.000 C 
ENDROOT
BRANCH   1  18
ATOM     17  C   UNL     1       1.174   2.191  22.185  0.00  0.00    +0.000 C 
ATOM     18  O   UNL     1       1.990   3.363  22.259  0.00  0.00    +0.000 OA
ENDBRANCH   1  18
BRANCH  16  19
ATOM     19  C   UNL     1       6.709   5.498  19.293  0.00  0.00    +0.000 C 
BRANCH  19  20
ATOM     20  C   UNL     1       7.971   5.789  18.525  0.00  0.00    +0.000 C 
BRANCH  20  21
ATOM     21  C   UNL     1       8.129   7.308  18.424  0.00  0.00    +0.000 C 
BRANCH  21  22
ATOM     22  O   UNL     1       7.806   7.754  17.111  0.00  0.00    +0.000 OA
ATOM     23  H   UNL     1       7.113   8.421  17.194  0.00  0.00    +0.000 HD
ENDBRANCH  21  22
ENDBRANCH  20  21
ENDBRANCH  19  20
ENDBRANCH  16  19
TORSDOF 5
ENDMDL
MODEL 8
REMARK VINA RESULT:      -6.4      2.364      5.421
REMARK  Name = 
REMARK  7 active torsions:
REMARK  status: ('A' for Active; 'I' for Inactive)
REMARK    1  A    between atoms: C_1  and  O_2
REMARK    2  A    between atoms: O_2  and  C_3
REMARK    3  A    between atoms: N_14  and  C_15
REMARK    4  A    between atoms: C_18  and  C_19
REMARK    5  A    between atoms: C_19  and  C_20
REMARK    6  A    between atoms: C_20  and  C_21
REMARK    7  A    between atoms: C_21  and  O_22
REMARK                            x       y       z     vdW  Elec       q    Type
REMARK                         _______ _______ _______ _____ _____    ______ ____
ROOT
ATOM      1  C   UNL     1       1.782   7.870  20.128  0.00  0.00    +0.000 A 
ATOM      2  C   UNL     1       1.908   8.857  19.125  0.00  0.00    +0.000 A 
ATOM      3  C   UNL     1       2.516   8.598  17.865  0.00  0.00    +0.000 A 
ATOM      4  C   UNL     1       3.004   7.326  17.581  0.00  0.00    +0.000 A 
ATOM      5  C   UNL     1       2.798   6.361  18.581  0.00  0.00    +0.000 A 
ATOM      6  C   UNL     1       2.258   6.613  19.827  0.00  0.00    +0.000 A 
ATOM      7  O   UNL     1       2.468   5.585  20.711  0.00  0.00    +0.000 OA
ATOM      8  C   UNL     1       3.197   4.576  19.990  0.00  0.00    +0.000 C 
ATOM      9  C   UNL     1       3.602   5.101  18.614  0.00  0.00    +0.000 C 
ATOM     10  C   UNL     1       3.024   4.240  17.472  0.00  0.00    +0.000 C 
ATOM     11  C   UNL     1       4.119   3.604  16.667  0.00  0.00    +0.000 C 
ATOM     12  N   UNL     1       5.151   4.555  16.247  0.00  0.00    +0.000 NA
ATOM     13  C   UNL     1       5.376   4.525  14.806  0.00  0.00    +0.000 C 
ATOM     14  C   UNL     1       5.148   5.900  16.874  0.00  0.00    +0.000 C 
ATOM     15  C   UNL     1       4.002   6.972  16.447  0.00  0.00    +0.000 C 
ATOM     16  C   UNL     1       5.017   5.748  18.402  0.00  0.00    +0.000 C 
ENDROOT
BRANCH   1  18
ATOM     17  C   UNL     1      -0.132   8.298  21.473  0.00  0.00    +0.000 C 
ATOM     18  O   UNL     1       1.291   8.291  21.334  0.00  0.00    +0.000 OA
ENDBRANCH   1  18
BRANCH  16  19
ATOM     19  C   UNL     1       6.191   5.513  19.359  0.00  0.00    +0.000 C 
BRANCH  19  20
ATOM     20  C   UNL     1       7.604   5.878  18.990  0.00  0.00    +0.000 C 
BRANCH  20  21
ATOM     21  C   UNL     1       8.336   4.598  18.579  0.00  0.00    +0.000 C 
BRANCH  21  22
ATOM     22  O   UNL     1       7.944   4.201  17.269  0.00  0.00    +0.000 OA
ATOM     23  H   UNL     1       7.634   3.288  17.324  0.00  0.00    +0.000 HD
ENDBRANCH  21  22
ENDBRANCH  20  21
ENDBRANCH  19  20
ENDBRANCH  16  19
TORSDOF 5
ENDMDL
MODEL 9
REMARK VINA RESULT:      -6.3      3.116      4.622
REMARK  Name = 
REMARK  7 active torsions:
REMARK  status: ('A' for Active; 'I' for Inactive)
REMARK    1  A    between atoms: C_1  and  O_2
REMARK    2  A    between atoms: O_2  and  C_3
REMARK    3  A    between atoms: N_14  and  C_15
REMARK    4  A    between atoms: C_18  and  C_19
REMARK    5  A    between atoms: C_19  and  C_20
REMARK    6  A    between atoms: C_20  and  C_21
REMARK    7  A    between atoms: C_21  and  O_22
REMARK                            x       y       z     vdW  Elec       q    Type
REMARK                         _______ _______ _______ _____ _____    ______ ____
ROOT
ATOM      1  C   UNL     1       5.799   4.440  15.399  0.00  0.00    +0.000 A 
ATOM      2  C   UNL     1       5.675   5.765  14.923  0.00  0.00    +0.000 A 
ATOM      3  C   UNL     1       4.996   6.781  15.652  0.00  0.00    +0.000 A 
ATOM      4  C   UNL     1       4.432   6.486  16.889  0.00  0.00    +0.000 A 
ATOM      5  C   UNL     1       4.637   5.175  17.351  0.00  0.00    +0.000 A 
ATOM      6  C   UNL     1       5.247   4.167  16.631  0.00  0.00    +0.000 A 
ATOM      7  O   UNL     1       5.029   2.925  17.172  0.00  0.00    +0.000 OA
ATOM      8  C   UNL     1       4.218   3.132  18.341  0.00  0.00    +0.000 C 
ATOM      9  C   UNL     1       3.775   4.590  18.424  0.00  0.00    +0.000 C 
ATOM     10  C   UNL     1       4.255   5.270  19.723  0.00  0.00    +0.000 C 
ATOM     11  C   UNL     1       3.093   5.703  20.567  0.00  0.00    +0.000 C 
ATOM     12  N   UNL     1       2.090   6.466  19.819  0.00  0.00    +0.000 NA
ATOM     13  C   UNL     1       1.796   7.751  20.443  0.00  0.00    +0.000 C 
ATOM     14  C   UNL     1       2.189   6.472  18.339  0.00  0.00    +0.000 C 
ATOM     15  C   UNL     1       3.365   7.339  17.625  0.00  0.00    +0.000 C 
ATOM     16  C   UNL     1       2.385   5.027  17.837  0.00  0.00    +0.000 C 
ENDROOT
BRANCH   1  18
ATOM     17  C   UNL     1       6.113   3.742  13.147  0.00  0.00    +0.000 C 
ATOM     18  O   UNL     1       6.367   3.539  14.539  0.00  0.00    +0.000 OA
ENDBRANCH   1  18
BRANCH  16  19
ATOM     19  C   UNL     1       1.248   4.036  17.568  0.00  0.00    +0.000 C 
BRANCH  19  20
ATOM     20  C   UNL     1       1.101   2.760  18.354  0.00  0.00    +0.000 C 
BRANCH  20  21
ATOM     21  C   UNL     1       0.721   3.125  19.790  0.00  0.00    +0.000 C 
BRANCH  21  22
ATOM     22  O   UNL     1       1.522   2.399  20.716  0.00  0.00    +0.000 OA
ATOM     23  H   UNL     1       1.124   1.525  20.821  0.00  0.00    +0.000 HD
ENDBRANCH  21  22
ENDBRANCH  20  21
ENDBRANCH  19  20
ENDBRANCH  16  19
TORSDOF 5
ENDMDL
