MODEL 1
REMARK VINA RESULT:      -7.3      0.000      0.000
REMARK  Name = 
REMARK  11 active torsions:
REMARK  status: ('A' for Active; 'I' for Inactive)
REMARK    1  A    between atoms: C_1  and  O_2
REMARK    2  A    between atoms: O_2  and  C_3
REMARK    3  A    between atoms: C_6  and  C_7
REMARK    4  A    between atoms: C_7  and  N_8
REMARK    5  A    between atoms: N_8  and  C_9
REMARK    6  A    between atoms: C_9  and  C_10
REMARK    7  A    between atoms: C_10  and  C_11
REMARK    8  A    between atoms: C_11  and  N_12
REMARK    9  A    between atoms: N_20  and  C_21
REMARK   10  A    between atoms: C_29  and  O_30
REMARK   11  A    between atoms: O_30  and  C_31
REMARK                            x       y       z     vdW  Elec       q    Type
REMARK                         _______ _______ _______ _____ _____    ______ ____
ROOT
ATOM      1  N   UNL     1       2.280   7.534  19.200  0.00  0.00    +0.000 N 
ATOM      2  C   UNL     1       3.247   7.114  18.276  0.00  0.00    +0.000 C 
ATOM      3  O   UNL     1       3.424   7.715  17.220  0.00  0.00    +0.000 OA
ATOM      4  N   UNL     1       3.956   5.978  18.642  0.00  0.00    +0.000 N 
ATOM      5  H   UNL     1       3.484   5.324  19.239  0.00  0.00    +0.000 HD
ENDROOT
BRANCH   4   6
ATOM      6  C   UNL     1       5.128   5.501  18.008  0.00  0.00    +0.000 A 
ATOM      7  C   UNL     1       6.379   5.531  18.630  0.00  0.00    +0.000 A 
ATOM      8  C   UNL     1       7.523   5.073  17.975  0.00  0.00    +0.000 A 
ATOM      9  C   UNL     1       7.419   4.560  16.685  0.00  0.00    +0.000 A 
ATOM     10  C   UNL     1       6.172   4.500  16.070  0.00  0.00    +0.000 A 
ATOM     11 CL   UNL     1       6.049   3.857  14.476  0.00  0.00    +0.000 Cl
ATOM     12  C   UNL     1       5.021   4.958  16.725  0.00  0.00    +0.000 A 
ENDBRANCH   4   6
BRANCH   1  13
ATOM     13  C   UNL     1       1.287   8.495  18.691  0.00  0.00    +0.000 C 
BRANCH  13  17
ATOM     14  C   UNL     1       0.913  12.261  20.850  0.00  0.00    +0.000 A 
ATOM     15  C   UNL     1       1.397  12.253  19.532  0.00  0.00    +0.000 A 
ATOM     16  C   UNL     1       1.526  11.053  18.810  0.00  0.00    +0.000 A 
ATOM     17  C   UNL     1       1.190   9.832  19.399  0.00  0.00    +0.000 A 
ATOM     18  C   UNL     1       0.666   9.858  20.703  0.00  0.00    +0.000 A 
ATOM     19  C   UNL     1       0.569  11.041  21.451  0.00  0.00    +0.000 A 
BRANCH  14  21
ATOM     20  C   UNL     1       0.488  14.600  20.855  0.00  0.00    +0.000 C 
ATOM     21  O   UNL     1       0.780  13.411  21.582  0.00  0.00    +0.000 OA
ENDBRANCH  14  21
BRANCH  19  22
ATOM     22  O   UNL     1       0.063  10.834  22.707  0.00  0.00    +0.000 OA
ATOM     23  C   UNL     1      -0.261   9.502  23.077  0.00  0.00    +0.000 C 
ENDBRANCH  19  22
ENDBRANCH  13  17
ENDBRANCH   1  13
BRANCH   1  24
ATOM     24  C   UNL     1       2.067   6.831  20.470  0.00  0.00    +0.000 C 
BRANCH  24  25
ATOM     25  C   UNL     1       1.343   5.493  20.487  0.00  0.00    +0.000 C 
BRANCH  25  26
ATOM     26  C   UNL     1       2.130   4.326  21.105  0.00  0.00    +0.000 C 
BRANCH  26  27
ATOM     27  N   UNL     1       1.694   3.090  20.453  0.00  0.00    +0.000 NA
ATOM     28  C   UNL     1       2.765   2.094  20.263  0.00  0.00    +0.000 C 
ATOM     29  C   UNL     1       3.595   2.298  18.991  0.00  0.00    +0.000 C 
ATOM     30  O   UNL     1       2.752   2.296  17.835  0.00  0.00    +0.000 OA
ATOM     31  C   UNL     1       1.805   3.368  17.920  0.00  0.00    +0.000 C 
ATOM     32  C   UNL     1       0.950   3.293  19.198  0.00  0.00    +0.000 C 
ENDBRANCH  26  27
ENDBRANCH  25  26
ENDBRANCH  24  25
ENDBRANCH   1  24
TORSDOF 9
ENDMDL
MODEL 2
REMARK VINA RESULT:      -7.3      0.929      1.260
REMARK  Name = 
REMARK  11 active torsions:
REMARK  status: ('A' for Active; 'I' for Inactive)
REMARK    1  A    between atoms: C_1  and  O_2
REMARK    2  A    between atoms: O_2  and  C_3
REMARK    3  A    between atoms: C_6  and  C_7
REMARK    4  A    between atoms: C_7  and  N_8
REMARK    5  A    between atoms: N_8  and  C_9
REMARK    6  A    between atoms: C_9  and  C_10
REMARK    7  A    between atoms: C_10  and  C_11
REMARK    8  A    between atoms: C_11  and  N_12
REMARK    9  A    between atoms: N_20  and  C_21
REMARK   10  A    between atoms: C_29  and  O_30
REMARK   11  A    between atoms: O_30  and  C_31
REMARK                            x       y       z     vdW  Elec       q    Type
REMARK                         _______ _______ _______ _____ _____    ______ ____
ROOT
ATOM      1  N   UNL     1       2.133   8.002  19.058  0.00  0.00    +0.000 N 
ATOM      2  C   UNL     1       2.985   7.696  17.988  0.00  0.00    +0.000 C 
ATOM      3  O   UNL     1       2.974   8.356  16.954  0.00  0.00    +0.000 OA
ATOM      4  N   UNL     1       3.810   6.597  18.189  0.00  0.00    +0.000 N 
ATOM      5  H   UNL     1       3.469   5.884  18.807  0.00  0.00    +0.000 HD
ENDROOT
BRANCH   4   6
ATOM      6  C   UNL     1       4.909   6.235  17.375  0.00  0.00    +0.000 A 
ATOM      7  C   UNL     1       6.215   6.641  17.659  0.00  0.00    +0.000 A 
ATOM      8  C   UNL     1       7.279   6.287  16.828  0.00  0.00    +0.000 A 
ATOM      9  C   UNL     1       7.043   5.501  15.705  0.00  0.00    +0.000 A 
ATOM     10  C   UNL     1       5.749   5.067  15.431  0.00  0.00    +0.000 A 
ATOM     11 CL   UNL     1       5.464   4.087  14.042  0.00  0.00    +0.000 Cl
ATOM     12  C   UNL     1       4.679   5.419  16.263  0.00  0.00    +0.000 A 
ENDBRANCH   4   6
BRANCH   1  13
ATOM     13  C   UNL     1       1.019   8.913  18.745  0.00  0.00    +0.000 C 
BRANCH  13  17
ATOM     14  C   UNL     1       0.718  12.576  21.085  0.00  0.00    +0.000 A 
ATOM     15  C   UNL     1       1.251  12.616  19.786  0.00  0.00    +0.000 A 
ATOM     16  C   UNL     1       1.357  11.449  19.007  0.00  0.00    +0.000 A 
ATOM     17  C   UNL     1       0.950  10.215  19.519  0.00  0.00    +0.000 A 
ATOM     18  C   UNL     1       0.378  10.198  20.802  0.00  0.00    +0.000 A 
ATOM     19  C   UNL     1       0.301  11.344  21.608  0.00  0.00    +0.000 A 
BRANCH  14  21
ATOM     20  C   UNL     1      -0.578  14.468  21.711  0.00  0.00    +0.000 C 
ATOM     21  O   UNL     1       0.604  13.693  21.870  0.00  0.00    +0.000 OA
ENDBRANCH  14  21
BRANCH  19  22
ATOM     22  O   UNL     1      -0.260  11.095  22.832  0.00  0.00    +0.000 OA
ATOM     23  C   UNL     1      -0.416   9.739  23.224  0.00  0.00    +0.000 C 
ENDBRANCH  19  22
ENDBRANCH  13  17
ENDBRANCH   1  13
BRANCH   1  24
ATOM     24  C   UNL     1       2.145   7.227  20.304  0.00  0.00    +0.000 C 
BRANCH  24  25
ATOM     25  C   UNL     1       1.032   6.231  20.591  0.00  0.00    +0.000 C 
BRANCH  25  26
ATOM     26  C   UNL     1       1.470   4.759  20.673  0.00  0.00    +0.000 C 
BRANCH  26  27
ATOM     27  N   UNL     1       2.313   4.473  19.512  0.00  0.00    +0.000 NA
ATOM     28  C   UNL     1       1.596   3.854  18.381  0.00  0.00    +0.000 C 
ATOM     29  C   UNL     1       1.469   2.329  18.477  0.00  0.00    +0.000 C 
ATOM     30  O   UNL     1       2.758   1.723  18.595  0.00  0.00    +0.000 OA
ATOM     31  C   UNL     1       3.410   2.187  19.784  0.00  0.00    +0.000 C 
ATOM     32  C   UNL     1       3.540   3.720  19.819  0.00  0.00    +0.000 C 
ENDBRANCH  26  27
ENDBRANCH  25  26
ENDBRANCH  24  25
ENDBRANCH   1  24
TORSDOF 9
ENDMDL
MODEL 3
REMARK VINA RESULT:      -7.3      3.712      6.615
REMARK  Name = 
REMARK  11 active torsions:
REMARK  status: ('A' for Active; 'I' for Inactive)
REMARK    1  A    between atoms: C_1  and  O_2
REMARK    2  A    between atoms: O_2  and  C_3
REMARK    3  A    between atoms: C_6  and  C_7
REMARK    4  A    between atoms: C_7  and  N_8
REMARK    5  A    between atoms: N_8  and  C_9
REMARK    6  A    between atoms: C_9  and  C_10
REMARK    7  A    between atoms: C_10  and  C_11
REMARK    8  A    between atoms: C_11  and  N_12
REMARK    9  A    between atoms: N_20  and  C_21
REMARK   10  A    between atoms: C_29  and  O_30
REMARK   11  A    between atoms: O_30  and  C_31
REMARK                            x       y       z     vdW  Elec       q    Type
REMARK                         _______ _______ _______ _____ _____    ______ ____
ROOT
ATOM      1  N   UNL     1       1.189   9.689  19.135  0.00  0.00    +0.000 N 
ATOM      2  C   UNL     1       1.787   8.776  18.256  0.00  0.00    +0.000 C 
ATOM      3  O   UNL     1       2.079   9.093  17.107  0.00  0.00    +0.000 OA
ATOM      4  N   UNL     1       1.998   7.507  18.781  0.00  0.00    +0.000 N 
ATOM      5  H   UNL     1       1.367   7.205  19.499  0.00  0.00    +0.000 HD
ENDROOT
BRANCH   4   6
ATOM      6  C   UNL     1       2.790   6.495  18.189  0.00  0.00    +0.000 A 
ATOM      7  C   UNL     1       4.062   6.750  17.669  0.00  0.00    +0.000 A 
ATOM      8  C   UNL     1       4.815   5.738  17.072  0.00  0.00    +0.000 A 
ATOM      9  C   UNL     1       4.302   4.446  17.006  0.00  0.00    +0.000 A 
ATOM     10  C   UNL     1       3.049   4.178  17.547  0.00  0.00    +0.000 A 
ATOM     11 CL   UNL     1       2.422   2.574  17.468  0.00  0.00    +0.000 Cl
ATOM     12  C   UNL     1       2.290   5.191  18.148  0.00  0.00    +0.000 A 
ENDBRANCH   4   6
BRANCH   1  13
ATOM     13  C   UNL     1       0.633  10.902  18.512  0.00  0.00    +0.000 C 
BRANCH  13  17
ATOM     14  C   UNL     1      -3.662  10.975  17.779  0.00  0.00    +0.000 A 
ATOM     15  C   UNL     1      -3.121  11.702  18.853  0.00  0.00    +0.000 A 
ATOM     16  C   UNL     1      -1.738  11.698  19.111  0.00  0.00    +0.000 A 
ATOM     17  C   UNL     1      -0.869  10.953  18.312  0.00  0.00    +0.000 A 
ATOM     18  C   UNL     1      -1.418  10.267  17.215  0.00  0.00    +0.000 A 
ATOM     19  C   UNL     1      -2.798  10.227  16.967  0.00  0.00    +0.000 A 
BRANCH  14  21
ATOM     20  C   UNL     1      -5.586  12.178  17.069  0.00  0.00    +0.000 C 
ATOM     21  O   UNL     1      -5.004  10.954  17.503  0.00  0.00    +0.000 OA
ENDBRANCH  14  21
BRANCH  19  22
ATOM     22  O   UNL     1      -3.118   9.474  15.868  0.00  0.00    +0.000 OA
ATOM     23  C   UNL     1      -3.105  10.117  14.601  0.00  0.00    +0.000 C 
ENDBRANCH  19  22
ENDBRANCH  13  17
ENDBRANCH   1  13
BRANCH   1  24
ATOM     24  C   UNL     1       0.845   9.325  20.514  0.00  0.00    +0.000 C 
BRANCH  24  25
ATOM     25  C   UNL     1       0.659  10.411  21.563  0.00  0.00    +0.000 C 
BRANCH  25  26
ATOM     26  C   UNL     1      -0.737  10.476  22.204  0.00  0.00    +0.000 C 
BRANCH  26  27
ATOM     27  N   UNL     1      -0.825  11.720  22.971  0.00  0.00    +0.000 NA
ATOM     28  C   UNL     1      -2.172  12.015  23.495  0.00  0.00    +0.000 C 
ATOM     29  C   UNL     1      -3.088  12.738  22.501  0.00  0.00    +0.000 C 
ATOM     30  O   UNL     1      -2.487  13.957  22.057  0.00  0.00    +0.000 OA
ATOM     31  C   UNL     1      -1.248  13.678  21.393  0.00  0.00    +0.000 C 
ATOM     32  C   UNL     1      -0.268  12.899  22.287  0.00  0.00    +0.000 C 
ENDBRANCH  26  27
ENDBRANCH  25  26
ENDBRANCH  24  25
ENDBRANCH   1  24
TORSDOF 9
ENDMDL
MODEL 4
REMARK VINA RESULT:      -7.2      4.087      7.262
REMARK  Name = 
REMARK  11 active torsions:
REMARK  status: ('A' for Active; 'I' for Inactive)
REMARK    1  A    between atoms: C_1  and  O_2
REMARK    2  A    between atoms: O_2  and  C_3
REMARK    3  A    between atoms: C_6  and  C_7
REMARK    4  A    between atoms: C_7  and  N_8
REMARK    5  A    between atoms: N_8  and  C_9
REMARK    6  A    between atoms: C_9  and  C_10
REMARK    7  A    between atoms: C_10  and  C_11
REMARK    8  A    between atoms: C_11  and  N_12
REMARK    9  A    between atoms: N_20  and  C_21
REMARK   10  A    between atoms: C_29  and  O_30
REMARK   11  A    between atoms: O_30  and  C_31
REMARK                            x       y       z     vdW  Elec       q    Type
REMARK                         _______ _______ _______ _____ _____    ______ ____
ROOT
ATOM      1  N   UNL     1       1.021  10.166  19.798  0.00  0.00    +0.000 N 
ATOM      2  C   UNL     1       1.388   8.900  19.321  0.00  0.00    +0.000 C 
ATOM      3  O   UNL     1       1.555   8.693  18.123  0.00  0.00    +0.000 OA
ATOM      4  N   UNL     1       1.522   7.920  20.297  0.00  0.00    +0.000 N 
ATOM      5  H   UNL     1       0.964   8.027  21.123  0.00  0.00    +0.000 HD
ENDROOT
BRANCH   4   6
ATOM      6  C   UNL     1       2.107   6.646  20.105  0.00  0.00    +0.000 A 
ATOM      7  C   UNL     1       3.231   6.453  19.298  0.00  0.00    +0.000 A 
ATOM      8  C   UNL     1       3.776   5.182  19.110  0.00  0.00    +0.000 A 
ATOM      9  C   UNL     1       3.204   4.086  19.749  0.00  0.00    +0.000 A 
ATOM     10  C   UNL     1       2.102   4.274  20.578  0.00  0.00    +0.000 A 
ATOM     11 CL   UNL     1       1.403   2.914  21.372  0.00  0.00    +0.000 Cl
ATOM     12  C   UNL     1       1.552   5.548  20.770  0.00  0.00    +0.000 A 
ENDBRANCH   4   6
BRANCH   1  13
ATOM     13  C   UNL     1       0.528  11.111  18.783  0.00  0.00    +0.000 C 
BRANCH  13  17
ATOM     14  C   UNL     1      -3.732  11.078  17.867  0.00  0.00    +0.000 A 
ATOM     15  C   UNL     1      -3.250  11.856  18.932  0.00  0.00    +0.000 A 
ATOM     16  C   UNL     1      -1.880  11.888  19.249  0.00  0.00    +0.000 A 
ATOM     17  C   UNL     1      -0.965  11.127  18.517  0.00  0.00    +0.000 A 
ATOM     18  C   UNL     1      -1.455  10.388  17.427  0.00  0.00    +0.000 A 
ATOM     19  C   UNL     1      -2.822  10.313  17.122  0.00  0.00    +0.000 A 
BRANCH  14  21
ATOM     20  C   UNL     1      -5.656  12.230  17.077  0.00  0.00    +0.000 C 
ATOM     21  O   UNL     1      -5.060  11.021  17.535  0.00  0.00    +0.000 OA
ENDBRANCH  14  21
BRANCH  19  22
ATOM     22  O   UNL     1      -3.082   9.512  16.043  0.00  0.00    +0.000 OA
ATOM     23  C   UNL     1      -3.050  10.109  14.754  0.00  0.00    +0.000 C 
ENDBRANCH  19  22
ENDBRANCH  13  17
ENDBRANCH   1  13
BRANCH   1  24
ATOM     24  C   UNL     1       0.829  10.428  21.229  0.00  0.00    +0.000 C 
BRANCH  24  25
ATOM     25  C   UNL     1      -0.508  10.118  21.886  0.00  0.00    +0.000 C 
BRANCH  25  26
ATOM     26  C   UNL     1      -0.929  11.081  23.009  0.00  0.00    +0.000 C 
BRANCH  26  27
ATOM     27  N   UNL     1      -1.646  12.202  22.397  0.00  0.00    +0.000 NA
ATOM     28  C   UNL     1      -0.984  13.509  22.569  0.00  0.00    +0.000 C 
ATOM     29  C   UNL     1      -1.315  14.212  23.890  0.00  0.00    +0.000 C 
ATOM     30  O   UNL     1      -2.727  14.387  24.027  0.00  0.00    +0.000 OA
ATOM     31  C   UNL     1      -3.380  13.111  24.031  0.00  0.00    +0.000 C 
ATOM     32  C   UNL     1      -3.068  12.292  22.766  0.00  0.00    +0.000 C 
ENDBRANCH  26  27
ENDBRANCH  25  26
ENDBRANCH  24  25
ENDBRANCH   1  24
TORSDOF 9
ENDMDL
MODEL 5
REMARK VINA RESULT:      -7.1      0.905      1.771
REMARK  Name = 
REMARK  11 active torsions:
REMARK  status: ('A' for Active; 'I' for Inactive)
REMARK    1  A    between atoms: C_1  and  O_2
REMARK    2  A    between atoms: O_2  and  C_3
REMARK    3  A    between atoms: C_6  and  C_7
REMARK    4  A    between atoms: C_7  and  N_8
REMARK    5  A    between atoms: N_8  and  C_9
REMARK    6  A    between atoms: C_9  and  C_10
REMARK    7  A    between atoms: C_10  and  C_11
REMARK    8  A    between atoms: C_11  and  N_12
REMARK    9  A    between atoms: N_20  and  C_21
REMARK   10  A    between atoms: C_29  and  O_30
REMARK   11  A    between atoms: O_30  and  C_31
REMARK                            x       y       z     vdW  Elec       q    Type
REMARK                         _______ _______ _______ _____ _____    ______ ____
ROOT
ATOM      1  N   UNL     1       2.325   7.648  19.373  0.00  0.00    +0.000 N 
ATOM      2  C   UNL     1       3.216   7.267  18.360  0.00  0.00    +0.000 C 
ATOM      3  O   UNL     1       3.340   7.933  17.336  0.00  0.00    +0.000 OA
ATOM      4  N   UNL     1       3.914   6.091  18.602  0.00  0.00    +0.000 N 
ATOM      5  H   UNL     1       3.463   5.411  19.185  0.00  0.00    +0.000 HD
ENDROOT
BRANCH   4   6
ATOM      6  C   UNL     1       5.026   5.629  17.859  0.00  0.00    +0.000 A 
ATOM      7  C   UNL     1       6.322   5.620  18.382  0.00  0.00    +0.000 A 
ATOM      8  C   UNL     1       7.405   5.178  17.622  0.00  0.00    +0.000 A 
ATOM      9  C   UNL     1       7.194   4.720  16.325  0.00  0.00    +0.000 A 
ATOM     10  C   UNL     1       5.902   4.697  15.807  0.00  0.00    +0.000 A 
ATOM     11 CL   UNL     1       5.647   4.122  14.202  0.00  0.00    +0.000 Cl
ATOM     12  C   UNL     1       4.813   5.140  16.567  0.00  0.00    +0.000 A 
ENDBRANCH   4   6
BRANCH   1  13
ATOM     13  C   UNL     1       1.330   8.666  18.997  0.00  0.00    +0.000 C 
BRANCH  13  17
ATOM     14  C   UNL     1      -0.279  11.202  22.154  0.00  0.00    +0.000 A 
ATOM     15  C   UNL     1      -0.485   9.814  22.196  0.00  0.00    +0.000 A 
ATOM     16  C   UNL     1       0.025   8.971  21.193  0.00  0.00    +0.000 A 
ATOM     17  C   UNL     1       0.736   9.502  20.115  0.00  0.00    +0.000 A 
ATOM     18  C   UNL     1       0.974  10.887  20.108  0.00  0.00    +0.000 A 
ATOM     19  C   UNL     1       0.439  11.746  21.079  0.00  0.00    +0.000 A 
BRANCH  14  21
ATOM     20  C   UNL     1      -2.135  12.421  23.003  0.00  0.00    +0.000 C 
ATOM     21  O   UNL     1      -0.765  12.051  23.113  0.00  0.00    +0.000 OA
ENDBRANCH  14  21
BRANCH  19  22
ATOM     22  O   UNL     1       0.765  13.059  20.863  0.00  0.00    +0.000 OA
ATOM     23  C   UNL     1       2.091  13.350  20.444  0.00  0.00    +0.000 C 
ENDBRANCH  19  22
ENDBRANCH  13  17
ENDBRANCH   1  13
BRANCH   1  24
ATOM     24  C   UNL     1       2.176   6.868  20.606  0.00  0.00    +0.000 C 
BRANCH  24  25
ATOM     25  C   UNL     1       1.431   5.542  20.581  0.00  0.00    +0.000 C 
BRANCH  25  26
ATOM     26  C   UNL     1       2.256   4.314  21.004  0.00  0.00    +0.000 C 
BRANCH  26  27
ATOM     27  N   UNL     1       1.676   3.136  20.356  0.00  0.00    +0.000 NA
ATOM     28  C   UNL     1       2.662   2.104  19.984  0.00  0.00    +0.000 C 
ATOM     29  C   UNL     1       3.332   2.337  18.625  0.00  0.00    +0.000 C 
ATOM     30  O   UNL     1       2.351   2.435  17.590  0.00  0.00    +0.000 OA
ATOM     31  C   UNL     1       1.478   3.542  17.846  0.00  0.00    +0.000 C 
ATOM     32  C   UNL     1       0.791   3.438  19.219  0.00  0.00    +0.000 C 
ENDBRANCH  26  27
ENDBRANCH  25  26
ENDBRANCH  24  25
ENDBRANCH   1  24
TORSDOF 9
ENDMDL
MODEL 6
REMARK VINA RESULT:      -7.0      2.885      4.876
REMARK  Name = 
REMARK  11 active torsions:
REMARK  status: ('A' for Active; 'I' for Inactive)
REMARK    1  A    between atoms: C_1  and  O_2
REMARK    2  A    between atoms: O_2  and  C_3
REMARK    3  A    between atoms: C_6  and  C_7
REMARK    4  A    between atoms: C_7  and  N_8
REMARK    5  A    between atoms: N_8  and  C_9
REMARK    6  A    between atoms: C_9  and  C_10
REMARK    7  A    between atoms: C_10  and  C_11
REMARK    8  A    between atoms: C_11  and  N_12
REMARK    9  A    between atoms: N_20  and  C_21
REMARK   10  A    between atoms: C_29  and  O_30
REMARK   11  A    between atoms: O_30  and  C_31
REMARK                            x       y       z     vdW  Elec       q    Type
REMARK                         _______ _______ _______ _____ _____    ______ ____
ROOT
ATOM      1  N   UNL     1       1.934   8.235  18.816  0.00  0.00    +0.000 N 
ATOM      2  C   UNL     1       1.899   7.192  19.752  0.00  0.00    +0.000 C 
ATOM      3  O   UNL     1       1.345   7.328  20.839  0.00  0.00    +0.000 OA
ATOM      4  N   UNL     1       2.547   6.028  19.359  0.00  0.00    +0.000 N 
ATOM      5  H   UNL     1       3.311   6.132  18.718  0.00  0.00    +0.000 HD
ENDROOT
BRANCH   4   6
ATOM      6  C   UNL     1       2.450   4.776  20.009  0.00  0.00    +0.000 A 
ATOM      7  C   UNL     1       1.279   4.350  20.642  0.00  0.00    +0.000 A 
ATOM      8  C   UNL     1       1.216   3.118  21.294  0.00  0.00    +0.000 A 
ATOM      9  C   UNL     1       2.332   2.286  21.303  0.00  0.00    +0.000 A 
ATOM     10  C   UNL     1       3.493   2.690  20.650  0.00  0.00    +0.000 A 
ATOM     11 CL   UNL     1       4.869   1.652  20.660  0.00  0.00    +0.000 Cl
ATOM     12  C   UNL     1       3.560   3.925  19.994  0.00  0.00    +0.000 A 
ENDBRANCH   4   6
BRANCH   1  13
ATOM     13  C   UNL     1       1.582   9.568  19.334  0.00  0.00    +0.000 C 
BRANCH  13  17
ATOM     14  C   UNL     1      -2.346  11.218  18.424  0.00  0.00    +0.000 A 
ATOM     15  C   UNL     1      -1.754  10.293  17.548  0.00  0.00    +0.000 A 
ATOM     16  C   UNL     1      -0.489   9.742  17.818  0.00  0.00    +0.000 A 
ATOM     17  C   UNL     1       0.220  10.120  18.961  0.00  0.00    +0.000 A 
ATOM     18  C   UNL     1      -0.403  11.011  19.850  0.00  0.00    +0.000 A 
ATOM     19  C   UNL     1      -1.647  11.601  19.577  0.00  0.00    +0.000 A 
BRANCH  14  21
ATOM     20  C   UNL     1      -4.667  10.876  18.035  0.00  0.00    +0.000 C 
ATOM     21  O   UNL     1      -3.576  11.776  18.188  0.00  0.00    +0.000 OA
ENDBRANCH  14  21
BRANCH  19  22
ATOM     22  O   UNL     1      -2.052  12.464  20.560  0.00  0.00    +0.000 OA
ATOM     23  C   UNL     1      -1.478  13.763  20.576  0.00  0.00    +0.000 C 
ENDBRANCH  19  22
ENDBRANCH  13  17
ENDBRANCH   1  13
BRANCH   1  24
ATOM     24  C   UNL     1       2.582   8.082  17.509  0.00  0.00    +0.000 C 
BRANCH  24  25
ATOM     25  C   UNL     1       4.078   7.813  17.430  0.00  0.00    +0.000 C 
BRANCH  25  26
ATOM     26  C   UNL     1       4.472   6.448  16.841  0.00  0.00    +0.000 C 
BRANCH  26  27
ATOM     27  N   UNL     1       5.825   6.564  16.296  0.00  0.00    +0.000 NA
ATOM     28  C   UNL     1       6.180   5.512  15.325  0.00  0.00    +0.000 C 
ATOM     29  C   UNL     1       6.707   4.221  15.962  0.00  0.00    +0.000 C 
ATOM     30  O   UNL     1       7.845   4.494  16.783  0.00  0.00    +0.000 OA
ATOM     31  C   UNL     1       7.480   5.390  17.841  0.00  0.00    +0.000 C 
ATOM     32  C   UNL     1       6.882   6.705  17.312  0.00  0.00    +0.000 C 
ENDBRANCH  26  27
ENDBRANCH  25  26
ENDBRANCH  24  25
ENDBRANCH   1  24
TORSDOF 9
ENDMDL
MODEL 7
REMARK VINA RESULT:      -7.0      1.177      2.118
REMARK  Name = 
REMARK  11 active torsions:
REMARK  status: ('A' for Active; 'I' for Inactive)
REMARK    1  A    between atoms: C_1  and  O_2
REMARK    2  A    between atoms: O_2  and  C_3
REMARK    3  A    between atoms: C_6  and  C_7
REMARK    4  A    between atoms: C_7  and  N_8
REMARK    5  A    between atoms: N_8  and  C_9
REMARK    6  A    between atoms: C_9  and  C_10
REMARK    7  A    between atoms: C_10  and  C_11
REMARK    8  A    between atoms: C_11  and  N_12
REMARK    9  A    between atoms: N_20  and  C_21
REMARK   10  A    between atoms: C_29  and  O_30
REMARK   11  A    between atoms: O_30  and  C_31
REMARK                            x       y       z     vdW  Elec       q    Type
REMARK                         _______ _______ _______ _____ _____    ______ ____
ROOT
ATOM      1  N   UNL     1       2.158   7.957  19.005  0.00  0.00    +0.000 N 
ATOM      2  C   UNL     1       3.009   7.618  17.944  0.00  0.00    +0.000 C 
ATOM      3  O   UNL     1       2.982   8.234  16.882  0.00  0.00    +0.000 OA
ATOM      4  N   UNL     1       3.851   6.541  18.186  0.00  0.00    +0.000 N 
ATOM      5  H   UNL     1       3.524   5.850  18.836  0.00  0.00    +0.000 HD
ENDROOT
BRANCH   4   6
ATOM      6  C   UNL     1       4.951   6.161  17.382  0.00  0.00    +0.000 A 
ATOM      7  C   UNL     1       6.260   6.554  17.672  0.00  0.00    +0.000 A 
ATOM      8  C   UNL     1       7.325   6.182  16.851  0.00  0.00    +0.000 A 
ATOM      9  C   UNL     1       7.087   5.392  15.731  0.00  0.00    +0.000 A 
ATOM     10  C   UNL     1       5.791   4.972  15.451  0.00  0.00    +0.000 A 
ATOM     11 CL   UNL     1       5.504   3.987  14.066  0.00  0.00    +0.000 Cl
ATOM     12  C   UNL     1       4.719   5.342  16.273  0.00  0.00    +0.000 A 
ENDBRANCH   4   6
BRANCH   1  13
ATOM     13  C   UNL     1       1.029   8.837  18.660  0.00  0.00    +0.000 C 
BRANCH  13  17
ATOM     14  C   UNL     1       0.291  12.193  21.339  0.00  0.00    +0.000 A 
ATOM     15  C   UNL     1      -0.426  10.996  21.500  0.00  0.00    +0.000 A 
ATOM     16  C   UNL     1      -0.207   9.896  20.652  0.00  0.00    +0.000 A 
ATOM     17  C   UNL     1       0.722   9.977  19.612  0.00  0.00    +0.000 A 
ATOM     18  C   UNL     1       1.464  11.164  19.491  0.00  0.00    +0.000 A 
ATOM     19  C   UNL     1       1.230  12.284  20.302  0.00  0.00    +0.000 A 
BRANCH  14  21
ATOM     20  C   UNL     1      -1.076  13.283  22.951  0.00  0.00    +0.000 C 
ATOM     21  O   UNL     1       0.098  13.283  22.146  0.00  0.00    +0.000 OA
ENDBRANCH  14  21
BRANCH  19  22
ATOM     22  O   UNL     1       2.041  13.343  19.991  0.00  0.00    +0.000 OA
ATOM     23  C   UNL     1       2.244  13.638  18.616  0.00  0.00    +0.000 C 
ENDBRANCH  19  22
ENDBRANCH  13  17
ENDBRANCH   1  13
BRANCH   1  24
ATOM     24  C   UNL     1       2.188   7.236  20.282  0.00  0.00    +0.000 C 
BRANCH  24  25
ATOM     25  C   UNL     1       1.034   6.323  20.668  0.00  0.00    +0.000 C 
BRANCH  25  26
ATOM     26  C   UNL     1       1.355   4.818  20.666  0.00  0.00    +0.000 C 
BRANCH  26  27
ATOM     27  N   UNL     1       2.215   4.541  19.514  0.00  0.00    +0.000 NA
ATOM     28  C   UNL     1       1.535   3.851  18.403  0.00  0.00    +0.000 C 
ATOM     29  C   UNL     1       1.487   2.325  18.546  0.00  0.00    +0.000 C 
ATOM     30  O   UNL     1       2.807   1.792  18.683  0.00  0.00    +0.000 OA
ATOM     31  C   UNL     1       3.429   2.325  19.858  0.00  0.00    +0.000 C 
ATOM     32  C   UNL     1       3.479   3.863  19.846  0.00  0.00    +0.000 C 
ENDBRANCH  26  27
ENDBRANCH  25  26
ENDBRANCH  24  25
ENDBRANCH   1  24
TORSDOF 9
ENDMDL
MODEL 8
REMARK VINA RESULT:      -6.9      4.734      7.125
REMARK  Name = 
REMARK  11 active torsions:
REMARK  status: ('A' for Active; 'I' for Inactive)
REMARK    1  A    between atoms: C_1  and  O_2
REMARK    2  A    between atoms: O_2  and  C_3
REMARK    3  A    between atoms: C_6  and  C_7
REMARK    4  A    between atoms: C_7  and  N_8
REMARK    5  A    between atoms: N_8  and  C_9
REMARK    6  A    between atoms: C_9  and  C_10
REMARK    7  A    between atoms: C_10  and  C_11
REMARK    8  A    between atoms: C_11  and  N_12
REMARK    9  A    between atoms: N_20  and  C_21
REMARK   10  A    between atoms: C_29  and  O_30
REMARK   11  A    between atoms: O_30  and  C_31
REMARK                            x       y       z     vdW  Elec       q    Type
REMARK                         _______ _______ _______ _____ _____    ______ ____
ROOT
ATOM      1  N   UNL     1       1.282  10.772  18.773  0.00  0.00    +0.000 N 
ATOM      2  C   UNL     1       1.499  12.151  18.895  0.00  0.00    +0.000 C 
ATOM      3  O   UNL     1       0.880  12.826  19.713  0.00  0.00    +0.000 OA
ATOM      4  N   UNL     1       2.439  12.678  18.019  0.00  0.00    +0.000 N 
ATOM      5  H   UNL     1       2.552  12.206  17.141  0.00  0.00    +0.000 HD
ENDROOT
BRANCH   4   6
ATOM      6  C   UNL     1       3.004  13.973  18.102  0.00  0.00    +0.000 A 
ATOM      7  C   UNL     1       4.384  14.185  18.147  0.00  0.00    +0.000 A 
ATOM      8  C   UNL     1       4.915  15.471  18.248  0.00  0.00    +0.000 A 
ATOM      9  C   UNL     1       4.059  16.568  18.289  0.00  0.00    +0.000 A 
ATOM     10  C   UNL     1       2.684  16.368  18.215  0.00  0.00    +0.000 A 
ATOM     11 CL   UNL     1       1.630  17.730  18.258  0.00  0.00    +0.000 Cl
ATOM     12  C   UNL     1       2.148  15.078  18.112  0.00  0.00    +0.000 A 
ENDBRANCH   4   6
BRANCH   1  13
ATOM     13  C   UNL     1       0.062  10.260  19.419  0.00  0.00    +0.000 C 
BRANCH  13  17
ATOM     14  C   UNL     1      -3.695  11.162  17.407  0.00  0.00    +0.000 A 
ATOM     15  C   UNL     1      -3.362  11.825  18.600  0.00  0.00    +0.000 A 
ATOM     16  C   UNL     1      -2.155  11.555  19.269  0.00  0.00    +0.000 A 
ATOM     17  C   UNL     1      -1.264  10.603  18.769  0.00  0.00    +0.000 A 
ATOM     18  C   UNL     1      -1.589   9.981  17.551  0.00  0.00    +0.000 A 
ATOM     19  C   UNL     1      -2.806  10.208  16.892  0.00  0.00    +0.000 A 
BRANCH  14  21
ATOM     20  C   UNL     1      -5.803  12.263  17.364  0.00  0.00    +0.000 C 
ATOM     21  O   UNL     1      -4.865  11.399  16.733  0.00  0.00    +0.000 OA
ENDBRANCH  14  21
BRANCH  19  22
ATOM     22  O   UNL     1      -2.932   9.474  15.743  0.00  0.00    +0.000 OA
ATOM     23  C   UNL     1      -2.966  10.179  14.509  0.00  0.00    +0.000 C 
ENDBRANCH  19  22
ENDBRANCH  13  17
ENDBRANCH   1  13
BRANCH   1  24
ATOM     24  C   UNL     1       2.024   9.954  17.807  0.00  0.00    +0.000 C 
BRANCH  24  25
ATOM     25  C   UNL     1       1.769   8.456  17.726  0.00  0.00    +0.000 C 
BRANCH  25  26
ATOM     26  C   UNL     1       2.615   7.591  18.676  0.00  0.00    +0.000 C 
BRANCH  26  27
ATOM     27  N   UNL     1       3.033   6.394  17.946  0.00  0.00    +0.000 NA
ATOM     28  C   UNL     1       2.262   5.182  18.277  0.00  0.00    +0.000 C 
ATOM     29  C   UNL     1       2.775   4.428  19.509  0.00  0.00    +0.000 C 
ATOM     30  O   UNL     1       4.149   4.070  19.344  0.00  0.00    +0.000 OA
ATOM     31  C   UNL     1       4.946   5.251  19.187  0.00  0.00    +0.000 C 
ATOM     32  C   UNL     1       4.479   6.118  18.004  0.00  0.00    +0.000 C 
ENDBRANCH  26  27
ENDBRANCH  25  26
ENDBRANCH  24  25
ENDBRANCH   1  24
TORSDOF 9
ENDMDL
MODEL 9
REMARK VINA RESULT:      -6.8      3.165      7.705
REMARK  Name = 
REMARK  11 active torsions:
REMARK  status: ('A' for Active; 'I' for Inactive)
REMARK    1  A    between atoms: C_1  and  O_2
REMARK    2  A    between atoms: O_2  and  C_3
REMARK    3  A    between atoms: C_6  and  C_7
REMARK    4  A    between atoms: C_7  and  N_8
REMARK    5  A    between atoms: N_8  and  C_9
REMARK    6  A    between atoms: C_9  and  C_10
REMARK    7  A    between atoms: C_10  and  C_11
REMARK    8  A    between atoms: C_11  and  N_12
REMARK    9  A    between atoms: N_20  and  C_21
REMARK   10  A    between atoms: C_29  and  O_30
REMARK   11  A    between atoms: O_30  and  C_31
REMARK                            x       y       z     vdW  Elec       q    Type
REMARK                         _______ _______ _______ _____ _____    ______ ____
ROOT
ATOM      1  N   UNL     1       3.034   7.827  18.059  0.00  0.00    +0.000 N 
ATOM      2  C   UNL     1       2.235   8.976  17.979  0.00  0.00    +0.000 C 
ATOM      3  O   UNL     1       2.606   9.970  17.361  0.00  0.00    +0.000 OA
ATOM      4  N   UNL     1       1.026   8.901  18.658  0.00  0.00    +0.000 N 
ATOM      5  H   UNL     1       0.995   8.297  19.458  0.00  0.00    +0.000 HD
ENDROOT
BRANCH   4   6
ATOM      6  C   UNL     1      -0.044   9.818  18.534  0.00  0.00    +0.000 A 
ATOM      7  C   UNL     1      -0.232  10.873  19.431  0.00  0.00    +0.000 A 
ATOM      8  C   UNL     1      -1.307  11.752  19.298  0.00  0.00    +0.000 A 
ATOM      9  C   UNL     1      -2.202  11.591  18.244  0.00  0.00    +0.000 A 
ATOM     10  C   UNL     1      -2.005  10.561  17.329  0.00  0.00    +0.000 A 
ATOM     11 CL   UNL     1      -3.113  10.371  16.023  0.00  0.00    +0.000 Cl
ATOM     12  C   UNL     1      -0.927   9.677  17.459  0.00  0.00    +0.000 A 
ENDBRANCH   4   6
BRANCH   1  13
ATOM     13  C   UNL     1       4.442   8.001  17.667  0.00  0.00    +0.000 C 
BRANCH  13  17
ATOM     14  C   UNL     1       6.307   4.951  15.177  0.00  0.00    +0.000 A 
ATOM     15  C   UNL     1       5.256   5.729  14.664  0.00  0.00    +0.000 A 
ATOM     16  C   UNL     1       4.638   6.722  15.444  0.00  0.00    +0.000 A 
ATOM     17  C   UNL     1       5.045   6.945  16.761  0.00  0.00    +0.000 A 
ATOM     18  C   UNL     1       6.127   6.191  17.247  0.00  0.00    +0.000 A 
ATOM     19  C   UNL     1       6.728   5.169  16.497  0.00  0.00    +0.000 A 
BRANCH  14  21
ATOM     20  C   UNL     1       6.343   3.647  13.189  0.00  0.00    +0.000 C 
ATOM     21  O   UNL     1       6.928   3.973  14.445  0.00  0.00    +0.000 OA
ENDBRANCH  14  21
BRANCH  19  22
ATOM     22  O   UNL     1       7.739   4.539  17.173  0.00  0.00    +0.000 OA
ATOM     23  C   UNL     1       7.955   4.906  18.528  0.00  0.00    +0.000 C 
ENDBRANCH  19  22
ENDBRANCH  13  17
ENDBRANCH   1  13
BRANCH   1  24
ATOM     24  C   UNL     1       2.596   6.629  18.785  0.00  0.00    +0.000 C 
BRANCH  24  25
ATOM     25  C   UNL     1       2.175   5.386  18.016  0.00  0.00    +0.000 C 
BRANCH  25  26
ATOM     26  C   UNL     1       3.157   4.204  18.087  0.00  0.00    +0.000 C 
BRANCH  26  27
ATOM     27  N   UNL     1       2.415   3.028  18.545  0.00  0.00    +0.000 NA
ATOM     28  C   UNL     1       1.038   3.315  18.988  0.00  0.00    +0.000 C 
ATOM     29  C   UNL     1       0.930   3.768  20.449  0.00  0.00    +0.000 C 
ATOM     30  O   UNL     1       1.502   2.791  21.322  0.00  0.00    +0.000 OA
ATOM     31  C   UNL     1       2.891   2.617  21.017  0.00  0.00    +0.000 C 
ATOM     32  C   UNL     1       3.120   2.214  19.549  0.00  0.00    +0.000 C 
ENDBRANCH  26  27
ENDBRANCH  25  26
ENDBRANCH  24  25
ENDBRANCH   1  24
TORSDOF 9
ENDMDL
