MODEL 1
REMARK VINA RESULT:      -6.5      0.000      0.000
REMARK  Name = 
REMARK  5 active torsions:
REMARK  status: ('A' for Active; 'I' for Inactive)
REMARK    1  A    between atoms: C_1  and  O_2
REMARK    2  A    between atoms: O_2  and  C_3
REMARK    3  A    between atoms: C_7  and  O_8
REMARK    4  A    between atoms: O_8  and  C_9
REMARK    5  A    between atoms: C_10  and  C_11
REMARK                            x       y       z     vdW  Elec       q    Type
REMARK                         _______ _______ _______ _____ _____    ______ ____
ROOT
ATOM      1  C   UNL     1       2.340   6.177  19.589  0.00  0.00    +0.000 A 
ATOM      2  C   UNL     1       1.937   5.292  20.574  0.00  0.00    +0.000 A 
ATOM      3  C   UNL     1       2.208   3.915  20.458  0.00  0.00    +0.000 A 
ATOM      4 BR   UNL     1       1.599   2.880  21.935  0.00  0.00    +0.000 Br
ATOM      5  C   UNL     1       2.918   3.415  19.350  0.00  0.00    +0.000 A 
ATOM      6  C   UNL     1       3.328   4.331  18.352  0.00  0.00    +0.000 A 
ATOM      7  C   UNL     1       2.985   5.687  18.458  0.00  0.00    +0.000 A 
ENDROOT
BRANCH   6   8
ATOM      8  C   UNL     1       3.976   3.879  17.080  0.00  0.00    +0.000 C 
ATOM      9  O   UNL     1       3.262   3.327  16.245  0.00  0.00    +0.000 OA
ATOM     10  N   UNL     1       5.317   4.192  16.811  0.00  0.00    +0.000 N 
ATOM     11  C   UNL     1       5.828   4.004  15.448  0.00  0.00    +0.000 C 
ATOM     12  C   UNL     1       6.522   5.289  14.949  0.00  0.00    +0.000 C 
ATOM     13  N   UNL     1       7.580   5.770  15.860  0.00  0.00    +0.000 NA
ATOM     14  C   UNL     1       7.053   5.913  17.230  0.00  0.00    +0.000 C 
ATOM     15  C   UNL     1       6.362   4.629  17.748  0.00  0.00    +0.000 C 
ATOM     16  H   UNL     1       7.916   6.674  15.531  0.00  0.00    +0.000 HD
ENDBRANCH   6   8
BRANCH   1  18
ATOM     17  C   UNL     1       2.220   8.205  18.351  0.00  0.00    +0.000 C 
ATOM     18  O   UNL     1       2.190   7.537  19.608  0.00  0.00    +0.000 OA
ENDBRANCH   1  18
BRANCH   5  19
ATOM     19  O   UNL     1       3.372   2.125  19.246  0.00  0.00    +0.000 OA
ATOM     20  C   UNL     1       4.584   1.808  19.928  0.00  0.00    +0.000 C 
ENDBRANCH   5  19
TORSDOF 3
ENDMDL
MODEL 2
REMARK VINA RESULT:      -6.3      1.754      2.148
REMARK  Name = 
REMARK  5 active torsions:
REMARK  status: ('A' for Active; 'I' for Inactive)
REMARK    1  A    between atoms: C_1  and  O_2
REMARK    2  A    between atoms: O_2  and  C_3
REMARK    3  A    between atoms: C_7  and  O_8
REMARK    4  A    between atoms: O_8  and  C_9
REMARK    5  A    between atoms: C_10  and  C_11
REMARK                            x       y       z     vdW  Elec       q    Type
REMARK                         _______ _______ _______ _____ _____    ______ ____
ROOT
ATOM      1  C   UNL     1       1.964   6.028  20.224  0.00  0.00    +0.000 A 
ATOM      2  C   UNL     1       1.295   4.862  19.897  0.00  0.00    +0.000 A 
ATOM      3  C   UNL     1       1.976   3.787  19.293  0.00  0.00    +0.000 A 
ATOM      4 BR   UNL     1       0.880   2.267  18.957  0.00  0.00    +0.000 Br
ATOM      5  C   UNL     1       3.357   3.868  19.034  0.00  0.00    +0.000 A 
ATOM      6  C   UNL     1       4.030   5.066  19.376  0.00  0.00    +0.000 A 
ATOM      7  C   UNL     1       3.315   6.145  19.914  0.00  0.00    +0.000 A 
ENDROOT
BRANCH   6   8
ATOM      8  C   UNL     1       5.468   5.294  19.026  0.00  0.00    +0.000 C 
ATOM      9  O   UNL     1       6.310   5.009  19.875  0.00  0.00    +0.000 OA
ATOM     10  N   UNL     1       5.834   5.696  17.733  0.00  0.00    +0.000 N 
ATOM     11  C   UNL     1       7.245   5.616  17.338  0.00  0.00    +0.000 C 
ATOM     12  C   UNL     1       7.392   4.849  16.007  0.00  0.00    +0.000 C 
ATOM     13  N   UNL     1       6.559   5.404  14.921  0.00  0.00    +0.000 NA
ATOM     14  C   UNL     1       5.154   5.511  15.354  0.00  0.00    +0.000 C 
ATOM     15  C   UNL     1       4.989   6.286  16.684  0.00  0.00    +0.000 C 
ATOM     16  H   UNL     1       6.618   4.790  14.110  0.00  0.00    +0.000 HD
ENDBRANCH   6   8
BRANCH   1  18
ATOM     17  C   UNL     1       1.557   8.372  20.201  0.00  0.00    +0.000 C 
ATOM     18  O   UNL     1       1.434   7.117  20.862  0.00  0.00    +0.000 OA
ENDBRANCH   1  18
BRANCH   5  19
ATOM     19  O   UNL     1       4.125   2.813  18.612  0.00  0.00    +0.000 OA
ATOM     20  C   UNL     1       4.494   1.848  19.596  0.00  0.00    +0.000 C 
ENDBRANCH   5  19
TORSDOF 3
ENDMDL
MODEL 3
REMARK VINA RESULT:      -6.1      1.793      3.216
REMARK  Name = 
REMARK  5 active torsions:
REMARK  status: ('A' for Active; 'I' for Inactive)
REMARK    1  A    between atoms: C_1  and  O_2
REMARK    2  A    between atoms: O_2  and  C_3
REMARK    3  A    between atoms: C_7  and  O_8
REMARK    4  A    between atoms: O_8  and  C_9
REMARK    5  A    between atoms: C_10  and  C_11
REMARK                            x       y       z     vdW  Elec       q    Type
REMARK                         _______ _______ _______ _____ _____    ______ ____
ROOT
ATOM      1  C   UNL     1       2.385   4.371  21.074  0.00  0.00    +0.000 A 
ATOM      2  C   UNL     1       1.994   5.697  21.122  0.00  0.00    +0.000 A 
ATOM      3  C   UNL     1       2.133   6.529  19.994  0.00  0.00    +0.000 A 
ATOM      4 BR   UNL     1       1.504   8.306  20.261  0.00  0.00    +0.000 Br
ATOM      5  C   UNL     1       2.648   6.020  18.787  0.00  0.00    +0.000 A 
ATOM      6  C   UNL     1       3.041   4.660  18.751  0.00  0.00    +0.000 A 
ATOM      7  C   UNL     1       2.956   3.873  19.908  0.00  0.00    +0.000 A 
ENDROOT
BRANCH   6   8
ATOM      8  C   UNL     1       3.714   4.062  17.554  0.00  0.00    +0.000 C 
ATOM      9  O   UNL     1       3.014   3.429  16.768  0.00  0.00    +0.000 OA
ATOM     10  N   UNL     1       5.065   4.329  17.287  0.00  0.00    +0.000 N 
ATOM     11  C   UNL     1       5.608   3.986  15.967  0.00  0.00    +0.000 C 
ATOM     12  C   UNL     1       6.330   5.200  15.347  0.00  0.00    +0.000 C 
ATOM     13  N   UNL     1       7.372   5.768  16.226  0.00  0.00    +0.000 NA
ATOM     14  C   UNL     1       6.814   6.068  17.557  0.00  0.00    +0.000 C 
ATOM     15  C   UNL     1       6.093   4.856  18.197  0.00  0.00    +0.000 C 
ATOM     16  H   UNL     1       7.729   6.626  15.808  0.00  0.00    +0.000 HD
ENDBRANCH   6   8
BRANCH   1  18
ATOM     17  C   UNL     1       1.405   2.334  21.817  0.00  0.00    +0.000 C 
ATOM     18  O   UNL     1       2.253   3.448  22.077  0.00  0.00    +0.000 OA
ENDBRANCH   1  18
BRANCH   5  19
ATOM     19  O   UNL     1       2.653   6.709  17.601  0.00  0.00    +0.000 OA
ATOM     20  C   UNL     1       3.648   7.719  17.445  0.00  0.00    +0.000 C 
ENDBRANCH   5  19
TORSDOF 3
ENDMDL
MODEL 4
REMARK VINA RESULT:      -6.1      3.291      4.884
REMARK  Name = 
REMARK  5 active torsions:
REMARK  status: ('A' for Active; 'I' for Inactive)
REMARK    1  A    between atoms: C_1  and  O_2
REMARK    2  A    between atoms: O_2  and  C_3
REMARK    3  A    between atoms: C_7  and  O_8
REMARK    4  A    between atoms: O_8  and  C_9
REMARK    5  A    between atoms: C_10  and  C_11
REMARK                            x       y       z     vdW  Elec       q    Type
REMARK                         _______ _______ _______ _____ _____    ______ ____
ROOT
ATOM      1  C   UNL     1       3.012   8.009  17.542  0.00  0.00    +0.000 A 
ATOM      2  C   UNL     1       4.371   7.778  17.420  0.00  0.00    +0.000 A 
ATOM      3  C   UNL     1       4.891   6.473  17.523  0.00  0.00    +0.000 A 
ATOM      4 BR   UNL     1       6.778   6.370  17.292  0.00  0.00    +0.000 Br
ATOM      5  C   UNL     1       4.034   5.374  17.725  0.00  0.00    +0.000 A 
ATOM      6  C   UNL     1       2.645   5.624  17.844  0.00  0.00    +0.000 A 
ATOM      7  C   UNL     1       2.163   6.940  17.807  0.00  0.00    +0.000 A 
ENDROOT
BRANCH   6   8
ATOM      8  C   UNL     1       1.672   4.539  18.184  0.00  0.00    +0.000 C 
ATOM      9  O   UNL     1       1.180   3.907  17.252  0.00  0.00    +0.000 OA
ATOM     10  N   UNL     1       1.436   4.183  19.521  0.00  0.00    +0.000 N 
ATOM     11  C   UNL     1       0.722   2.933  19.806  0.00  0.00    +0.000 C 
ATOM     12  C   UNL     1       1.514   2.076  20.815  0.00  0.00    +0.000 C 
ATOM     13  N   UNL     1       1.850   2.800  22.057  0.00  0.00    +0.000 NA
ATOM     14  C   UNL     1       2.531   4.069  21.744  0.00  0.00    +0.000 C 
ATOM     15  C   UNL     1       1.744   4.946  20.740  0.00  0.00    +0.000 C 
ATOM     16  H   UNL     1       2.463   2.219  22.626  0.00  0.00    +0.000 HD
ENDBRANCH   6   8
BRANCH   1  18
ATOM     17  C   UNL     1       1.123   9.358  18.063  0.00  0.00    +0.000 C 
ATOM     18  O   UNL     1       2.378   9.214  17.406  0.00  0.00    +0.000 OA
ENDBRANCH   1  18
BRANCH   5  19
ATOM     19  O   UNL     1       4.435   4.064  17.663  0.00  0.00    +0.000 OA
ATOM     20  C   UNL     1       4.886   3.467  18.877  0.00  0.00    +0.000 C 
ENDBRANCH   5  19
TORSDOF 3
ENDMDL
MODEL 5
REMARK VINA RESULT:      -6.0      3.180      5.688
REMARK  Name = 
REMARK  5 active torsions:
REMARK  status: ('A' for Active; 'I' for Inactive)
REMARK    1  A    between atoms: C_1  and  O_2
REMARK    2  A    between atoms: O_2  and  C_3
REMARK    3  A    between atoms: C_7  and  O_8
REMARK    4  A    between atoms: O_8  and  C_9
REMARK    5  A    between atoms: C_10  and  C_11
REMARK                            x       y       z     vdW  Elec       q    Type
REMARK                         _______ _______ _______ _____ _____    ______ ____
ROOT
ATOM      1  C   UNL     1       5.410   4.711  15.619  0.00  0.00    +0.000 A 
ATOM      2  C   UNL     1       6.130   5.848  15.940  0.00  0.00    +0.000 A 
ATOM      3  C   UNL     1       6.398   6.176  17.283  0.00  0.00    +0.000 A 
ATOM      4 BR   UNL     1       7.431   7.760  17.503  0.00  0.00    +0.000 Br
ATOM      5  C   UNL     1       5.960   5.338  18.326  0.00  0.00    +0.000 A 
ATOM      6  C   UNL     1       5.227   4.175  17.984  0.00  0.00    +0.000 A 
ATOM      7  C   UNL     1       4.916   3.910  16.643  0.00  0.00    +0.000 A 
ENDROOT
BRANCH   6   8
ATOM      8  C   UNL     1       4.613   3.292  19.025  0.00  0.00    +0.000 C 
ATOM      9  O   UNL     1       5.374   2.607  19.706  0.00  0.00    +0.000 OA
ATOM     10  N   UNL     1       3.237   3.347  19.289  0.00  0.00    +0.000 N 
ATOM     11  C   UNL     1       2.721   2.704  20.503  0.00  0.00    +0.000 C 
ATOM     12  C   UNL     1       1.850   3.690  21.310  0.00  0.00    +0.000 C 
ATOM     13  N   UNL     1       0.761   4.290  20.513  0.00  0.00    +0.000 NA
ATOM     14  C   UNL     1       1.298   4.895  19.281  0.00  0.00    +0.000 C 
ATOM     15  C   UNL     1       2.166   3.915  18.455  0.00  0.00    +0.000 C 
ATOM     16  H   UNL     1       0.299   5.008  21.069  0.00  0.00    +0.000 HD
ENDBRANCH   6   8
BRANCH   1  18
ATOM     17  C   UNL     1       6.242   3.850  13.563  0.00  0.00    +0.000 C 
ATOM     18  O   UNL     1       5.133   4.253  14.360  0.00  0.00    +0.000 OA
ENDBRANCH   1  18
BRANCH   5  19
ATOM     19  O   UNL     1       6.324   5.489  19.640  0.00  0.00    +0.000 OA
ATOM     20  C   UNL     1       7.718   5.425  19.936  0.00  0.00    +0.000 C 
ENDBRANCH   5  19
TORSDOF 3
ENDMDL
MODEL 6
REMARK VINA RESULT:      -6.0      1.944      2.429
REMARK  Name = 
REMARK  5 active torsions:
REMARK  status: ('A' for Active; 'I' for Inactive)
REMARK    1  A    between atoms: C_1  and  O_2
REMARK    2  A    between atoms: O_2  and  C_3
REMARK    3  A    between atoms: C_7  and  O_8
REMARK    4  A    between atoms: O_8  and  C_9
REMARK    5  A    between atoms: C_10  and  C_11
REMARK                            x       y       z     vdW  Elec       q    Type
REMARK                         _______ _______ _______ _____ _____    ______ ____
ROOT
ATOM      1  C   UNL     1       1.809   6.121  20.264  0.00  0.00    +0.000 A 
ATOM      2  C   UNL     1       1.221   4.887  20.053  0.00  0.00    +0.000 A 
ATOM      3  C   UNL     1       1.670   4.043  19.018  0.00  0.00    +0.000 A 
ATOM      4 BR   UNL     1       0.750   2.379  18.923  0.00  0.00    +0.000 Br
ATOM      5  C   UNL     1       2.744   4.429  18.194  0.00  0.00    +0.000 A 
ATOM      6  C   UNL     1       3.339   5.693  18.423  0.00  0.00    +0.000 A 
ATOM      7  C   UNL     1       2.828   6.541  19.415  0.00  0.00    +0.000 A 
ENDROOT
BRANCH   6   8
ATOM      8  C   UNL     1       4.401   6.242  17.521  0.00  0.00    +0.000 C 
ATOM      9  O   UNL     1       4.042   6.982  16.608  0.00  0.00    +0.000 OA
ATOM     10  N   UNL     1       5.758   6.017  17.796  0.00  0.00    +0.000 N 
ATOM     11  C   UNL     1       6.767   6.809  17.082  0.00  0.00    +0.000 C 
ATOM     12  C   UNL     1       7.753   7.453  18.079  0.00  0.00    +0.000 C 
ATOM     13  N   UNL     1       8.381   6.475  18.990  0.00  0.00    +0.000 NA
ATOM     14  C   UNL     1       7.351   5.666  19.665  0.00  0.00    +0.000 C 
ATOM     15  C   UNL     1       6.359   5.005  18.678  0.00  0.00    +0.000 C 
ATOM     16  H   UNL     1       8.930   6.976  19.688  0.00  0.00    +0.000 HD
ENDBRANCH   6   8
BRANCH   1  18
ATOM     17  C   UNL     1       1.327   8.367  20.886  0.00  0.00    +0.000 C 
ATOM     18  O   UNL     1       1.506   7.006  21.263  0.00  0.00    +0.000 OA
ENDBRANCH   1  18
BRANCH   5  19
ATOM     19  O   UNL     1       3.352   3.601  17.285  0.00  0.00    +0.000 OA
ATOM     20  C   UNL     1       3.963   2.418  17.795  0.00  0.00    +0.000 C 
ENDBRANCH   5  19
TORSDOF 3
ENDMDL
MODEL 7
REMARK VINA RESULT:      -5.8      3.009      5.655
REMARK  Name = 
REMARK  5 active torsions:
REMARK  status: ('A' for Active; 'I' for Inactive)
REMARK    1  A    between atoms: C_1  and  O_2
REMARK    2  A    between atoms: O_2  and  C_3
REMARK    3  A    between atoms: C_7  and  O_8
REMARK    4  A    between atoms: O_8  and  C_9
REMARK    5  A    between atoms: C_10  and  C_11
REMARK                            x       y       z     vdW  Elec       q    Type
REMARK                         _______ _______ _______ _____ _____    ______ ____
ROOT
ATOM      1  C   UNL     1       5.604   4.546  15.055  0.00  0.00    +0.000 A 
ATOM      2  C   UNL     1       6.393   5.608  15.458  0.00  0.00    +0.000 A 
ATOM      3  C   UNL     1       6.429   6.006  16.809  0.00  0.00    +0.000 A 
ATOM      4 BR   UNL     1       7.602   7.465  17.155  0.00  0.00    +0.000 Br
ATOM      5  C   UNL     1       5.682   5.313  17.780  0.00  0.00    +0.000 A 
ATOM      6  C   UNL     1       4.881   4.226  17.354  0.00  0.00    +0.000 A 
ATOM      7  C   UNL     1       4.812   3.894  15.994  0.00  0.00    +0.000 A 
ENDROOT
BRANCH   6   8
ATOM      8  C   UNL     1       3.958   3.509  18.290  0.00  0.00    +0.000 C 
ATOM      9  O   UNL     1       4.217   2.337  18.554  0.00  0.00    +0.000 OA
ATOM     10  N   UNL     1       2.916   4.195  18.932  0.00  0.00    +0.000 N 
ATOM     11  C   UNL     1       2.229   3.550  20.057  0.00  0.00    +0.000 C 
ATOM     12  C   UNL     1       2.195   4.490  21.280  0.00  0.00    +0.000 C 
ATOM     13  N   UNL     1       1.612   5.814  20.980  0.00  0.00    +0.000 NA
ATOM     14  C   UNL     1       2.291   6.424  19.823  0.00  0.00    +0.000 C 
ATOM     15  C   UNL     1       2.326   5.497  18.584  0.00  0.00    +0.000 C 
ATOM     16  H   UNL     1       1.721   6.417  21.794  0.00  0.00    +0.000 HD
ENDBRANCH   6   8
BRANCH   1  18
ATOM     17  C   UNL     1       6.719   4.036  13.015  0.00  0.00    +0.000 C 
ATOM     18  O   UNL     1       5.525   4.027  13.791  0.00  0.00    +0.000 OA
ENDBRANCH   1  18
BRANCH   5  19
ATOM     19  O   UNL     1       5.793   5.523  19.131  0.00  0.00    +0.000 OA
ATOM     20  C   UNL     1       7.098   5.419  19.696  0.00  0.00    +0.000 C 
ENDBRANCH   5  19
TORSDOF 3
ENDMDL
MODEL 8
REMARK VINA RESULT:      -5.8      2.815      5.266
REMARK  Name = 
REMARK  5 active torsions:
REMARK  status: ('A' for Active; 'I' for Inactive)
REMARK    1  A    between atoms: C_1  and  O_2
REMARK    2  A    between atoms: O_2  and  C_3
REMARK    3  A    between atoms: C_7  and  O_8
REMARK    4  A    between atoms: O_8  and  C_9
REMARK    5  A    between atoms: C_10  and  C_11
REMARK                            x       y       z     vdW  Elec       q    Type
REMARK                         _______ _______ _______ _____ _____    ______ ____
ROOT
ATOM      1  C   UNL     1       6.339   4.656  15.703  0.00  0.00    +0.000 A 
ATOM      2  C   UNL     1       7.127   5.091  16.754  0.00  0.00    +0.000 A 
ATOM      3  C   UNL     1       6.706   4.918  18.088  0.00  0.00    +0.000 A 
ATOM      4 BR   UNL     1       7.952   5.553  19.380  0.00  0.00    +0.000 Br
ATOM      5  C   UNL     1       5.488   4.275  18.378  0.00  0.00    +0.000 A 
ATOM      6  C   UNL     1       4.693   3.832  17.293  0.00  0.00    +0.000 A 
ATOM      7  C   UNL     1       5.103   4.079  15.975  0.00  0.00    +0.000 A 
ENDROOT
BRANCH   6   8
ATOM      8  C   UNL     1       3.328   3.253  17.497  0.00  0.00    +0.000 C 
ATOM      9  O   UNL     1       3.140   2.098  17.119  0.00  0.00    +0.000 OA
ATOM     10  N   UNL     1       2.348   3.964  18.206  0.00  0.00    +0.000 N 
ATOM     11  C   UNL     1       1.140   3.258  18.648  0.00  0.00    +0.000 C 
ATOM     12  C   UNL     1       0.900   3.486  20.155  0.00  0.00    +0.000 C 
ATOM     13  N   UNL     1       0.855   4.915  20.526  0.00  0.00    +0.000 NA
ATOM     14  C   UNL     1       2.059   5.611  20.039  0.00  0.00    +0.000 C 
ATOM     15  C   UNL     1       2.309   5.399  18.526  0.00  0.00    +0.000 C 
ATOM     16  H   UNL     1       0.807   4.993  21.541  0.00  0.00    +0.000 HD
ENDBRANCH   6   8
BRANCH   1  18
ATOM     17  C   UNL     1       5.980   3.803  13.511  0.00  0.00    +0.000 C 
ATOM     18  O   UNL     1       6.655   4.713  14.373  0.00  0.00    +0.000 OA
ENDBRANCH   1  18
BRANCH   5  19
ATOM     19  O   UNL     1       5.090   3.913  19.639  0.00  0.00    +0.000 OA
ATOM     20  C   UNL     1       5.005   2.516  19.915  0.00  0.00    +0.000 C 
ENDBRANCH   5  19
TORSDOF 3
ENDMDL
MODEL 9
REMARK VINA RESULT:      -5.6      2.081      2.942
REMARK  Name = 
REMARK  5 active torsions:
REMARK  status: ('A' for Active; 'I' for Inactive)
REMARK    1  A    between atoms: C_1  and  O_2
REMARK    2  A    between atoms: O_2  and  C_3
REMARK    3  A    between atoms: C_7  and  O_8
REMARK    4  A    between atoms: O_8  and  C_9
REMARK    5  A    between atoms: C_10  and  C_11
REMARK                            x       y       z     vdW  Elec       q    Type
REMARK                         _______ _______ _______ _____ _____    ______ ____
ROOT
ATOM      1  C   UNL     1       2.220   8.930  18.146  0.00  0.00    +0.000 A 
ATOM      2  C   UNL     1       1.619   8.979  19.392  0.00  0.00    +0.000 A 
ATOM      3  C   UNL     1       1.581   7.838  20.217  0.00  0.00    +0.000 A 
ATOM      4 BR   UNL     1       0.741   8.129  21.901  0.00  0.00    +0.000 Br
ATOM      5  C   UNL     1       2.177   6.633  19.801  0.00  0.00    +0.000 A 
ATOM      6  C   UNL     1       2.791   6.597  18.526  0.00  0.00    +0.000 A 
ATOM      7  C   UNL     1       2.754   7.727  17.697  0.00  0.00    +0.000 A 
ENDROOT
BRANCH   6   8
ATOM      8  C   UNL     1       3.339   5.330  17.946  0.00  0.00    +0.000 C 
ATOM      9  O   UNL     1       2.551   4.583  17.372  0.00  0.00    +0.000 OA
ATOM     10  N   UNL     1       4.719   5.079  17.954  0.00  0.00    +0.000 N 
ATOM     11  C   UNL     1       5.247   3.992  17.121  0.00  0.00    +0.000 C 
ATOM     12  C   UNL     1       6.407   4.501  16.239  0.00  0.00    +0.000 C 
ATOM     13  N   UNL     1       7.481   5.157  17.012  0.00  0.00    +0.000 NA
ATOM     14  C   UNL     1       6.922   6.218  17.870  0.00  0.00    +0.000 C 
ATOM     15  C   UNL     1       5.763   5.721  18.768  0.00  0.00    +0.000 C 
ATOM     16  H   UNL     1       8.154   5.565  16.365  0.00  0.00    +0.000 HD
ENDBRANCH   6   8
BRANCH   1  18
ATOM     17  C   UNL     1       2.312  11.287  17.830  0.00  0.00    +0.000 C 
ATOM     18  O   UNL     1       2.372   9.976  17.276  0.00  0.00    +0.000 OA
ENDBRANCH   1  18
BRANCH   5  19
ATOM     19  O   UNL     1       2.337   5.535  20.608  0.00  0.00    +0.000 OA
ATOM     20  C   UNL     1       1.278   4.579  20.617  0.00  0.00    +0.000 C 
ENDBRANCH   5  19
TORSDOF 3
ENDMDL
