MODEL 1
REMARK VINA RESULT:      -6.9      0.000      0.000
REMARK  Name = 
REMARK  10 active torsions:
REMARK  status: ('A' for Active; 'I' for Inactive)
REMARK    1  A    between atoms: C_1  and  C_2
REMARK    2  A    between atoms: C_5  and  N_6
REMARK    3  A    between atoms: N_6  and  C_15
REMARK    4  A    between atoms: C_7  and  C_9
REMARK    5  A    between atoms: C_13  and  C_14
REMARK    6  A    between atoms: C_15  and  C_16
REMARK    7  A    between atoms: C_15  and  C_22
REMARK    8  A    between atoms: N_18  and  C_19
REMARK    9  A    between atoms: C_19  and  C_20
REMARK   10  A    between atoms: C_19  and  C_21
REMARK                            x       y       z     vdW  Elec       q    Type
REMARK                         _______ _______ _______ _____ _____    ______ ____
ROOT
ATOM      1  N   UNL     1      -1.095  13.127  20.518  0.00  0.00    +0.000 N 
ATOM      2  C   UNL     1      -0.080  12.686  21.418  0.00  0.00    +0.000 C 
ATOM      3  O   UNL     1       0.706  13.470  21.953  0.00  0.00    +0.000 OA
ENDROOT
BRANCH   1   8
ATOM      4  C   UNL     1      -0.851  18.525  18.283  0.00  0.00    +0.000 C 
ATOM      5  C   UNL     1      -0.920  17.159  18.891  0.00  0.00    +0.000 A 
ATOM      6  C   UNL     1      -0.196  16.111  18.314  0.00  0.00    +0.000 A 
ATOM      7  C   UNL     1      -0.282  14.805  18.824  0.00  0.00    +0.000 A 
ATOM      8  C   UNL     1      -1.032  14.493  19.972  0.00  0.00    +0.000 A 
ATOM      9  C   UNL     1      -1.754  15.559  20.535  0.00  0.00    +0.000 A 
ATOM     10  C   UNL     1      -1.734  16.850  19.983  0.00  0.00    +0.000 A 
ATOM     11 CL   UNL     1      -2.784  18.031  20.683  0.00  0.00    +0.000 Cl
ENDBRANCH   1   8
BRANCH   2  12
ATOM     12  C   UNL     1       0.016  11.270  21.817  0.00  0.00    +0.000 A 
ATOM     13  N   UNL     1      -0.388  10.808  23.068  0.00  0.00    +0.000 NA
ATOM     14  N   UNL     1      -0.206   9.506  23.200  0.00  0.00    +0.000 NA
ATOM     15  S   UNL     1       0.388   8.785  21.816  0.00  0.00    +0.000 S 
ATOM     16  C   UNL     1       0.442  10.265  20.950  0.00  0.00    +0.000 A 
ATOM     17  C   UNL     1       0.889  10.329  19.534  0.00  0.00    +0.000 C 
ENDBRANCH   2  12
BRANCH   1  18
ATOM     18  C   UNL     1      -2.400  12.377  20.456  0.00  0.00    +0.000 C 
BRANCH  18  19
ATOM     19  C   UNL     1      -2.971  12.041  19.057  0.00  0.00    +0.000 A 
ATOM     20  C   UNL     1      -4.341  11.957  18.760  0.00  0.00    +0.000 A 
ATOM     21  C   UNL     1      -4.777  11.439  17.530  0.00  0.00    +0.000 A 
ATOM     22  C   UNL     1      -3.852  11.060  16.568  0.00  0.00    +0.000 A 
ATOM     23  F   UNL     1      -4.270  10.516  15.418  0.00  0.00    +0.000 F 
ATOM     24  C   UNL     1      -2.497  11.239  16.786  0.00  0.00    +0.000 A 
ATOM     25  C   UNL     1      -2.064  11.751  18.010  0.00  0.00    +0.000 A 
ENDBRANCH  18  19
BRANCH  18  26
ATOM     26  C   UNL     1      -3.458  13.045  21.420  0.00  0.00    +0.000 C 
ATOM     27  O   UNL     1      -4.442  13.668  21.017  0.00  0.00    +0.000 OA
ATOM     28  N   UNL     1      -3.326  12.757  22.770  0.00  0.00    +0.000 N 
ATOM     29  H   UNL     1      -2.399  12.518  23.108  0.00  0.00    +0.000 HD
BRANCH  28  30
ATOM     30  C   UNL     1      -4.259  13.333  23.731  0.00  0.00    +0.000 C 
ATOM     31  C   UNL     1      -4.620  12.307  24.798  0.00  0.00    +0.000 C 
ATOM     32  C   UNL     1      -3.677  14.603  24.347  0.00  0.00    +0.000 C 
ENDBRANCH  28  30
ENDBRANCH  18  26
ENDBRANCH   1  18
TORSDOF 6
ENDMDL
MODEL 2
REMARK VINA RESULT:      -6.8      3.776      6.390
REMARK  Name = 
REMARK  10 active torsions:
REMARK  status: ('A' for Active; 'I' for Inactive)
REMARK    1  A    between atoms: C_1  and  C_2
REMARK    2  A    between atoms: C_5  and  N_6
REMARK    3  A    between atoms: N_6  and  C_15
REMARK    4  A    between atoms: C_7  and  C_9
REMARK    5  A    between atoms: C_13  and  C_14
REMARK    6  A    between atoms: C_15  and  C_16
REMARK    7  A    between atoms: C_15  and  C_22
REMARK    8  A    between atoms: N_18  and  C_19
REMARK    9  A    between atoms: C_19  and  C_20
REMARK   10  A    between atoms: C_19  and  C_21
REMARK                            x       y       z     vdW  Elec       q    Type
REMARK                         _______ _______ _______ _____ _____    ______ ____
ROOT
ATOM      1  N   UNL     1       0.903  12.627  20.200  0.00  0.00    +0.000 N 
ATOM      2  C   UNL     1       1.954  13.569  20.403  0.00  0.00    +0.000 C 
ATOM      3  O   UNL     1       3.076  13.412  19.920  0.00  0.00    +0.000 OA
ENDROOT
BRANCH   1   8
ATOM      4  C   UNL     1       2.234   7.352  18.054  0.00  0.00    +0.000 C 
ATOM      5  C   UNL     1       1.864   8.686  18.625  0.00  0.00    +0.000 A 
ATOM      6  C   UNL     1       2.068   9.842  17.865  0.00  0.00    +0.000 A 
ATOM      7  C   UNL     1       1.786  11.113  18.390  0.00  0.00    +0.000 A 
ATOM      8  C   UNL     1       1.223  11.292  19.666  0.00  0.00    +0.000 A 
ATOM      9  C   UNL     1       1.029  10.120  20.415  0.00  0.00    +0.000 A 
ATOM     10  C   UNL     1       1.381   8.852  19.925  0.00  0.00    +0.000 A 
ATOM     11 CL   UNL     1       1.231   7.510  21.005  0.00  0.00    +0.000 Cl
ENDBRANCH   1   8
BRANCH   2  12
ATOM     12  C   UNL     1       1.711  14.828  21.131  0.00  0.00    +0.000 A 
ATOM     13  N   UNL     1       1.768  14.921  22.520  0.00  0.00    +0.000 NA
ATOM     14  N   UNL     1       1.514  16.145  22.947  0.00  0.00    +0.000 NA
ATOM     15  S   UNL     1       1.266  17.233  21.706  0.00  0.00    +0.000 S 
ATOM     16  C   UNL     1       1.484  16.045  20.489  0.00  0.00    +0.000 A 
ATOM     17  C   UNL     1       1.414  16.381  19.042  0.00  0.00    +0.000 C 
ENDBRANCH   2  12
BRANCH   1  18
ATOM     18  C   UNL     1      -0.521  13.113  20.139  0.00  0.00    +0.000 C 
BRANCH  18  19
ATOM     19  C   UNL     1      -1.414  12.887  21.384  0.00  0.00    +0.000 A 
ATOM     20  C   UNL     1      -1.127  11.971  22.409  0.00  0.00    +0.000 A 
ATOM     21  C   UNL     1      -2.085  11.671  23.390  0.00  0.00    +0.000 A 
ATOM     22  C   UNL     1      -3.308  12.323  23.390  0.00  0.00    +0.000 A 
ATOM     23  F   UNL     1      -4.241  11.994  24.294  0.00  0.00    +0.000 F 
ATOM     24  C   UNL     1      -3.577  13.314  22.462  0.00  0.00    +0.000 A 
ATOM     25  C   UNL     1      -2.625  13.612  21.486  0.00  0.00    +0.000 A 
ENDBRANCH  18  19
BRANCH  18  26
ATOM     26  C   UNL     1      -1.198  12.646  18.791  0.00  0.00    +0.000 C 
ATOM     27  O   UNL     1      -0.884  13.092  17.686  0.00  0.00    +0.000 OA
ATOM     28  N   UNL     1      -2.066  11.569  18.881  0.00  0.00    +0.000 N 
ATOM     29  H   UNL     1      -2.530  11.416  19.770  0.00  0.00    +0.000 HD
BRANCH  28  30
ATOM     30  C   UNL     1      -2.737  11.073  17.684  0.00  0.00    +0.000 C 
ATOM     31  C   UNL     1      -2.004   9.857  17.132  0.00  0.00    +0.000 C 
ATOM     32  C   UNL     1      -4.200  10.758  17.983  0.00  0.00    +0.000 C 
ENDBRANCH  28  30
ENDBRANCH  18  26
ENDBRANCH   1  18
TORSDOF 6
ENDMDL
MODEL 3
REMARK VINA RESULT:      -6.8      3.579      6.367
REMARK  Name = 
REMARK  10 active torsions:
REMARK  status: ('A' for Active; 'I' for Inactive)
REMARK    1  A    between atoms: C_1  and  C_2
REMARK    2  A    between atoms: C_5  and  N_6
REMARK    3  A    between atoms: N_6  and  C_15
REMARK    4  A    between atoms: C_7  and  C_9
REMARK    5  A    between atoms: C_13  and  C_14
REMARK    6  A    between atoms: C_15  and  C_16
REMARK    7  A    between atoms: C_15  and  C_22
REMARK    8  A    between atoms: N_18  and  C_19
REMARK    9  A    between atoms: C_19  and  C_20
REMARK   10  A    between atoms: C_19  and  C_21
REMARK                            x       y       z     vdW  Elec       q    Type
REMARK                         _______ _______ _______ _____ _____    ______ ____
ROOT
ATOM      1  N   UNL     1       0.098  12.668  21.106  0.00  0.00    +0.000 N 
ATOM      2  C   UNL     1       1.128  13.622  21.358  0.00  0.00    +0.000 C 
ATOM      3  O   UNL     1       2.321  13.350  21.219  0.00  0.00    +0.000 OA
ENDROOT
BRANCH   1   8
ATOM      4  C   UNL     1       1.438   6.998  20.605  0.00  0.00    +0.000 C 
ATOM      5  C   UNL     1       1.123   8.458  20.707  0.00  0.00    +0.000 A 
ATOM      6  C   UNL     1       0.611   8.971  21.903  0.00  0.00    +0.000 A 
ATOM      7  C   UNL     1       0.252  10.323  22.016  0.00  0.00    +0.000 A 
ATOM      8  C   UNL     1       0.451  11.244  20.972  0.00  0.00    +0.000 A 
ATOM      9  C   UNL     1       0.963  10.709  19.779  0.00  0.00    +0.000 A 
ATOM     10  C   UNL     1       1.251   9.343  19.635  0.00  0.00    +0.000 A 
ATOM     11 CL   UNL     1       1.733   8.791  18.068  0.00  0.00    +0.000 Cl
ENDBRANCH   1   8
BRANCH   2  12
ATOM     12  C   UNL     1       0.799  15.016  21.711  0.00  0.00    +0.000 A 
ATOM     13  N   UNL     1       0.538  15.423  23.017  0.00  0.00    +0.000 NA
ATOM     14  N   UNL     1       0.265  16.714  23.090  0.00  0.00    +0.000 NA
ATOM     15  S   UNL     1       0.376  17.491  21.617  0.00  0.00    +0.000 S 
ATOM     16  C   UNL     1       0.799  16.055  20.781  0.00  0.00    +0.000 A 
ATOM     17  C   UNL     1       1.085  16.052  19.322  0.00  0.00    +0.000 C 
ENDBRANCH   2  12
BRANCH   1  18
ATOM     18  C   UNL     1      -1.233  13.141  20.585  0.00  0.00    +0.000 C 
BRANCH  18  19
ATOM     19  C   UNL     1      -2.484  12.875  21.458  0.00  0.00    +0.000 A 
ATOM     20  C   UNL     1      -3.808  13.035  21.016  0.00  0.00    +0.000 A 
ATOM     21  C   UNL     1      -4.877  12.984  21.924  0.00  0.00    +0.000 A 
ATOM     22  C   UNL     1      -4.641  12.713  23.262  0.00  0.00    +0.000 A 
ATOM     23  F   UNL     1      -5.657  12.718  24.135  0.00  0.00    +0.000 F 
ATOM     24  C   UNL     1      -3.359  12.436  23.709  0.00  0.00    +0.000 A 
ATOM     25  C   UNL     1      -2.296  12.489  22.806  0.00  0.00    +0.000 A 
ENDBRANCH  18  19
BRANCH  18  26
ATOM     26  C   UNL     1      -1.416  12.700  19.079  0.00  0.00    +0.000 C 
ATOM     27  O   UNL     1      -0.729  13.143  18.157  0.00  0.00    +0.000 OA
ATOM     28  N   UNL     1      -2.287  11.647  18.850  0.00  0.00    +0.000 N 
ATOM     29  H   UNL     1      -3.033  11.502  19.523  0.00  0.00    +0.000 HD
BRANCH  28  30
ATOM     30  C   UNL     1      -2.517  11.175  17.489  0.00  0.00    +0.000 C 
ATOM     31  C   UNL     1      -1.745   9.886  17.238  0.00  0.00    +0.000 C 
ATOM     32  C   UNL     1      -4.010  10.995  17.230  0.00  0.00    +0.000 C 
ENDBRANCH  28  30
ENDBRANCH  18  26
ENDBRANCH   1  18
TORSDOF 6
ENDMDL
MODEL 4
REMARK VINA RESULT:      -6.7      3.881      6.669
REMARK  Name = 
REMARK  10 active torsions:
REMARK  status: ('A' for Active; 'I' for Inactive)
REMARK    1  A    between atoms: C_1  and  C_2
REMARK    2  A    between atoms: C_5  and  N_6
REMARK    3  A    between atoms: N_6  and  C_15
REMARK    4  A    between atoms: C_7  and  C_9
REMARK    5  A    between atoms: C_13  and  C_14
REMARK    6  A    between atoms: C_15  and  C_16
REMARK    7  A    between atoms: C_15  and  C_22
REMARK    8  A    between atoms: N_18  and  C_19
REMARK    9  A    between atoms: C_19  and  C_20
REMARK   10  A    between atoms: C_19  and  C_21
REMARK                            x       y       z     vdW  Elec       q    Type
REMARK                         _______ _______ _______ _____ _____    ______ ____
ROOT
ATOM      1  N   UNL     1       0.257  12.204  19.335  0.00  0.00    +0.000 N 
ATOM      2  C   UNL     1       1.043  13.349  19.014  0.00  0.00    +0.000 C 
ATOM      3  O   UNL     1       2.075  13.267  18.346  0.00  0.00    +0.000 OA
ENDROOT
BRANCH   1   8
ATOM      4  C   UNL     1       2.566   6.894  18.519  0.00  0.00    +0.000 C 
ATOM      5  C   UNL     1       1.948   8.238  18.754  0.00  0.00    +0.000 A 
ATOM      6  C   UNL     1       1.970   9.193  17.733  0.00  0.00    +0.000 A 
ATOM      7  C   UNL     1       1.452  10.482  17.938  0.00  0.00    +0.000 A 
ATOM      8  C   UNL     1       0.824  10.859  19.138  0.00  0.00    +0.000 A 
ATOM      9  C   UNL     1       0.815   9.886  20.151  0.00  0.00    +0.000 A 
ATOM     10  C   UNL     1       1.401   8.622  19.979  0.00  0.00    +0.000 A 
ATOM     11 CL   UNL     1       1.454   7.576  21.355  0.00  0.00    +0.000 Cl
ENDBRANCH   1   8
BRANCH   2  12
ATOM     12  C   UNL     1       0.601  14.703  19.395  0.00  0.00    +0.000 A 
ATOM     13  N   UNL     1      -0.148  15.520  18.550  0.00  0.00    +0.000 NA
ATOM     14  N   UNL     1      -0.425  16.687  19.104  0.00  0.00    +0.000 NA
ATOM     15  S   UNL     1       0.141  16.819  20.669  0.00  0.00    +0.000 S 
ATOM     16  C   UNL     1       0.826  15.247  20.659  0.00  0.00    +0.000 A 
ATOM     17  C   UNL     1       1.516  14.684  21.850  0.00  0.00    +0.000 C 
ENDBRANCH   2  12
BRANCH   1  18
ATOM     18  C   UNL     1      -1.236  12.351  19.475  0.00  0.00    +0.000 C 
BRANCH  18  19
ATOM     19  C   UNL     1      -1.822  12.416  20.906  0.00  0.00    +0.000 A 
ATOM     20  C   UNL     1      -1.171  11.933  22.053  0.00  0.00    +0.000 A 
ATOM     21  C   UNL     1      -1.852  11.833  23.276  0.00  0.00    +0.000 A 
ATOM     22  C   UNL     1      -3.164  12.269  23.378  0.00  0.00    +0.000 A 
ATOM     23  F   UNL     1      -3.829  12.122  24.532  0.00  0.00    +0.000 F 
ATOM     24  C   UNL     1      -3.797  12.858  22.296  0.00  0.00    +0.000 A 
ATOM     25  C   UNL     1      -3.119  12.955  21.080  0.00  0.00    +0.000 A 
ENDBRANCH  18  19
BRANCH  18  26
ATOM     26  C   UNL     1      -1.974  11.312  18.543  0.00  0.00    +0.000 C 
ATOM     27  O   UNL     1      -1.920  10.092  18.712  0.00  0.00    +0.000 OA
ATOM     28  N   UNL     1      -2.843  11.842  17.602  0.00  0.00    +0.000 N 
ATOM     29  H   UNL     1      -2.663  12.786  17.279  0.00  0.00    +0.000 HD
BRANCH  28  30
ATOM     30  C   UNL     1      -3.567  10.954  16.698  0.00  0.00    +0.000 C 
ATOM     31  C   UNL     1      -5.023  11.387  16.584  0.00  0.00    +0.000 C 
ATOM     32  C   UNL     1      -2.886  10.910  15.333  0.00  0.00    +0.000 C 
ENDBRANCH  28  30
ENDBRANCH  18  26
ENDBRANCH   1  18
TORSDOF 6
ENDMDL
MODEL 5
REMARK VINA RESULT:      -6.6      3.356      5.461
REMARK  Name = 
REMARK  10 active torsions:
REMARK  status: ('A' for Active; 'I' for Inactive)
REMARK    1  A    between atoms: C_1  and  C_2
REMARK    2  A    between atoms: C_5  and  N_6
REMARK    3  A    between atoms: N_6  and  C_15
REMARK    4  A    between atoms: C_7  and  C_9
REMARK    5  A    between atoms: C_13  and  C_14
REMARK    6  A    between atoms: C_15  and  C_16
REMARK    7  A    between atoms: C_15  and  C_22
REMARK    8  A    between atoms: N_18  and  C_19
REMARK    9  A    between atoms: C_19  and  C_20
REMARK   10  A    between atoms: C_19  and  C_21
REMARK                            x       y       z     vdW  Elec       q    Type
REMARK                         _______ _______ _______ _____ _____    ______ ____
ROOT
ATOM      1  N   UNL     1      -0.395  13.035  20.170  0.00  0.00    +0.000 N 
ATOM      2  C   UNL     1      -1.371  13.995  20.570  0.00  0.00    +0.000 C 
ATOM      3  O   UNL     1      -1.201  15.204  20.412  0.00  0.00    +0.000 OA
ENDROOT
BRANCH   1   8
ATOM      4  C   UNL     1       4.991  14.871  18.825  0.00  0.00    +0.000 C 
ATOM      5  C   UNL     1       3.627  14.379  19.199  0.00  0.00    +0.000 A 
ATOM      6  C   UNL     1       2.639  14.276  18.215  0.00  0.00    +0.000 A 
ATOM      7  C   UNL     1       1.334  13.873  18.541  0.00  0.00    +0.000 A 
ATOM      8  C   UNL     1       0.968  13.484  19.841  0.00  0.00    +0.000 A 
ATOM      9  C   UNL     1       1.974  13.597  20.815  0.00  0.00    +0.000 A 
ATOM     10  C   UNL     1       3.259  14.074  20.511  0.00  0.00    +0.000 A 
ATOM     11 CL   UNL     1       4.355  14.307  21.828  0.00  0.00    +0.000 Cl
ENDBRANCH   1   8
BRANCH   2  12
ATOM     12  C   UNL     1      -2.675  13.569  21.111  0.00  0.00    +0.000 A 
ATOM     13  N   UNL     1      -3.841  13.550  20.349  0.00  0.00    +0.000 NA
ATOM     14  N   UNL     1      -4.884  13.136  21.045  0.00  0.00    +0.000 NA
ATOM     15  S   UNL     1      -4.494  12.696  22.608  0.00  0.00    +0.000 S 
ATOM     16  C   UNL     1      -2.834  13.076  22.406  0.00  0.00    +0.000 A 
ATOM     17  C   UNL     1      -1.845  12.874  23.497  0.00  0.00    +0.000 C 
ENDBRANCH   2  12
BRANCH   1  18
ATOM     18  C   UNL     1      -0.847  11.677  19.701  0.00  0.00    +0.000 C 
BRANCH  18  19
ATOM     19  C   UNL     1       0.205  10.542  19.657  0.00  0.00    +0.000 A 
ATOM     20  C   UNL     1       0.905  10.153  18.503  0.00  0.00    +0.000 A 
ATOM     21  C   UNL     1       1.679   8.983  18.495  0.00  0.00    +0.000 A 
ATOM     22  C   UNL     1       1.811   8.228  19.651  0.00  0.00    +0.000 A 
ATOM     23  F   UNL     1       2.506   7.083  19.626  0.00  0.00    +0.000 F 
ATOM     24  C   UNL     1       1.229   8.647  20.835  0.00  0.00    +0.000 A 
ATOM     25  C   UNL     1       0.457   9.810  20.842  0.00  0.00    +0.000 A 
ENDBRANCH  18  19
BRANCH  18  26
ATOM     26  C   UNL     1      -1.677  11.812  18.364  0.00  0.00    +0.000 C 
ATOM     27  O   UNL     1      -1.245  12.369  17.353  0.00  0.00    +0.000 OA
ATOM     28  N   UNL     1      -2.875  11.117  18.313  0.00  0.00    +0.000 N 
ATOM     29  H   UNL     1      -3.344  10.928  19.193  0.00  0.00    +0.000 HD
BRANCH  28  30
ATOM     30  C   UNL     1      -3.707  11.187  17.116  0.00  0.00    +0.000 C 
ATOM     31  C   UNL     1      -3.402  10.016  16.190  0.00  0.00    +0.000 C 
ATOM     32  C   UNL     1      -5.185  11.234  17.494  0.00  0.00    +0.000 C 
ENDBRANCH  28  30
ENDBRANCH  18  26
ENDBRANCH   1  18
TORSDOF 6
ENDMDL
MODEL 6
REMARK VINA RESULT:      -6.6      3.446      5.533
REMARK  Name = 
REMARK  10 active torsions:
REMARK  status: ('A' for Active; 'I' for Inactive)
REMARK    1  A    between atoms: C_1  and  C_2
REMARK    2  A    between atoms: C_5  and  N_6
REMARK    3  A    between atoms: N_6  and  C_15
REMARK    4  A    between atoms: C_7  and  C_9
REMARK    5  A    between atoms: C_13  and  C_14
REMARK    6  A    between atoms: C_15  and  C_16
REMARK    7  A    between atoms: C_15  and  C_22
REMARK    8  A    between atoms: N_18  and  C_19
REMARK    9  A    between atoms: C_19  and  C_20
REMARK   10  A    between atoms: C_19  and  C_21
REMARK                            x       y       z     vdW  Elec       q    Type
REMARK                         _______ _______ _______ _____ _____    ______ ____
ROOT
ATOM      1  N   UNL     1      -0.272  12.467  19.118  0.00  0.00    +0.000 N 
ATOM      2  C   UNL     1       0.244  13.762  18.816  0.00  0.00    +0.000 C 
ATOM      3  O   UNL     1      -0.487  14.699  18.494  0.00  0.00    +0.000 OA
ENDROOT
BRANCH   1   8
ATOM      4  C   UNL     1      -5.806  11.231  17.690  0.00  0.00    +0.000 C 
ATOM      5  C   UNL     1      -4.377  11.516  18.034  0.00  0.00    +0.000 A 
ATOM      6  C   UNL     1      -4.072  12.138  19.249  0.00  0.00    +0.000 A 
ATOM      7  C   UNL     1      -2.748  12.471  19.578  0.00  0.00    +0.000 A 
ATOM      8  C   UNL     1      -1.660  12.140  18.752  0.00  0.00    +0.000 A 
ATOM      9  C   UNL     1      -1.988  11.519  17.536  0.00  0.00    +0.000 A 
ATOM     10  C   UNL     1      -3.316  11.253  17.165  0.00  0.00    +0.000 A 
ATOM     11 CL   UNL     1      -3.589  10.624  15.578  0.00  0.00    +0.000 Cl
ENDBRANCH   1   8
BRANCH   2  12
ATOM     12  C   UNL     1       1.681  14.058  18.967  0.00  0.00    +0.000 A 
ATOM     13  N   UNL     1       2.633  13.688  18.019  0.00  0.00    +0.000 NA
ATOM     14  N   UNL     1       3.852  14.057  18.368  0.00  0.00    +0.000 NA
ATOM     15  S   UNL     1       3.892  14.912  19.802  0.00  0.00    +0.000 S 
ATOM     16  C   UNL     1       2.195  14.802  20.028  0.00  0.00    +0.000 A 
ATOM     17  C   UNL     1       1.517  15.427  21.194  0.00  0.00    +0.000 C 
ENDBRANCH   2  12
BRANCH   1  18
ATOM     18  C   UNL     1       0.434  11.612  20.138  0.00  0.00    +0.000 C 
BRANCH  18  19
ATOM     19  C   UNL     1       0.925  10.214  19.690  0.00  0.00    +0.000 A 
ATOM     20  C   UNL     1       1.085   9.116  20.552  0.00  0.00    +0.000 A 
ATOM     21  C   UNL     1       1.736   7.952  20.115  0.00  0.00    +0.000 A 
ATOM     22  C   UNL     1       2.175   7.850  18.804  0.00  0.00    +0.000 A 
ATOM     23  F   UNL     1       2.843   6.760  18.406  0.00  0.00    +0.000 F 
ATOM     24  C   UNL     1       1.929   8.869  17.899  0.00  0.00    +0.000 A 
ATOM     25  C   UNL     1       1.284  10.027  18.334  0.00  0.00    +0.000 A 
ENDBRANCH  18  19
BRANCH  18  26
ATOM     26  C   UNL     1      -0.388  11.584  21.486  0.00  0.00    +0.000 C 
ATOM     27  O   UNL     1      -0.661  10.546  22.091  0.00  0.00    +0.000 OA
ATOM     28  N   UNL     1      -0.657  12.814  22.066  0.00  0.00    +0.000 N 
ATOM     29  H   UNL     1      -0.701  13.621  21.452  0.00  0.00    +0.000 HD
BRANCH  28  30
ATOM     30  C   UNL     1      -1.412  12.882  23.312  0.00  0.00    +0.000 C 
ATOM     31  C   UNL     1      -1.302  14.273  23.923  0.00  0.00    +0.000 C 
ATOM     32  C   UNL     1      -2.867  12.485  23.078  0.00  0.00    +0.000 C 
ENDBRANCH  28  30
ENDBRANCH  18  26
ENDBRANCH   1  18
TORSDOF 6
ENDMDL
MODEL 7
REMARK VINA RESULT:      -6.6      3.209      5.889
REMARK  Name = 
REMARK  10 active torsions:
REMARK  status: ('A' for Active; 'I' for Inactive)
REMARK    1  A    between atoms: C_1  and  C_2
REMARK    2  A    between atoms: C_5  and  N_6
REMARK    3  A    between atoms: N_6  and  C_15
REMARK    4  A    between atoms: C_7  and  C_9
REMARK    5  A    between atoms: C_13  and  C_14
REMARK    6  A    between atoms: C_15  and  C_16
REMARK    7  A    between atoms: C_15  and  C_22
REMARK    8  A    between atoms: N_18  and  C_19
REMARK    9  A    between atoms: C_19  and  C_20
REMARK   10  A    between atoms: C_19  and  C_21
REMARK                            x       y       z     vdW  Elec       q    Type
REMARK                         _______ _______ _______ _____ _____    ______ ____
ROOT
ATOM      1  N   UNL     1      -0.982  11.085  20.967  0.00  0.00    +0.000 N 
ATOM      2  C   UNL     1      -1.157  11.522  22.313  0.00  0.00    +0.000 C 
ATOM      3  O   UNL     1      -0.397  11.177  23.217  0.00  0.00    +0.000 OA
ENDROOT
BRANCH   1   8
ATOM      4  C   UNL     1       2.596   6.593  19.861  0.00  0.00    +0.000 C 
ATOM      5  C   UNL     1       1.706   7.768  20.127  0.00  0.00    +0.000 A 
ATOM      6  C   UNL     1       0.858   7.752  21.239  0.00  0.00    +0.000 A 
ATOM      7  C   UNL     1      -0.030   8.811  21.486  0.00  0.00    +0.000 A 
ATOM      8  C   UNL     1      -0.068   9.965  20.685  0.00  0.00    +0.000 A 
ATOM      9  C   UNL     1       0.789   9.960  19.572  0.00  0.00    +0.000 A 
ATOM     10  C   UNL     1       1.624   8.871  19.275  0.00  0.00    +0.000 A 
ATOM     11 CL   UNL     1       2.515   8.930  17.795  0.00  0.00    +0.000 Cl
ENDBRANCH   1   8
BRANCH   2  12
ATOM     12  C   UNL     1      -2.215  12.488  22.663  0.00  0.00    +0.000 A 
ATOM     13  N   UNL     1      -3.563  12.141  22.730  0.00  0.00    +0.000 NA
ATOM     14  N   UNL     1      -4.325  13.169  23.060  0.00  0.00    +0.000 NA
ATOM     15  S   UNL     1      -3.453  14.560  23.363  0.00  0.00    +0.000 S 
ATOM     16  C   UNL     1      -1.948  13.805  23.033  0.00  0.00    +0.000 A 
ATOM     17  C   UNL     1      -0.660  14.538  23.152  0.00  0.00    +0.000 C 
ENDBRANCH   2  12
BRANCH   1  18
ATOM     18  C   UNL     1      -1.388  11.995  19.837  0.00  0.00    +0.000 C 
BRANCH  18  19
ATOM     19  C   UNL     1      -2.201  11.380  18.673  0.00  0.00    +0.000 A 
ATOM     20  C   UNL     1      -1.703  10.418  17.779  0.00  0.00    +0.000 A 
ATOM     21  C   UNL     1      -2.424  10.069  16.627  0.00  0.00    +0.000 A 
ATOM     22  C   UNL     1      -3.671  10.629  16.390  0.00  0.00    +0.000 A 
ATOM     23  F   UNL     1      -4.332  10.335  15.263  0.00  0.00    +0.000 F 
ATOM     24  C   UNL     1      -4.241  11.492  17.311  0.00  0.00    +0.000 A 
ATOM     25  C   UNL     1      -3.522  11.840  18.456  0.00  0.00    +0.000 A 
ENDBRANCH  18  19
BRANCH  18  26
ATOM     26  C   UNL     1      -0.150  12.848  19.353  0.00  0.00    +0.000 C 
ATOM     27  O   UNL     1       0.061  13.125  18.171  0.00  0.00    +0.000 OA
ATOM     28  N   UNL     1       0.622  13.428  20.348  0.00  0.00    +0.000 N 
ATOM     29  H   UNL     1       0.631  12.975  21.256  0.00  0.00    +0.000 HD
BRANCH  28  30
ATOM     30  C   UNL     1       1.786  14.231  19.991  0.00  0.00    +0.000 C 
ATOM     31  C   UNL     1       1.473  15.714  20.145  0.00  0.00    +0.000 C 
ATOM     32  C   UNL     1       2.995  13.822  20.828  0.00  0.00    +0.000 C 
ENDBRANCH  28  30
ENDBRANCH  18  26
ENDBRANCH   1  18
TORSDOF 6
ENDMDL
MODEL 8
REMARK VINA RESULT:      -6.5      3.200      4.974
REMARK  Name = 
REMARK  10 active torsions:
REMARK  status: ('A' for Active; 'I' for Inactive)
REMARK    1  A    between atoms: C_1  and  C_2
REMARK    2  A    between atoms: C_5  and  N_6
REMARK    3  A    between atoms: N_6  and  C_15
REMARK    4  A    between atoms: C_7  and  C_9
REMARK    5  A    between atoms: C_13  and  C_14
REMARK    6  A    between atoms: C_15  and  C_16
REMARK    7  A    between atoms: C_15  and  C_22
REMARK    8  A    between atoms: N_18  and  C_19
REMARK    9  A    between atoms: C_19  and  C_20
REMARK   10  A    between atoms: C_19  and  C_21
REMARK                            x       y       z     vdW  Elec       q    Type
REMARK                         _______ _______ _______ _____ _____    ______ ____
ROOT
ATOM      1  N   UNL     1      -0.283  12.681  20.259  0.00  0.00    +0.000 N 
ATOM      2  C   UNL     1       0.294  13.979  20.128  0.00  0.00    +0.000 C 
ATOM      3  O   UNL     1      -0.305  14.910  19.589  0.00  0.00    +0.000 OA
ENDROOT
BRANCH   1   8
ATOM      4  C   UNL     1      -5.028  11.283  17.140  0.00  0.00    +0.000 C 
ATOM      5  C   UNL     1      -3.834  11.669  17.956  0.00  0.00    +0.000 A 
ATOM      6  C   UNL     1      -2.551  11.479  17.434  0.00  0.00    +0.000 A 
ATOM      7  C   UNL     1      -1.409  11.778  18.194  0.00  0.00    +0.000 A 
ATOM      8  C   UNL     1      -1.486  12.344  19.478  0.00  0.00    +0.000 A 
ATOM      9  C   UNL     1      -2.783  12.524  19.986  0.00  0.00    +0.000 A 
ATOM     10  C   UNL     1      -3.928  12.156  19.262  0.00  0.00    +0.000 A 
ATOM     11 CL   UNL     1      -5.454  12.290  20.062  0.00  0.00    +0.000 Cl
ENDBRANCH   1   8
BRANCH   2  12
ATOM     12  C   UNL     1       1.609  14.286  20.720  0.00  0.00    +0.000 A 
ATOM     13  N   UNL     1       1.774  14.630  22.060  0.00  0.00    +0.000 NA
ATOM     14  N   UNL     1       3.039  14.863  22.362  0.00  0.00    +0.000 NA
ATOM     15  S   UNL     1       4.075  14.615  21.076  0.00  0.00    +0.000 S 
ATOM     16  C   UNL     1       2.805  14.179  20.010  0.00  0.00    +0.000 A 
ATOM     17  C   UNL     1       3.064  13.784  18.600  0.00  0.00    +0.000 C 
ENDBRANCH   2  12
BRANCH   1  18
ATOM     18  C   UNL     1       0.071  11.834  21.452  0.00  0.00    +0.000 C 
BRANCH  18  19
ATOM     19  C   UNL     1       0.275  10.317  21.224  0.00  0.00    +0.000 A 
ATOM     20  C   UNL     1      -0.289   9.311  22.026  0.00  0.00    +0.000 A 
ATOM     21  C   UNL     1       0.113   7.974  21.887  0.00  0.00    +0.000 A 
ATOM     22  C   UNL     1       1.031   7.622  20.910  0.00  0.00    +0.000 A 
ATOM     23  F   UNL     1       1.453   6.354  20.816  0.00  0.00    +0.000 F 
ATOM     24  C   UNL     1       1.518   8.571  20.027  0.00  0.00    +0.000 A 
ATOM     25  C   UNL     1       1.120   9.901  20.168  0.00  0.00    +0.000 A 
ENDBRANCH  18  19
BRANCH  18  26
ATOM     26  C   UNL     1      -0.895  12.161  22.658  0.00  0.00    +0.000 C 
ATOM     27  O   UNL     1      -1.346  11.301  23.417  0.00  0.00    +0.000 OA
ATOM     28  N   UNL     1      -1.091  13.504  22.940  0.00  0.00    +0.000 N 
ATOM     29  H   UNL     1      -0.978  14.163  22.176  0.00  0.00    +0.000 HD
BRANCH  28  30
ATOM     30  C   UNL     1      -1.970  13.897  24.036  0.00  0.00    +0.000 C 
ATOM     31  C   UNL     1      -1.395  15.102  24.769  0.00  0.00    +0.000 C 
ATOM     32  C   UNL     1      -3.379  14.175  23.519  0.00  0.00    +0.000 C 
ENDBRANCH  28  30
ENDBRANCH  18  26
ENDBRANCH   1  18
TORSDOF 6
ENDMDL
MODEL 9
REMARK VINA RESULT:      -6.5      3.829      6.733
REMARK  Name = 
REMARK  10 active torsions:
REMARK  status: ('A' for Active; 'I' for Inactive)
REMARK    1  A    between atoms: C_1  and  C_2
REMARK    2  A    between atoms: C_5  and  N_6
REMARK    3  A    between atoms: N_6  and  C_15
REMARK    4  A    between atoms: C_7  and  C_9
REMARK    5  A    between atoms: C_13  and  C_14
REMARK    6  A    between atoms: C_15  and  C_16
REMARK    7  A    between atoms: C_15  and  C_22
REMARK    8  A    between atoms: N_18  and  C_19
REMARK    9  A    between atoms: C_19  and  C_20
REMARK   10  A    between atoms: C_19  and  C_21
REMARK                            x       y       z     vdW  Elec       q    Type
REMARK                         _______ _______ _______ _____ _____    ______ ____
ROOT
ATOM      1  N   UNL     1       0.131  12.275  19.862  0.00  0.00    +0.000 N 
ATOM      2  C   UNL     1       0.996  13.312  19.403  0.00  0.00    +0.000 C 
ATOM      3  O   UNL     1       2.068  13.072  18.847  0.00  0.00    +0.000 OA
ENDROOT
BRANCH   1   8
ATOM      4  C   UNL     1       2.109   6.787  20.273  0.00  0.00    +0.000 C 
ATOM      5  C   UNL     1       1.630   8.199  20.140  0.00  0.00    +0.000 A 
ATOM      6  C   UNL     1       1.058   8.840  21.244  0.00  0.00    +0.000 A 
ATOM      7  C   UNL     1       0.547  10.143  21.139  0.00  0.00    +0.000 A 
ATOM      8  C   UNL     1       0.644  10.897  19.957  0.00  0.00    +0.000 A 
ATOM      9  C   UNL     1       1.218  10.235  18.859  0.00  0.00    +0.000 A 
ATOM     10  C   UNL     1       1.660   8.905  18.936  0.00  0.00    +0.000 A 
ATOM     11 CL   UNL     1       2.207   8.162  17.473  0.00  0.00    +0.000 Cl
ENDBRANCH   1   8
BRANCH   2  12
ATOM     12  C   UNL     1       0.595  14.728  19.497  0.00  0.00    +0.000 A 
ATOM     13  N   UNL     1      -0.050  15.402  18.462  0.00  0.00    +0.000 NA
ATOM     14  N   UNL     1      -0.308  16.660  18.771  0.00  0.00    +0.000 NA
ATOM     15  S   UNL     1       0.151  17.058  20.326  0.00  0.00    +0.000 S 
ATOM     16  C   UNL     1       0.756  15.487  20.655  0.00  0.00    +0.000 A 
ATOM     17  C   UNL     1       1.329  15.129  21.979  0.00  0.00    +0.000 C 
ENDBRANCH   2  12
BRANCH   1  18
ATOM     18  C   UNL     1      -1.358  12.498  19.852  0.00  0.00    +0.000 C 
BRANCH  18  19
ATOM     19  C   UNL     1      -2.074  12.644  21.217  0.00  0.00    +0.000 A 
ATOM     20  C   UNL     1      -1.424  12.600  22.462  0.00  0.00    +0.000 A 
ATOM     21  C   UNL     1      -2.163  12.524  23.653  0.00  0.00    +0.000 A 
ATOM     22  C   UNL     1      -3.548  12.551  23.615  0.00  0.00    +0.000 A 
ATOM     23  F   UNL     1      -4.250  12.423  24.749  0.00  0.00    +0.000 F 
ATOM     24  C   UNL     1      -4.217  12.710  22.413  0.00  0.00    +0.000 A 
ATOM     25  C   UNL     1      -3.482  12.784  21.229  0.00  0.00    +0.000 A 
ENDBRANCH  18  19
BRANCH  18  26
ATOM     26  C   UNL     1      -2.057  11.463  18.886  0.00  0.00    +0.000 C 
ATOM     27  O   UNL     1      -2.061  10.247  19.085  0.00  0.00    +0.000 OA
ATOM     28  N   UNL     1      -2.829  12.000  17.867  0.00  0.00    +0.000 N 
ATOM     29  H   UNL     1      -2.589  12.930  17.539  0.00  0.00    +0.000 HD
BRANCH  28  30
ATOM     30  C   UNL     1      -3.509  11.116  16.927  0.00  0.00    +0.000 C 
ATOM     31  C   UNL     1      -4.935  11.596  16.686  0.00  0.00    +0.000 C 
ATOM     32  C   UNL     1      -2.724  11.016  15.622  0.00  0.00    +0.000 C 
ENDBRANCH  28  30
ENDBRANCH  18  26
ENDBRANCH   1  18
TORSDOF 6
ENDMDL
