MODEL 1
REMARK VINA RESULT:      -6.8      0.000      0.000
REMARK  Name = 
REMARK  11 active torsions:
REMARK  status: ('A' for Active; 'I' for Inactive)
REMARK    1  A    between atoms: C_1  and  N_2
REMARK    2  A    between atoms: N_2  and  C_3
REMARK    3  A    between atoms: N_2  and  C_4
REMARK    4  A    between atoms: C_4  and  C_5
REMARK    5  A    between atoms: C_4  and  C_6
REMARK    6  A    between atoms: C_4  and  C_7
REMARK    7  A    between atoms: C_7  and  N_8
REMARK    8  A    between atoms: N_8  and  C_9
REMARK    9  A    between atoms: C_9  and  C_10
REMARK   10  A    between atoms: N_12  and  C_13
REMARK   11  A    between atoms: C_15  and  C_16
REMARK                            x       y       z     vdW  Elec       q    Type
REMARK                         _______ _______ _______ _____ _____    ______ ____
ROOT
ATOM      1  C   UNL     1       5.654   4.140  15.334  0.00  0.00    +0.000 A 
ATOM      2  C   UNL     1       5.701   3.900  13.974  0.00  0.00    +0.000 A 
ATOM      3  N   UNL     1       6.815   4.526  13.517  0.00  0.00    +0.000 N 
ATOM      4  C   UNL     1       7.255   4.598  12.145  0.00  0.00    +0.000 C 
ATOM      5  N   UNL     1       7.524   5.139  14.476  0.00  0.00    +0.000 NA
ATOM      6  C   UNL     1       6.840   4.904  15.613  0.00  0.00    +0.000 A 
ENDROOT
BRANCH   6   7
ATOM      7  C   UNL     1       7.307   5.457  16.888  0.00  0.00    +0.000 A 
ATOM      8  C   UNL     1       7.430   6.834  17.086  0.00  0.00    +0.000 A 
ATOM      9  C   UNL     1       7.875   7.330  18.313  0.00  0.00    +0.000 A 
ATOM     10  C   UNL     1       8.192   6.424  19.313  0.00  0.00    +0.000 A 
ATOM     11  N   UNL     1       8.098   5.088  19.167  0.00  0.00    +0.000 NA
ATOM     12  C   UNL     1       7.660   4.642  17.959  0.00  0.00    +0.000 A 
ENDBRANCH   6   7
BRANCH   1  13
ATOM     13  C   UNL     1       4.529   3.759  16.238  0.00  0.00    +0.000 C 
BRANCH  13  14
ATOM     14  N   UNL     1       4.021   4.938  16.941  0.00  0.00    +0.000 NA
ATOM     15  H   UNL     1       4.763   5.308  17.530  0.00  0.00    +0.000 HD
BRANCH  14  16
ATOM     16  C   UNL     1       2.839   4.630  17.771  0.00  0.00    +0.000 C 
BRANCH  16  17
ATOM     17  C   UNL     1       3.079   4.617  19.330  0.00  0.00    +0.000 C 
ATOM     18  C   UNL     1       2.007   5.499  20.015  0.00  0.00    +0.000 C 
ATOM     19  C   UNL     1       4.470   5.251  19.586  0.00  0.00    +0.000 C 
BRANCH  17  21
ATOM     20  C   UNL     1       4.388   2.538  19.794  0.00  0.00    +0.000 C 
ATOM     21  N   UNL     1       3.078   3.197  19.829  0.00  0.00    +0.000 NA
ATOM     22  C   UNL     1       2.507   3.019  21.171  0.00  0.00    +0.000 C 
ENDBRANCH  17  21
ENDBRANCH  16  17
ENDBRANCH  14  16
ENDBRANCH  13  14
ENDBRANCH   1  13
TORSDOF 6
ENDMDL
MODEL 2
REMARK VINA RESULT:      -6.8      0.838      1.671
REMARK  Name = 
REMARK  11 active torsions:
REMARK  status: ('A' for Active; 'I' for Inactive)
REMARK    1  A    between atoms: C_1  and  N_2
REMARK    2  A    between atoms: N_2  and  C_3
REMARK    3  A    between atoms: N_2  and  C_4
REMARK    4  A    between atoms: C_4  and  C_5
REMARK    5  A    between atoms: C_4  and  C_6
REMARK    6  A    between atoms: C_4  and  C_7
REMARK    7  A    between atoms: C_7  and  N_8
REMARK    8  A    between atoms: N_8  and  C_9
REMARK    9  A    between atoms: C_9  and  C_10
REMARK   10  A    between atoms: N_12  and  C_13
REMARK   11  A    between atoms: C_15  and  C_16
REMARK                            x       y       z     vdW  Elec       q    Type
REMARK                         _______ _______ _______ _____ _____    ______ ____
ROOT
ATOM      1  C   UNL     1       5.499   4.323  15.261  0.00  0.00    +0.000 A 
ATOM      2  C   UNL     1       5.561   4.003  13.918  0.00  0.00    +0.000 A 
ATOM      3  N   UNL     1       6.763   4.454  13.476  0.00  0.00    +0.000 N 
ATOM      4  C   UNL     1       7.255   4.394  12.121  0.00  0.00    +0.000 C 
ATOM      5  N   UNL     1       7.511   5.024  14.431  0.00  0.00    +0.000 NA
ATOM      6  C   UNL     1       6.764   4.943  15.549  0.00  0.00    +0.000 A 
ENDROOT
BRANCH   6   7
ATOM      7  C   UNL     1       7.254   5.501  16.813  0.00  0.00    +0.000 A 
ATOM      8  C   UNL     1       7.382   6.880  17.002  0.00  0.00    +0.000 A 
ATOM      9  C   UNL     1       7.849   7.380  18.218  0.00  0.00    +0.000 A 
ATOM     10  C   UNL     1       8.184   6.480  19.216  0.00  0.00    +0.000 A 
ATOM     11  N   UNL     1       8.087   5.143  19.079  0.00  0.00    +0.000 NA
ATOM     12  C   UNL     1       7.626   4.691  17.881  0.00  0.00    +0.000 A 
ENDBRANCH   6   7
BRANCH   1  13
ATOM     13  C   UNL     1       4.303   4.140  16.135  0.00  0.00    +0.000 C 
BRANCH  13  14
ATOM     14  N   UNL     1       4.622   3.248  17.251  0.00  0.00    +0.000 NA
ATOM     15  H   UNL     1       4.166   2.353  17.090  0.00  0.00    +0.000 HD
BRANCH  14  16
ATOM     16  C   UNL     1       4.186   3.797  18.551  0.00  0.00    +0.000 C 
BRANCH  16  17
ATOM     17  C   UNL     1       3.398   2.802  19.487  0.00  0.00    +0.000 C 
ATOM     18  C   UNL     1       4.404   2.060  20.398  0.00  0.00    +0.000 C 
ATOM     19  C   UNL     1       2.705   1.761  18.572  0.00  0.00    +0.000 C 
BRANCH  17  21
ATOM     20  C   UNL     1       2.150   3.087  21.635  0.00  0.00    +0.000 C 
ATOM     21  N   UNL     1       2.353   3.559  20.261  0.00  0.00    +0.000 NA
ATOM     22  C   UNL     1       2.551   5.015  20.298  0.00  0.00    +0.000 C 
ENDBRANCH  17  21
ENDBRANCH  16  17
ENDBRANCH  14  16
ENDBRANCH  13  14
ENDBRANCH   1  13
TORSDOF 6
ENDMDL
MODEL 3
REMARK VINA RESULT:      -6.7      0.942      1.266
REMARK  Name = 
REMARK  11 active torsions:
REMARK  status: ('A' for Active; 'I' for Inactive)
REMARK    1  A    between atoms: C_1  and  N_2
REMARK    2  A    between atoms: N_2  and  C_3
REMARK    3  A    between atoms: N_2  and  C_4
REMARK    4  A    between atoms: C_4  and  C_5
REMARK    5  A    between atoms: C_4  and  C_6
REMARK    6  A    between atoms: C_4  and  C_7
REMARK    7  A    between atoms: C_7  and  N_8
REMARK    8  A    between atoms: N_8  and  C_9
REMARK    9  A    between atoms: C_9  and  C_10
REMARK   10  A    between atoms: N_12  and  C_13
REMARK   11  A    between atoms: C_15  and  C_16
REMARK                            x       y       z     vdW  Elec       q    Type
REMARK                         _______ _______ _______ _____ _____    ______ ____
ROOT
ATOM      1  C   UNL     1       5.501   4.369  15.346  0.00  0.00    +0.000 A 
ATOM      2  C   UNL     1       5.559   4.069  13.999  0.00  0.00    +0.000 A 
ATOM      3  N   UNL     1       6.767   4.511  13.564  0.00  0.00    +0.000 N 
ATOM      4  C   UNL     1       7.259   4.463  12.209  0.00  0.00    +0.000 C 
ATOM      5  N   UNL     1       7.522   5.056  14.528  0.00  0.00    +0.000 NA
ATOM      6  C   UNL     1       6.774   4.968  15.645  0.00  0.00    +0.000 A 
ENDROOT
BRANCH   6   7
ATOM      7  C   UNL     1       7.271   5.501  16.916  0.00  0.00    +0.000 A 
ATOM      8  C   UNL     1       7.433   6.874  17.120  0.00  0.00    +0.000 A 
ATOM      9  C   UNL     1       7.906   7.350  18.344  0.00  0.00    +0.000 A 
ATOM     10  C   UNL     1       8.212   6.431  19.334  0.00  0.00    +0.000 A 
ATOM     11  N   UNL     1       8.081   5.099  19.183  0.00  0.00    +0.000 NA
ATOM     12  C   UNL     1       7.616   4.671  17.978  0.00  0.00    +0.000 A 
ENDBRANCH   6   7
BRANCH   1  13
ATOM     13  C   UNL     1       4.303   4.189  16.218  0.00  0.00    +0.000 C 
BRANCH  13  14
ATOM     14  N   UNL     1       4.538   3.122  17.191  0.00  0.00    +0.000 NA
ATOM     15  H   UNL     1       3.969   2.319  16.934  0.00  0.00    +0.000 HD
BRANCH  14  16
ATOM     16  C   UNL     1       4.210   3.537  18.570  0.00  0.00    +0.000 C 
BRANCH  16  17
ATOM     17  C   UNL     1       2.753   3.192  19.064  0.00  0.00    +0.000 C 
ATOM     18  C   UNL     1       2.060   2.295  18.010  0.00  0.00    +0.000 C 
ATOM     19  C   UNL     1       1.972   4.527  19.160  0.00  0.00    +0.000 C 
BRANCH  17  21
ATOM     20  C   UNL     1       4.177   2.244  20.888  0.00  0.00    +0.000 C 
ATOM     21  N   UNL     1       2.819   2.554  20.425  0.00  0.00    +0.000 NA
ATOM     22  C   UNL     1       2.129   3.301  21.487  0.00  0.00    +0.000 C 
ENDBRANCH  17  21
ENDBRANCH  16  17
ENDBRANCH  14  16
ENDBRANCH  13  14
ENDBRANCH   1  13
TORSDOF 6
ENDMDL
MODEL 4
REMARK VINA RESULT:      -6.4      1.499      4.112
REMARK  Name = 
REMARK  11 active torsions:
REMARK  status: ('A' for Active; 'I' for Inactive)
REMARK    1  A    between atoms: C_1  and  N_2
REMARK    2  A    between atoms: N_2  and  C_3
REMARK    3  A    between atoms: N_2  and  C_4
REMARK    4  A    between atoms: C_4  and  C_5
REMARK    5  A    between atoms: C_4  and  C_6
REMARK    6  A    between atoms: C_4  and  C_7
REMARK    7  A    between atoms: C_7  and  N_8
REMARK    8  A    between atoms: N_8  and  C_9
REMARK    9  A    between atoms: C_9  and  C_10
REMARK   10  A    between atoms: N_12  and  C_13
REMARK   11  A    between atoms: C_15  and  C_16
REMARK                            x       y       z     vdW  Elec       q    Type
REMARK                         _______ _______ _______ _____ _____    ______ ____
ROOT
ATOM      1  C   UNL     1       5.549   5.043  16.658  0.00  0.00    +0.000 A 
ATOM      2  C   UNL     1       5.951   5.779  17.756  0.00  0.00    +0.000 A 
ATOM      3  N   UNL     1       7.114   6.382  17.403  0.00  0.00    +0.000 N 
ATOM      4  C   UNL     1       7.938   7.215  18.246  0.00  0.00    +0.000 C 
ATOM      5  N   UNL     1       7.498   6.123  16.145  0.00  0.00    +0.000 NA
ATOM      6  C   UNL     1       6.542   5.311  15.653  0.00  0.00    +0.000 A 
ENDROOT
BRANCH   6   7
ATOM      7  C   UNL     1       6.643   4.788  14.288  0.00  0.00    +0.000 A 
ATOM      8  C   UNL     1       5.761   3.815  13.810  0.00  0.00    +0.000 A 
ATOM      9  C   UNL     1       5.881   3.339  12.504  0.00  0.00    +0.000 A 
ATOM     10  C   UNL     1       6.893   3.851  11.707  0.00  0.00    +0.000 A 
ATOM     11  N   UNL     1       7.773   4.782  12.124  0.00  0.00    +0.000 NA
ATOM     12  C   UNL     1       7.625   5.224  13.402  0.00  0.00    +0.000 A 
ENDBRANCH   6   7
BRANCH   1  13
ATOM     13  C   UNL     1       4.389   4.105  16.627  0.00  0.00    +0.000 C 
BRANCH  13  14
ATOM     14  N   UNL     1       4.601   3.004  17.567  0.00  0.00    +0.000 NA
ATOM     15  H   UNL     1       5.045   2.235  17.071  0.00  0.00    +0.000 HD
BRANCH  14  16
ATOM     16  C   UNL     1       3.340   2.535  18.176  0.00  0.00    +0.000 C 
BRANCH  16  17
ATOM     17  C   UNL     1       3.138   2.893  19.699  0.00  0.00    +0.000 C 
ATOM     18  C   UNL     1       3.235   4.427  19.876  0.00  0.00    +0.000 C 
ATOM     19  C   UNL     1       4.301   2.235  20.484  0.00  0.00    +0.000 C 
BRANCH  17  21
ATOM     20  C   UNL     1       1.455   2.730  21.541  0.00  0.00    +0.000 C 
ATOM     21  N   UNL     1       1.829   2.328  20.181  0.00  0.00    +0.000 NA
ATOM     22  C   UNL     1       0.686   2.584  19.292  0.00  0.00    +0.000 C 
ENDBRANCH  17  21
ENDBRANCH  16  17
ENDBRANCH  14  16
ENDBRANCH  13  14
ENDBRANCH   1  13
TORSDOF 6
ENDMDL
MODEL 5
REMARK VINA RESULT:      -6.4      1.510      4.197
REMARK  Name = 
REMARK  11 active torsions:
REMARK  status: ('A' for Active; 'I' for Inactive)
REMARK    1  A    between atoms: C_1  and  N_2
REMARK    2  A    between atoms: N_2  and  C_3
REMARK    3  A    between atoms: N_2  and  C_4
REMARK    4  A    between atoms: C_4  and  C_5
REMARK    5  A    between atoms: C_4  and  C_6
REMARK    6  A    between atoms: C_4  and  C_7
REMARK    7  A    between atoms: C_7  and  N_8
REMARK    8  A    between atoms: N_8  and  C_9
REMARK    9  A    between atoms: C_9  and  C_10
REMARK   10  A    between atoms: N_12  and  C_13
REMARK   11  A    between atoms: C_15  and  C_16
REMARK                            x       y       z     vdW  Elec       q    Type
REMARK                         _______ _______ _______ _____ _____    ______ ____
ROOT
ATOM      1  C   UNL     1       5.598   5.056  16.819  0.00  0.00    +0.000 A 
ATOM      2  C   UNL     1       6.031   5.804  17.898  0.00  0.00    +0.000 A 
ATOM      3  N   UNL     1       7.175   6.416  17.500  0.00  0.00    +0.000 N 
ATOM      4  C   UNL     1       8.018   7.264  18.307  0.00  0.00    +0.000 C 
ATOM      5  N   UNL     1       7.518   6.150  16.231  0.00  0.00    +0.000 NA
ATOM      6  C   UNL     1       6.553   5.325  15.779  0.00  0.00    +0.000 A 
ENDROOT
BRANCH   6   7
ATOM      7  C   UNL     1       6.612   4.792  14.415  0.00  0.00    +0.000 A 
ATOM      8  C   UNL     1       5.672   3.868  13.950  0.00  0.00    +0.000 A 
ATOM      9  C   UNL     1       5.754   3.380  12.645  0.00  0.00    +0.000 A 
ATOM     10  C   UNL     1       6.786   3.831  11.837  0.00  0.00    +0.000 A 
ATOM     11  N   UNL     1       7.720   4.713  12.242  0.00  0.00    +0.000 NA
ATOM     12  C   UNL     1       7.608   5.168  13.519  0.00  0.00    +0.000 A 
ENDBRANCH   6   7
BRANCH   1  13
ATOM     13  C   UNL     1       4.447   4.106  16.836  0.00  0.00    +0.000 C 
BRANCH  13  14
ATOM     14  N   UNL     1       3.313   4.694  17.552  0.00  0.00    +0.000 NA
ATOM     15  H   UNL     1       3.609   4.917  18.499  0.00  0.00    +0.000 HD
BRANCH  14  16
ATOM     16  C   UNL     1       2.147   3.789  17.598  0.00  0.00    +0.000 C 
BRANCH  16  17
ATOM     17  C   UNL     1       2.084   2.813  18.835  0.00  0.00    +0.000 C 
ATOM     18  C   UNL     1       3.086   1.654  18.617  0.00  0.00    +0.000 C 
ATOM     19  C   UNL     1       0.653   2.221  18.880  0.00  0.00    +0.000 C 
BRANCH  17  21
ATOM     20  C   UNL     1       1.260   4.490  20.496  0.00  0.00    +0.000 C 
ATOM     21  N   UNL     1       2.344   3.584  20.100  0.00  0.00    +0.000 NA
ATOM     22  C   UNL     1       2.701   2.756  21.261  0.00  0.00    +0.000 C 
ENDBRANCH  17  21
ENDBRANCH  16  17
ENDBRANCH  14  16
ENDBRANCH  13  14
ENDBRANCH   1  13
TORSDOF 6
ENDMDL
MODEL 6
REMARK VINA RESULT:      -6.4      1.535      4.167
REMARK  Name = 
REMARK  11 active torsions:
REMARK  status: ('A' for Active; 'I' for Inactive)
REMARK    1  A    between atoms: C_1  and  N_2
REMARK    2  A    between atoms: N_2  and  C_3
REMARK    3  A    between atoms: N_2  and  C_4
REMARK    4  A    between atoms: C_4  and  C_5
REMARK    5  A    between atoms: C_4  and  C_6
REMARK    6  A    between atoms: C_4  and  C_7
REMARK    7  A    between atoms: C_7  and  N_8
REMARK    8  A    between atoms: N_8  and  C_9
REMARK    9  A    between atoms: C_9  and  C_10
REMARK   10  A    between atoms: N_12  and  C_13
REMARK   11  A    between atoms: C_15  and  C_16
REMARK                            x       y       z     vdW  Elec       q    Type
REMARK                         _______ _______ _______ _____ _____    ______ ____
ROOT
ATOM      1  C   UNL     1       6.229   4.914  17.308  0.00  0.00    +0.000 A 
ATOM      2  C   UNL     1       6.649   5.811  18.272  0.00  0.00    +0.000 A 
ATOM      3  N   UNL     1       7.417   6.726  17.628  0.00  0.00    +0.000 N 
ATOM      4  C   UNL     1       8.121   7.831  18.233  0.00  0.00    +0.000 C 
ATOM      5  N   UNL     1       7.515   6.518  16.308  0.00  0.00    +0.000 NA
ATOM      6  C   UNL     1       6.777   5.414  16.077  0.00  0.00    +0.000 A 
ENDROOT
BRANCH   6   7
ATOM      7  C   UNL     1       6.674   4.859  14.725  0.00  0.00    +0.000 A 
ATOM      8  C   UNL     1       5.612   4.030  14.353  0.00  0.00    +0.000 A 
ATOM      9  C   UNL     1       5.541   3.519  13.056  0.00  0.00    +0.000 A 
ATOM     10  C   UNL     1       6.546   3.851  12.162  0.00  0.00    +0.000 A 
ATOM     11  N   UNL     1       7.593   4.639  12.474  0.00  0.00    +0.000 NA
ATOM     12  C   UNL     1       7.629   5.120  13.746  0.00  0.00    +0.000 A 
ENDBRANCH   6   7
BRANCH   1  13
ATOM     13  C   UNL     1       5.469   3.657  17.574  0.00  0.00    +0.000 C 
BRANCH  13  14
ATOM     14  N   UNL     1       5.131   3.558  18.995  0.00  0.00    +0.000 NA
ATOM     15  H   UNL     1       5.928   3.164  19.490  0.00  0.00    +0.000 HD
BRANCH  14  16
ATOM     16  C   UNL     1       3.938   2.721  19.232  0.00  0.00    +0.000 C 
BRANCH  16  17
ATOM     17  C   UNL     1       2.551   3.468  19.166  0.00  0.00    +0.000 C 
ATOM     18  C   UNL     1       1.546   2.755  20.102  0.00  0.00    +0.000 C 
ATOM     19  C   UNL     1       2.034   3.347  17.709  0.00  0.00    +0.000 C 
BRANCH  17  21
ATOM     20  C   UNL     1       2.491   5.847  18.397  0.00  0.00    +0.000 C 
ATOM     21  N   UNL     1       2.743   4.921  19.507  0.00  0.00    +0.000 NA
ATOM     22  C   UNL     1       1.980   5.382  20.676  0.00  0.00    +0.000 C 
ENDBRANCH  17  21
ENDBRANCH  16  17
ENDBRANCH  14  16
ENDBRANCH  13  14
ENDBRANCH   1  13
TORSDOF 6
ENDMDL
MODEL 7
REMARK VINA RESULT:      -6.3      0.745      1.108
REMARK  Name = 
REMARK  11 active torsions:
REMARK  status: ('A' for Active; 'I' for Inactive)
REMARK    1  A    between atoms: C_1  and  N_2
REMARK    2  A    between atoms: N_2  and  C_3
REMARK    3  A    between atoms: N_2  and  C_4
REMARK    4  A    between atoms: C_4  and  C_5
REMARK    5  A    between atoms: C_4  and  C_6
REMARK    6  A    between atoms: C_4  and  C_7
REMARK    7  A    between atoms: C_7  and  N_8
REMARK    8  A    between atoms: N_8  and  C_9
REMARK    9  A    between atoms: C_9  and  C_10
REMARK   10  A    between atoms: N_12  and  C_13
REMARK   11  A    between atoms: C_15  and  C_16
REMARK                            x       y       z     vdW  Elec       q    Type
REMARK                         _______ _______ _______ _____ _____    ______ ____
ROOT
ATOM      1  C   UNL     1       5.610   4.168  15.435  0.00  0.00    +0.000 A 
ATOM      2  C   UNL     1       5.627   3.808  14.101  0.00  0.00    +0.000 A 
ATOM      3  N   UNL     1       6.718   4.407  13.561  0.00  0.00    +0.000 N 
ATOM      4  C   UNL     1       7.121   4.363  12.176  0.00  0.00    +0.000 C 
ATOM      5  N   UNL     1       7.439   5.114  14.442  0.00  0.00    +0.000 NA
ATOM      6  C   UNL     1       6.789   4.972  15.613  0.00  0.00    +0.000 A 
ENDROOT
BRANCH   6   7
ATOM      7  C   UNL     1       7.278   5.644  16.821  0.00  0.00    +0.000 A 
ATOM      8  C   UNL     1       7.616   4.926  17.971  0.00  0.00    +0.000 A 
ATOM      9  C   UNL     1       8.081   5.594  19.104  0.00  0.00    +0.000 A 
ATOM     10  C   UNL     1       8.191   6.975  19.055  0.00  0.00    +0.000 A 
ATOM     11  N   UNL     1       7.870   7.712  17.974  0.00  0.00    +0.000 NA
ATOM     12  C   UNL     1       7.421   7.026  16.888  0.00  0.00    +0.000 A 
ENDBRANCH   6   7
BRANCH   1  13
ATOM     13  C   UNL     1       4.515   3.852  16.399  0.00  0.00    +0.000 C 
BRANCH  13  14
ATOM     14  N   UNL     1       3.981   5.084  16.983  0.00  0.00    +0.000 NA
ATOM     15  H   UNL     1       4.697   5.498  17.576  0.00  0.00    +0.000 HD
BRANCH  14  16
ATOM     16  C   UNL     1       2.760   4.845  17.778  0.00  0.00    +0.000 C 
BRANCH  16  17
ATOM     17  C   UNL     1       2.986   4.524  19.305  0.00  0.00    +0.000 C 
ATOM     18  C   UNL     1       1.909   5.256  20.141  0.00  0.00    +0.000 C 
ATOM     19  C   UNL     1       4.375   5.091  19.693  0.00  0.00    +0.000 C 
BRANCH  17  21
ATOM     20  C   UNL     1       4.234   2.487  20.041  0.00  0.00    +0.000 C 
ATOM     21  N   UNL     1       2.979   3.034  19.514  0.00  0.00    +0.000 NA
ATOM     22  C   UNL     1       1.873   2.535  20.344  0.00  0.00    +0.000 C 
ENDBRANCH  17  21
ENDBRANCH  16  17
ENDBRANCH  14  16
ENDBRANCH  13  14
ENDBRANCH   1  13
TORSDOF 6
ENDMDL
MODEL 8
REMARK VINA RESULT:      -6.3      1.858      4.252
REMARK  Name = 
REMARK  11 active torsions:
REMARK  status: ('A' for Active; 'I' for Inactive)
REMARK    1  A    between atoms: C_1  and  N_2
REMARK    2  A    between atoms: N_2  and  C_3
REMARK    3  A    between atoms: N_2  and  C_4
REMARK    4  A    between atoms: C_4  and  C_5
REMARK    5  A    between atoms: C_4  and  C_6
REMARK    6  A    between atoms: C_4  and  C_7
REMARK    7  A    between atoms: C_7  and  N_8
REMARK    8  A    between atoms: N_8  and  C_9
REMARK    9  A    between atoms: C_9  and  C_10
REMARK   10  A    between atoms: N_12  and  C_13
REMARK   11  A    between atoms: C_15  and  C_16
REMARK                            x       y       z     vdW  Elec       q    Type
REMARK                         _______ _______ _______ _____ _____    ______ ____
ROOT
ATOM      1  C   UNL     1       4.711   5.616  18.413  0.00  0.00    +0.000 A 
ATOM      2  C   UNL     1       3.785   6.461  18.994  0.00  0.00    +0.000 A 
ATOM      3  N   UNL     1       3.361   7.292  18.009  0.00  0.00    +0.000 N 
ATOM      4  C   UNL     1       2.427   8.383  18.151  0.00  0.00    +0.000 C 
ATOM      5  N   UNL     1       3.916   7.043  16.814  0.00  0.00    +0.000 NA
ATOM      6  C   UNL     1       4.743   6.001  17.028  0.00  0.00    +0.000 A 
ENDROOT
BRANCH   6   7
ATOM      7  C   UNL     1       5.558   5.463  15.936  0.00  0.00    +0.000 A 
ATOM      8  C   UNL     1       5.032   4.558  15.009  0.00  0.00    +0.000 A 
ATOM      9  C   UNL     1       5.833   4.066  13.978  0.00  0.00    +0.000 A 
ATOM     10  C   UNL     1       7.150   4.491  13.906  0.00  0.00    +0.000 A 
ATOM     11  N   UNL     1       7.704   5.354  14.779  0.00  0.00    +0.000 NA
ATOM     12  C   UNL     1       6.894   5.815  15.770  0.00  0.00    +0.000 A 
ENDBRANCH   6   7
BRANCH   1  13
ATOM     13  C   UNL     1       5.546   4.618  19.146  0.00  0.00    +0.000 C 
BRANCH  13  14
ATOM     14  N   UNL     1       4.706   3.540  19.669  0.00  0.00    +0.000 NA
ATOM     15  H   UNL     1       5.311   2.797  20.013  0.00  0.00    +0.000 HD
BRANCH  14  16
ATOM     16  C   UNL     1       3.789   2.996  18.648  0.00  0.00    +0.000 C 
BRANCH  16  17
ATOM     17  C   UNL     1       2.257   3.007  19.025  0.00  0.00    +0.000 C 
ATOM     18  C   UNL     1       1.687   1.577  18.868  0.00  0.00    +0.000 C 
ATOM     19  C   UNL     1       1.541   3.934  18.010  0.00  0.00    +0.000 C 
BRANCH  17  21
ATOM     20  C   UNL     1       1.171   4.705  20.505  0.00  0.00    +0.000 C 
ATOM     21  N   UNL     1       2.084   3.560  20.414  0.00  0.00    +0.000 NA
ATOM     22  C   UNL     1       1.683   2.569  21.423  0.00  0.00    +0.000 C 
ENDBRANCH  17  21
ENDBRANCH  16  17
ENDBRANCH  14  16
ENDBRANCH  13  14
ENDBRANCH   1  13
TORSDOF 6
ENDMDL
MODEL 9
REMARK VINA RESULT:      -6.3      1.485      4.177
REMARK  Name = 
REMARK  11 active torsions:
REMARK  status: ('A' for Active; 'I' for Inactive)
REMARK    1  A    between atoms: C_1  and  N_2
REMARK    2  A    between atoms: N_2  and  C_3
REMARK    3  A    between atoms: N_2  and  C_4
REMARK    4  A    between atoms: C_4  and  C_5
REMARK    5  A    between atoms: C_4  and  C_6
REMARK    6  A    between atoms: C_4  and  C_7
REMARK    7  A    between atoms: C_7  and  N_8
REMARK    8  A    between atoms: N_8  and  C_9
REMARK    9  A    between atoms: C_9  and  C_10
REMARK   10  A    between atoms: N_12  and  C_13
REMARK   11  A    between atoms: C_15  and  C_16
REMARK                            x       y       z     vdW  Elec       q    Type
REMARK                         _______ _______ _______ _____ _____    ______ ____
ROOT
ATOM      1  C   UNL     1       5.557   4.300  17.014  0.00  0.00    +0.000 A 
ATOM      2  C   UNL     1       5.929   4.659  18.295  0.00  0.00    +0.000 A 
ATOM      3  N   UNL     1       7.156   5.228  18.188  0.00  0.00    +0.000 N 
ATOM      4  C   UNL     1       7.973   5.714  19.274  0.00  0.00    +0.000 C 
ATOM      5  N   UNL     1       7.613   5.297  16.930  0.00  0.00    +0.000 NA
ATOM      6  C   UNL     1       6.640   4.745  16.179  0.00  0.00    +0.000 A 
ENDROOT
BRANCH   6   7
ATOM      7  C   UNL     1       6.804   4.617  14.728  0.00  0.00    +0.000 A 
ATOM      8  C   UNL     1       6.111   3.649  13.997  0.00  0.00    +0.000 A 
ATOM      9  C   UNL     1       6.287   3.553  12.615  0.00  0.00    +0.000 A 
ATOM     10  C   UNL     1       7.163   4.434  12.001  0.00  0.00    +0.000 A 
ATOM     11  N   UNL     1       7.859   5.378  12.663  0.00  0.00    +0.000 NA
ATOM     12  C   UNL     1       7.662   5.442  14.008  0.00  0.00    +0.000 A 
ENDBRANCH   6   7
BRANCH   1  13
ATOM     13  C   UNL     1       4.337   3.518  16.658  0.00  0.00    +0.000 C 
BRANCH  13  14
ATOM     14  N   UNL     1       4.035   2.543  17.707  0.00  0.00    +0.000 NA
ATOM     15  H   UNL     1       4.282   1.616  17.368  0.00  0.00    +0.000 HD
BRANCH  14  16
ATOM     16  C   UNL     1       2.611   2.561  18.098  0.00  0.00    +0.000 C 
BRANCH  16  17
ATOM     17  C   UNL     1       2.287   3.252  19.479  0.00  0.00    +0.000 C 
ATOM     18  C   UNL     1       3.208   2.658  20.571  0.00  0.00    +0.000 C 
ATOM     19  C   UNL     1       0.819   2.902  19.833  0.00  0.00    +0.000 C 
BRANCH  17  21
ATOM     20  C   UNL     1       1.802   5.305  18.137  0.00  0.00    +0.000 C 
ATOM     21  N   UNL     1       2.424   4.744  19.341  0.00  0.00    +0.000 NA
ATOM     22  C   UNL     1       1.958   5.513  20.504  0.00  0.00    +0.000 C 
ENDBRANCH  17  21
ENDBRANCH  16  17
ENDBRANCH  14  16
ENDBRANCH  13  14
ENDBRANCH   1  13
TORSDOF 6
ENDMDL
