MODEL 1
REMARK VINA RESULT:      -7.4      0.000      0.000
REMARK  Name = 
REMARK  11 active torsions:
REMARK  status: ('A' for Active; 'I' for Inactive)
REMARK    1  A    between atoms: C_1  and  N_2
REMARK    2  A    between atoms: C_3  and  C_5
REMARK    3  A    between atoms: C_5  and  C_6
REMARK    4  A    between atoms: C_5  and  N_7
REMARK    5  A    between atoms: N_7  and  P_8
REMARK    6  A    between atoms: P_8  and  O_10
REMARK    7  A    between atoms: P_8  and  C_11
REMARK    8  A    between atoms: C_11  and  N_12
REMARK    9  A    between atoms: C_13  and  O_15
REMARK   10  A    between atoms: O_15  and  C_16
REMARK   11  A    between atoms: C_16  and  C_17
REMARK                            x       y       z     vdW  Elec       q    Type
REMARK                         _______ _______ _______ _____ _____    ______ ____
ROOT
ATOM      1  P   UNL     1       5.740   4.710  17.844  0.00  0.00    +0.000 P 
ATOM      2  O   UNL     1       5.700   4.039  19.215  0.00  0.00    +0.000 OA
ENDROOT
BRANCH   1   3
ATOM      3  N   UNL     1       4.010   4.303  17.742  0.00  0.00    +0.000 NA
ATOM      4  H   UNL     1       3.673   4.647  16.847  0.00  0.00    +0.000 HD
BRANCH   3   5
ATOM      5  C   UNL     1       3.224   4.948  18.825  0.00  0.00    +0.000 C 
ATOM      6  C   UNL     1       2.536   6.225  18.343  0.00  0.00    +0.000 C 
BRANCH   5   9
ATOM      7  C   UNL     1       1.539   2.728  21.416  0.00  0.00    +0.000 C 
ATOM      8  N   UNL     1       2.421   3.597  20.687  0.00  0.00    +0.000 N 
ATOM      9  C   UNL     1       2.183   3.958  19.381  0.00  0.00    +0.000 C 
ATOM     10  O   UNL     1       1.202   3.582  18.746  0.00  0.00    +0.000 OA
ATOM     11  H   UNL     1       3.273   3.958  21.108  0.00  0.00    +0.000 HD
ENDBRANCH   5   9
ENDBRANCH   3   5
ENDBRANCH   1   3
BRANCH   1  12
ATOM     12  O   UNL     1       6.026   3.510  16.769  0.00  0.00    +0.000 OA
ATOM     13  H   UNL     1       5.350   2.815  16.925  0.00  0.00    +0.000 HD
ENDBRANCH   1  12
BRANCH   1  14
ATOM     14  C   UNL     1       7.518   5.128  17.949  0.00  0.00    +0.000 C 
BRANCH  14  15
ATOM     15  N   UNL     1       7.809   6.423  18.612  0.00  0.00    +0.000 N 
ATOM     16  C   UNL     1       7.841   7.620  17.924  0.00  0.00    +0.000 C 
ATOM     17  O   UNL     1       7.296   7.825  16.850  0.00  0.00    +0.000 OA
ATOM     18  H   UNL     1       8.284   6.444  19.503  0.00  0.00    +0.000 HD
BRANCH  16  19
ATOM     19  O   UNL     1       8.635   8.497  18.594  0.00  0.00    +0.000 OA
BRANCH  19  20
ATOM     20  C   UNL     1       8.558   9.873  18.168  0.00  0.00    +0.000 C 
BRANCH  20  21
ATOM     21  C   UNL     1       9.606  10.772  18.776  0.00  0.00    +0.000 A 
ATOM     22  C   UNL     1      10.604  11.366  17.990  0.00  0.00    +0.000 A 
ATOM     23  C   UNL     1      11.560  12.204  18.575  0.00  0.00    +0.000 A 
ATOM     24  C   UNL     1      11.533  12.450  19.946  0.00  0.00    +0.000 A 
ATOM     25  C   UNL     1      10.543  11.871  20.734  0.00  0.00    +0.000 A 
ATOM     26  C   UNL     1       9.583  11.043  20.152  0.00  0.00    +0.000 A 
ENDBRANCH  20  21
ENDBRANCH  19  20
ENDBRANCH  16  19
ENDBRANCH  14  15
ENDBRANCH   1  14
TORSDOF 9
ENDMDL
MODEL 2
REMARK VINA RESULT:      -7.2      4.562      8.247
REMARK  Name = 
REMARK  11 active torsions:
REMARK  status: ('A' for Active; 'I' for Inactive)
REMARK    1  A    between atoms: C_1  and  N_2
REMARK    2  A    between atoms: C_3  and  C_5
REMARK    3  A    between atoms: C_5  and  C_6
REMARK    4  A    between atoms: C_5  and  N_7
REMARK    5  A    between atoms: N_7  and  P_8
REMARK    6  A    between atoms: P_8  and  O_10
REMARK    7  A    between atoms: P_8  and  C_11
REMARK    8  A    between atoms: C_11  and  N_12
REMARK    9  A    between atoms: C_13  and  O_15
REMARK   10  A    between atoms: O_15  and  C_16
REMARK   11  A    between atoms: C_16  and  C_17
REMARK                            x       y       z     vdW  Elec       q    Type
REMARK                         _______ _______ _______ _____ _____    ______ ____
ROOT
ATOM      1  P   UNL     1       6.651   4.491  15.412  0.00  0.00    +0.000 P 
ATOM      2  O   UNL     1       5.444   5.324  14.990  0.00  0.00    +0.000 OA
ENDROOT
BRANCH   1   3
ATOM      3  N   UNL     1       6.127   3.338  14.161  0.00  0.00    +0.000 NA
ATOM      4  H   UNL     1       6.834   2.610  14.109  0.00  0.00    +0.000 HD
BRANCH   3   5
ATOM      5  C   UNL     1       6.010   3.983  12.828  0.00  0.00    +0.000 C 
ATOM      6  C   UNL     1       7.380   4.313  12.236  0.00  0.00    +0.000 C 
BRANCH   5   9
ATOM      7  C   UNL     1       3.247   3.018  10.396  0.00  0.00    +0.000 C 
ATOM      8  N   UNL     1       4.095   3.671  11.354  0.00  0.00    +0.000 N 
ATOM      9  C   UNL     1       5.220   3.071  11.870  0.00  0.00    +0.000 C 
ATOM     10  O   UNL     1       5.592   1.947  11.547  0.00  0.00    +0.000 OA
ATOM     11  H   UNL     1       3.877   4.601  11.705  0.00  0.00    +0.000 HD
ENDBRANCH   5   9
ENDBRANCH   3   5
ENDBRANCH   1   3
BRANCH   1  12
ATOM     12  O   UNL     1       6.094   3.437  16.534  0.00  0.00    +0.000 OA
ATOM     13  H   UNL     1       5.948   3.945  17.361  0.00  0.00    +0.000 HD
ENDBRANCH   1  12
BRANCH   1  14
ATOM     14  C   UNL     1       7.190   5.675  16.699  0.00  0.00    +0.000 C 
BRANCH  14  15
ATOM     15  N   UNL     1       6.159   5.991  17.717  0.00  0.00    +0.000 N 
ATOM     16  C   UNL     1       6.234   5.535  19.019  0.00  0.00    +0.000 C 
ATOM     17  O   UNL     1       7.260   5.172  19.575  0.00  0.00    +0.000 OA
ATOM     18  H   UNL     1       5.235   6.284  17.434  0.00  0.00    +0.000 HD
BRANCH  16  19
ATOM     19  O   UNL     1       4.983   5.482  19.545  0.00  0.00    +0.000 OA
BRANCH  19  20
ATOM     20  C   UNL     1       3.895   5.546  18.600  0.00  0.00    +0.000 C 
BRANCH  20  21
ATOM     21  C   UNL     1       2.833   4.492  18.801  0.00  0.00    +0.000 A 
ATOM     22  C   UNL     1       1.874   4.606  19.818  0.00  0.00    +0.000 A 
ATOM     23  C   UNL     1       0.893   3.622  19.979  0.00  0.00    +0.000 A 
ATOM     24  C   UNL     1       0.865   2.514  19.134  0.00  0.00    +0.000 A 
ATOM     25  C   UNL     1       1.808   2.394  18.117  0.00  0.00    +0.000 A 
ATOM     26  C   UNL     1       2.781   3.380  17.949  0.00  0.00    +0.000 A 
ENDBRANCH  20  21
ENDBRANCH  19  20
ENDBRANCH  16  19
ENDBRANCH  14  15
ENDBRANCH   1  14
TORSDOF 9
ENDMDL
MODEL 3
REMARK VINA RESULT:      -7.0      4.518      6.106
REMARK  Name = 
REMARK  11 active torsions:
REMARK  status: ('A' for Active; 'I' for Inactive)
REMARK    1  A    between atoms: C_1  and  N_2
REMARK    2  A    between atoms: C_3  and  C_5
REMARK    3  A    between atoms: C_5  and  C_6
REMARK    4  A    between atoms: C_5  and  N_7
REMARK    5  A    between atoms: N_7  and  P_8
REMARK    6  A    between atoms: P_8  and  O_10
REMARK    7  A    between atoms: P_8  and  C_11
REMARK    8  A    between atoms: C_11  and  N_12
REMARK    9  A    between atoms: C_13  and  O_15
REMARK   10  A    between atoms: O_15  and  C_16
REMARK   11  A    between atoms: C_16  and  C_17
REMARK                            x       y       z     vdW  Elec       q    Type
REMARK                         _______ _______ _______ _____ _____    ______ ____
ROOT
ATOM      1  P   UNL     1       4.130   2.988  19.335  0.00  0.00    +0.000 P 
ATOM      2  O   UNL     1       4.690   1.876  20.218  0.00  0.00    +0.000 OA
ENDROOT
BRANCH   1   3
ATOM      3  N   UNL     1       2.647   2.007  19.267  0.00  0.00    +0.000 NA
ATOM      4  H   UNL     1       2.537   1.695  18.306  0.00  0.00    +0.000 HD
BRANCH   3   5
ATOM      5  C   UNL     1       1.446   2.792  19.651  0.00  0.00    +0.000 C 
ATOM      6  C   UNL     1       1.250   2.823  21.167  0.00  0.00    +0.000 C 
BRANCH   5   9
ATOM      7  C   UNL     1       2.128   6.535  19.735  0.00  0.00    +0.000 C 
ATOM      8  N   UNL     1       1.914   5.149  20.050  0.00  0.00    +0.000 N 
ATOM      9  C   UNL     1       1.554   4.225  19.097  0.00  0.00    +0.000 C 
ATOM     10  O   UNL     1       1.403   4.504  17.912  0.00  0.00    +0.000 OA
ATOM     11  H   UNL     1       1.997   4.806  21.004  0.00  0.00    +0.000 HD
ENDBRANCH   5   9
ENDBRANCH   3   5
ENDBRANCH   1   3
BRANCH   1  12
ATOM     12  O   UNL     1       4.435   2.530  17.795  0.00  0.00    +0.000 OA
ATOM     13  H   UNL     1       5.380   2.266  17.753  0.00  0.00    +0.000 HD
ENDBRANCH   1  12
BRANCH   1  14
ATOM     14  C   UNL     1       5.656   3.997  19.406  0.00  0.00    +0.000 C 
BRANCH  14  15
ATOM     15  N   UNL     1       6.360   4.142  18.109  0.00  0.00    +0.000 N 
ATOM     16  C   UNL     1       7.545   4.838  17.979  0.00  0.00    +0.000 C 
ATOM     17  O   UNL     1       8.321   5.077  18.893  0.00  0.00    +0.000 OA
ATOM     18  H   UNL     1       5.862   4.006  17.241  0.00  0.00    +0.000 HD
BRANCH  16  19
ATOM     19  O   UNL     1       7.666   5.278  16.699  0.00  0.00    +0.000 OA
BRANCH  19  20
ATOM     20  C   UNL     1       6.449   5.320  15.927  0.00  0.00    +0.000 C 
BRANCH  20  21
ATOM     21  C   UNL     1       6.594   4.823  14.509  0.00  0.00    +0.000 A 
ATOM     22  C   UNL     1       7.617   5.289  13.672  0.00  0.00    +0.000 A 
ATOM     23  C   UNL     1       7.737   4.807  12.364  0.00  0.00    +0.000 A 
ATOM     24  C   UNL     1       6.836   3.861  11.880  0.00  0.00    +0.000 A 
ATOM     25  C   UNL     1       5.820   3.385  12.705  0.00  0.00    +0.000 A 
ATOM     26  C   UNL     1       5.705   3.858  14.012  0.00  0.00    +0.000 A 
ENDBRANCH  20  21
ENDBRANCH  19  20
ENDBRANCH  16  19
ENDBRANCH  14  15
ENDBRANCH   1  14
TORSDOF 9
ENDMDL
MODEL 4
REMARK VINA RESULT:      -7.0      3.681      4.947
REMARK  Name = 
REMARK  11 active torsions:
REMARK  status: ('A' for Active; 'I' for Inactive)
REMARK    1  A    between atoms: C_1  and  N_2
REMARK    2  A    between atoms: C_3  and  C_5
REMARK    3  A    between atoms: C_5  and  C_6
REMARK    4  A    between atoms: C_5  and  N_7
REMARK    5  A    between atoms: N_7  and  P_8
REMARK    6  A    between atoms: P_8  and  O_10
REMARK    7  A    between atoms: P_8  and  C_11
REMARK    8  A    between atoms: C_11  and  N_12
REMARK    9  A    between atoms: C_13  and  O_15
REMARK   10  A    between atoms: O_15  and  C_16
REMARK   11  A    between atoms: C_16  and  C_17
REMARK                            x       y       z     vdW  Elec       q    Type
REMARK                         _______ _______ _______ _____ _____    ______ ____
ROOT
ATOM      1  P   UNL     1       6.155   4.989  15.579  0.00  0.00    +0.000 P 
ATOM      2  O   UNL     1       4.689   4.572  15.513  0.00  0.00    +0.000 OA
ENDROOT
BRANCH   1   3
ATOM      3  N   UNL     1       6.434   3.719  14.363  0.00  0.00    +0.000 NA
ATOM      4  H   UNL     1       7.394   3.403  14.474  0.00  0.00    +0.000 HD
BRANCH   3   5
ATOM      5  C   UNL     1       6.260   4.230  12.979  0.00  0.00    +0.000 C 
ATOM      6  C   UNL     1       7.567   4.781  12.410  0.00  0.00    +0.000 C 
BRANCH   5   9
ATOM      7  C   UNL     1       6.317   0.967  11.021  0.00  0.00    +0.000 C 
ATOM      8  N   UNL     1       6.638   2.130  11.801  0.00  0.00    +0.000 N 
ATOM      9  C   UNL     1       5.712   3.112  12.071  0.00  0.00    +0.000 C 
ATOM     10  O   UNL     1       4.549   3.065  11.685  0.00  0.00    +0.000 OA
ATOM     11  H   UNL     1       7.577   2.282  12.162  0.00  0.00    +0.000 HD
ENDBRANCH   5   9
ENDBRANCH   3   5
ENDBRANCH   1   3
BRANCH   1  12
ATOM     12  O   UNL     1       6.850   4.002  16.684  0.00  0.00    +0.000 OA
ATOM     13  H   UNL     1       7.362   3.328  16.188  0.00  0.00    +0.000 HD
ENDBRANCH   1  12
BRANCH   1  14
ATOM     14  C   UNL     1       5.869   6.295  16.829  0.00  0.00    +0.000 C 
BRANCH  14  15
ATOM     15  N   UNL     1       7.074   7.084  17.184  0.00  0.00    +0.000 N 
ATOM     16  C   UNL     1       7.851   6.798  18.289  0.00  0.00    +0.000 C 
ATOM     17  O   UNL     1       7.889   5.717  18.858  0.00  0.00    +0.000 OA
ATOM     18  H   UNL     1       7.196   8.018  16.822  0.00  0.00    +0.000 HD
BRANCH  16  19
ATOM     19  O   UNL     1       8.499   7.927  18.682  0.00  0.00    +0.000 OA
BRANCH  19  20
ATOM     20  C   UNL     1       8.233   9.112  17.904  0.00  0.00    +0.000 C 
BRANCH  20  21
ATOM     21  C   UNL     1       8.873  10.367  18.445  0.00  0.00    +0.000 A 
ATOM     22  C   UNL     1       8.782  11.587  17.760  0.00  0.00    +0.000 A 
ATOM     23  C   UNL     1       9.375  12.740  18.286  0.00  0.00    +0.000 A 
ATOM     24  C   UNL     1      10.069  12.684  19.492  0.00  0.00    +0.000 A 
ATOM     25  C   UNL     1      10.161  11.479  20.184  0.00  0.00    +0.000 A 
ATOM     26  C   UNL     1       9.561  10.331  19.666  0.00  0.00    +0.000 A 
ENDBRANCH  20  21
ENDBRANCH  19  20
ENDBRANCH  16  19
ENDBRANCH  14  15
ENDBRANCH   1  14
TORSDOF 9
ENDMDL
MODEL 5
REMARK VINA RESULT:      -7.0      1.592      2.057
REMARK  Name = 
REMARK  11 active torsions:
REMARK  status: ('A' for Active; 'I' for Inactive)
REMARK    1  A    between atoms: C_1  and  N_2
REMARK    2  A    between atoms: C_3  and  C_5
REMARK    3  A    between atoms: C_5  and  C_6
REMARK    4  A    between atoms: C_5  and  N_7
REMARK    5  A    between atoms: N_7  and  P_8
REMARK    6  A    between atoms: P_8  and  O_10
REMARK    7  A    between atoms: P_8  and  C_11
REMARK    8  A    between atoms: C_11  and  N_12
REMARK    9  A    between atoms: C_13  and  O_15
REMARK   10  A    between atoms: O_15  and  C_16
REMARK   11  A    between atoms: C_16  and  C_17
REMARK                            x       y       z     vdW  Elec       q    Type
REMARK                         _______ _______ _______ _____ _____    ______ ____
ROOT
ATOM      1  P   UNL     1       6.632   5.106  18.366  0.00  0.00    +0.000 P 
ATOM      2  O   UNL     1       7.046   5.387  19.808  0.00  0.00    +0.000 OA
ENDROOT
BRANCH   1   3
ATOM      3  N   UNL     1       5.626   3.805  19.049  0.00  0.00    +0.000 NA
ATOM      4  H   UNL     1       6.105   2.927  18.864  0.00  0.00    +0.000 HD
BRANCH   3   5
ATOM      5  C   UNL     1       4.283   3.754  18.417  0.00  0.00    +0.000 C 
ATOM      6  C   UNL     1       3.896   2.329  18.022  0.00  0.00    +0.000 C 
BRANCH   5   9
ATOM      7  C   UNL     1       1.027   3.903  20.382  0.00  0.00    +0.000 C 
ATOM      8  N   UNL     1       2.107   3.564  19.497  0.00  0.00    +0.000 N 
ATOM      9  C   UNL     1       3.230   4.348  19.373  0.00  0.00    +0.000 C 
ATOM     10  O   UNL     1       3.404   5.381  20.011  0.00  0.00    +0.000 OA
ATOM     11  H   UNL     1       2.066   2.736  18.907  0.00  0.00    +0.000 HD
ENDBRANCH   5   9
ENDBRANCH   3   5
ENDBRANCH   1   3
BRANCH   1  12
ATOM     12  O   UNL     1       7.657   3.950  17.826  0.00  0.00    +0.000 OA
ATOM     13  H   UNL     1       7.408   3.112  18.271  0.00  0.00    +0.000 HD
ENDBRANCH   1  12
BRANCH   1  14
ATOM     14  C   UNL     1       7.666   6.443  17.665  0.00  0.00    +0.000 C 
BRANCH  14  15
ATOM     15  N   UNL     1       8.225   7.381  18.669  0.00  0.00    +0.000 N 
ATOM     16  C   UNL     1       8.330   8.739  18.441  0.00  0.00    +0.000 C 
ATOM     17  O   UNL     1       7.677   9.363  17.619  0.00  0.00    +0.000 OA
ATOM     18  H   UNL     1       8.817   7.038  19.412  0.00  0.00    +0.000 HD
BRANCH  16  19
ATOM     19  O   UNL     1       9.325   9.245  19.216  0.00  0.00    +0.000 OA
BRANCH  19  20
ATOM     20  C   UNL     1       9.179  10.624  19.612  0.00  0.00    +0.000 C 
BRANCH  20  21
ATOM     21  C   UNL     1      10.114  11.576  18.907  0.00  0.00    +0.000 A 
ATOM     22  C   UNL     1      11.471  11.655  19.250  0.00  0.00    +0.000 A 
ATOM     23  C   UNL     1      12.321  12.538  18.576  0.00  0.00    +0.000 A 
ATOM     24  C   UNL     1      11.825  13.353  17.561  0.00  0.00    +0.000 A 
ATOM     25  C   UNL     1      10.480  13.278  17.208  0.00  0.00    +0.000 A 
ATOM     26  C   UNL     1       9.633  12.391  17.872  0.00  0.00    +0.000 A 
ENDBRANCH  20  21
ENDBRANCH  19  20
ENDBRANCH  16  19
ENDBRANCH  14  15
ENDBRANCH   1  14
TORSDOF 9
ENDMDL
MODEL 6
REMARK VINA RESULT:      -6.9      4.444      6.358
REMARK  Name = 
REMARK  11 active torsions:
REMARK  status: ('A' for Active; 'I' for Inactive)
REMARK    1  A    between atoms: C_1  and  N_2
REMARK    2  A    between atoms: C_3  and  C_5
REMARK    3  A    between atoms: C_5  and  C_6
REMARK    4  A    between atoms: C_5  and  N_7
REMARK    5  A    between atoms: N_7  and  P_8
REMARK    6  A    between atoms: P_8  and  O_10
REMARK    7  A    between atoms: P_8  and  C_11
REMARK    8  A    between atoms: C_11  and  N_12
REMARK    9  A    between atoms: C_13  and  O_15
REMARK   10  A    between atoms: O_15  and  C_16
REMARK   11  A    between atoms: C_16  and  C_17
REMARK                            x       y       z     vdW  Elec       q    Type
REMARK                         _______ _______ _______ _____ _____    ______ ____
ROOT
ATOM      1  P   UNL     1       4.189   3.188  19.354  0.00  0.00    +0.000 P 
ATOM      2  O   UNL     1       4.851   2.079  20.168  0.00  0.00    +0.000 OA
ENDROOT
BRANCH   1   3
ATOM      3  N   UNL     1       2.762   2.124  19.313  0.00  0.00    +0.000 NA
ATOM      4  H   UNL     1       2.807   1.595  18.447  0.00  0.00    +0.000 HD
BRANCH   3   5
ATOM      5  C   UNL     1       1.494   2.898  19.332  0.00  0.00    +0.000 C 
ATOM      6  C   UNL     1       1.131   3.357  20.744  0.00  0.00    +0.000 C 
BRANCH   5   9
ATOM      7  C   UNL     1       2.216   6.496  18.325  0.00  0.00    +0.000 C 
ATOM      8  N   UNL     1       1.996   5.263  19.029  0.00  0.00    +0.000 N 
ATOM      9  C   UNL     1       1.605   4.110  18.387  0.00  0.00    +0.000 C 
ATOM     10  O   UNL     1       1.429   4.040  17.175  0.00  0.00    +0.000 OA
ATOM     11  H   UNL     1       2.098   5.206  20.039  0.00  0.00    +0.000 HD
ENDBRANCH   5   9
ENDBRANCH   3   5
ENDBRANCH   1   3
BRANCH   1  12
ATOM     12  O   UNL     1       4.448   2.803  17.785  0.00  0.00    +0.000 OA
ATOM     13  H   UNL     1       3.810   2.095  17.552  0.00  0.00    +0.000 HD
ENDBRANCH   1  12
BRANCH   1  14
ATOM     14  C   UNL     1       5.656   4.281  19.396  0.00  0.00    +0.000 C 
BRANCH  14  15
ATOM     15  N   UNL     1       6.643   4.031  18.317  0.00  0.00    +0.000 N 
ATOM     16  C   UNL     1       7.384   5.042  17.737  0.00  0.00    +0.000 C 
ATOM     17  O   UNL     1       7.606   6.129  18.249  0.00  0.00    +0.000 OA
ATOM     18  H   UNL     1       6.593   3.186  17.766  0.00  0.00    +0.000 HD
BRANCH  16  19
ATOM     19  O   UNL     1       7.754   4.662  16.486  0.00  0.00    +0.000 OA
BRANCH  19  20
ATOM     20  C   UNL     1       7.291   5.500  15.407  0.00  0.00    +0.000 C 
BRANCH  20  21
ATOM     21  C   UNL     1       6.783   4.743  14.205  0.00  0.00    +0.000 A 
ATOM     22  C   UNL     1       5.539   4.096  14.220  0.00  0.00    +0.000 A 
ATOM     23  C   UNL     1       5.085   3.409  13.090  0.00  0.00    +0.000 A 
ATOM     24  C   UNL     1       5.869   3.354  11.939  0.00  0.00    +0.000 A 
ATOM     25  C   UNL     1       7.103   3.999  11.911  0.00  0.00    +0.000 A 
ATOM     26  C   UNL     1       7.553   4.693  13.034  0.00  0.00    +0.000 A 
ENDBRANCH  20  21
ENDBRANCH  19  20
ENDBRANCH  16  19
ENDBRANCH  14  15
ENDBRANCH   1  14
TORSDOF 9
ENDMDL
MODEL 7
REMARK VINA RESULT:      -6.8      4.781      7.342
REMARK  Name = 
REMARK  11 active torsions:
REMARK  status: ('A' for Active; 'I' for Inactive)
REMARK    1  A    between atoms: C_1  and  N_2
REMARK    2  A    between atoms: C_3  and  C_5
REMARK    3  A    between atoms: C_5  and  C_6
REMARK    4  A    between atoms: C_5  and  N_7
REMARK    5  A    between atoms: N_7  and  P_8
REMARK    6  A    between atoms: P_8  and  O_10
REMARK    7  A    between atoms: P_8  and  C_11
REMARK    8  A    between atoms: C_11  and  N_12
REMARK    9  A    between atoms: C_13  and  O_15
REMARK   10  A    between atoms: O_15  and  C_16
REMARK   11  A    between atoms: C_16  and  C_17
REMARK                            x       y       z     vdW  Elec       q    Type
REMARK                         _______ _______ _______ _____ _____    ______ ____
ROOT
ATOM      1  P   UNL     1       5.778   4.947  18.876  0.00  0.00    +0.000 P 
ATOM      2  O   UNL     1       6.661   5.419  20.029  0.00  0.00    +0.000 OA
ENDROOT
BRANCH   1   3
ATOM      3  N   UNL     1       4.408   5.456  19.891  0.00  0.00    +0.000 NA
ATOM      4  H   UNL     1       4.145   4.658  20.464  0.00  0.00    +0.000 HD
BRANCH   3   5
ATOM      5  C   UNL     1       3.235   5.862  19.076  0.00  0.00    +0.000 C 
ATOM      6  C   UNL     1       3.656   6.597  17.803  0.00  0.00    +0.000 C 
BRANCH   5   9
ATOM      7  C   UNL     1       1.354   2.612  19.698  0.00  0.00    +0.000 C 
ATOM      8  N   UNL     1       2.168   3.793  19.795  0.00  0.00    +0.000 N 
ATOM      9  C   UNL     1       2.388   4.624  18.722  0.00  0.00    +0.000 C 
ATOM     10  O   UNL     1       1.901   4.435  17.612  0.00  0.00    +0.000 OA
ATOM     11  H   UNL     1       2.635   4.043  20.664  0.00  0.00    +0.000 HD
ENDBRANCH   5   9
ENDBRANCH   3   5
ENDBRANCH   1   3
BRANCH   1  12
ATOM     12  O   UNL     1       5.384   3.397  19.223  0.00  0.00    +0.000 OA
ATOM     13  H   UNL     1       5.957   2.822  18.672  0.00  0.00    +0.000 HD
ENDBRANCH   1  12
BRANCH   1  14
ATOM     14  C   UNL     1       7.187   4.423  17.832  0.00  0.00    +0.000 C 
BRANCH  14  15
ATOM     15  N   UNL     1       6.835   4.132  16.421  0.00  0.00    +0.000 N 
ATOM     16  C   UNL     1       6.990   5.060  15.410  0.00  0.00    +0.000 C 
ATOM     17  O   UNL     1       7.738   6.026  15.454  0.00  0.00    +0.000 OA
ATOM     18  H   UNL     1       6.202   3.379  16.199  0.00  0.00    +0.000 HD
BRANCH  16  19
ATOM     19  O   UNL     1       6.125   4.770  14.403  0.00  0.00    +0.000 OA
BRANCH  19  20
ATOM     20  C   UNL     1       6.674   4.794  13.070  0.00  0.00    +0.000 C 
BRANCH  20  21
ATOM     21  C   UNL     1       6.430   3.536  12.273  0.00  0.00    +0.000 A 
ATOM     22  C   UNL     1       5.131   3.107  11.964  0.00  0.00    +0.000 A 
ATOM     23  C   UNL     1       4.929   1.943  11.215  0.00  0.00    +0.000 A 
ATOM     24  C   UNL     1       6.019   1.194  10.776  0.00  0.00    +0.000 A 
ATOM     25  C   UNL     1       7.313   1.614  11.071  0.00  0.00    +0.000 A 
ATOM     26  C   UNL     1       7.516   2.780  11.809  0.00  0.00    +0.000 A 
ENDBRANCH  20  21
ENDBRANCH  19  20
ENDBRANCH  16  19
ENDBRANCH  14  15
ENDBRANCH   1  14
TORSDOF 9
ENDMDL
MODEL 8
REMARK VINA RESULT:      -6.6      4.952      7.454
REMARK  Name = 
REMARK  11 active torsions:
REMARK  status: ('A' for Active; 'I' for Inactive)
REMARK    1  A    between atoms: C_1  and  N_2
REMARK    2  A    between atoms: C_3  and  C_5
REMARK    3  A    between atoms: C_5  and  C_6
REMARK    4  A    between atoms: C_5  and  N_7
REMARK    5  A    between atoms: N_7  and  P_8
REMARK    6  A    between atoms: P_8  and  O_10
REMARK    7  A    between atoms: P_8  and  C_11
REMARK    8  A    between atoms: C_11  and  N_12
REMARK    9  A    between atoms: C_13  and  O_15
REMARK   10  A    between atoms: O_15  and  C_16
REMARK   11  A    between atoms: C_16  and  C_17
REMARK                            x       y       z     vdW  Elec       q    Type
REMARK                         _______ _______ _______ _____ _____    ______ ____
ROOT
ATOM      1  P   UNL     1       4.661   4.189  18.442  0.00  0.00    +0.000 P 
ATOM      2  O   UNL     1       3.792   3.440  17.435  0.00  0.00    +0.000 OA
ENDROOT
BRANCH   1   3
ATOM      3  N   UNL     1       5.894   4.216  17.158  0.00  0.00    +0.000 NA
ATOM      4  H   UNL     1       6.698   4.717  17.526  0.00  0.00    +0.000 HD
BRANCH   3   5
ATOM      5  C   UNL     1       5.412   4.920  15.942  0.00  0.00    +0.000 C 
ATOM      6  C   UNL     1       5.195   6.411  16.198  0.00  0.00    +0.000 C 
BRANCH   5   9
ATOM      7  C   UNL     1       6.652   3.673  12.567  0.00  0.00    +0.000 C 
ATOM      8  N   UNL     1       5.907   3.940  13.767  0.00  0.00    +0.000 N 
ATOM      9  C   UNL     1       6.410   4.715  14.786  0.00  0.00    +0.000 C 
ATOM     10  O   UNL     1       7.515   5.246  14.747  0.00  0.00    +0.000 OA
ATOM     11  H   UNL     1       4.984   3.540  13.916  0.00  0.00    +0.000 HD
ENDBRANCH   5   9
ENDBRANCH   3   5
ENDBRANCH   1   3
BRANCH   1  12
ATOM     12  O   UNL     1       5.556   3.045  19.196  0.00  0.00    +0.000 OA
ATOM     13  H   UNL     1       6.125   2.627  18.515  0.00  0.00    +0.000 HD
ENDBRANCH   1  12
BRANCH   1  14
ATOM     14  C   UNL     1       3.394   4.161  19.762  0.00  0.00    +0.000 C 
BRANCH  14  15
ATOM     15  N   UNL     1       2.874   5.496  20.146  0.00  0.00    +0.000 N 
ATOM     16  C   UNL     1       2.419   6.413  19.219  0.00  0.00    +0.000 C 
ATOM     17  O   UNL     1       2.043   6.138  18.089  0.00  0.00    +0.000 OA
ATOM     18  H   UNL     1       3.109   5.895  21.043  0.00  0.00    +0.000 HD
BRANCH  16  19
ATOM     19  O   UNL     1       2.534   7.664  19.737  0.00  0.00    +0.000 OA
BRANCH  19  20
ATOM     20  C   UNL     1       1.520   8.609  19.338  0.00  0.00    +0.000 C 
BRANCH  20  21
ATOM     21  C   UNL     1       0.825   9.298  20.488  0.00  0.00    +0.000 A 
ATOM     22  C   UNL     1       0.287  10.585  20.351  0.00  0.00    +0.000 A 
ATOM     23  C   UNL     1      -0.361  11.200  21.427  0.00  0.00    +0.000 A 
ATOM     24  C   UNL     1      -0.472  10.540  22.649  0.00  0.00    +0.000 A 
ATOM     25  C   UNL     1       0.052   9.258  22.794  0.00  0.00    +0.000 A 
ATOM     26  C   UNL     1       0.690   8.640  21.719  0.00  0.00    +0.000 A 
ENDBRANCH  20  21
ENDBRANCH  19  20
ENDBRANCH  16  19
ENDBRANCH  14  15
ENDBRANCH   1  14
TORSDOF 9
ENDMDL
MODEL 9
REMARK VINA RESULT:      -6.6      4.411      8.122
REMARK  Name = 
REMARK  11 active torsions:
REMARK  status: ('A' for Active; 'I' for Inactive)
REMARK    1  A    between atoms: C_1  and  N_2
REMARK    2  A    between atoms: C_3  and  C_5
REMARK    3  A    between atoms: C_5  and  C_6
REMARK    4  A    between atoms: C_5  and  N_7
REMARK    5  A    between atoms: N_7  and  P_8
REMARK    6  A    between atoms: P_8  and  O_10
REMARK    7  A    between atoms: P_8  and  C_11
REMARK    8  A    between atoms: C_11  and  N_12
REMARK    9  A    between atoms: C_13  and  O_15
REMARK   10  A    between atoms: O_15  and  C_16
REMARK   11  A    between atoms: C_16  and  C_17
REMARK                            x       y       z     vdW  Elec       q    Type
REMARK                         _______ _______ _______ _____ _____    ______ ____
ROOT
ATOM      1  P   UNL     1       6.235   6.339  17.164  0.00  0.00    +0.000 P 
ATOM      2  O   UNL     1       6.715   5.870  18.535  0.00  0.00    +0.000 OA
ENDROOT
BRANCH   1   3
ATOM      3  N   UNL     1       7.516   5.294  16.505  0.00  0.00    +0.000 NA
ATOM      4  H   UNL     1       8.059   5.858  15.857  0.00  0.00    +0.000 HD
BRANCH   3   5
ATOM      5  C   UNL     1       6.958   4.130  15.770  0.00  0.00    +0.000 C 
ATOM      6  C   UNL     1       5.532   3.809  16.216  0.00  0.00    +0.000 C 
BRANCH   5   9
ATOM      7  C   UNL     1       6.241   3.506  12.085  0.00  0.00    +0.000 C 
ATOM      8  N   UNL     1       6.371   3.422  13.513  0.00  0.00    +0.000 N 
ATOM      9  C   UNL     1       6.995   4.400  14.253  0.00  0.00    +0.000 C 
ATOM     10  O   UNL     1       7.472   5.417  13.760  0.00  0.00    +0.000 OA
ATOM     11  H   UNL     1       6.025   2.617  14.029  0.00  0.00    +0.000 HD
ENDBRANCH   5   9
ENDBRANCH   3   5
ENDBRANCH   1   3
BRANCH   1  12
ATOM     12  O   UNL     1       7.169   7.627  16.782  0.00  0.00    +0.000 OA
ATOM     13  H   UNL     1       8.100   7.318  16.778  0.00  0.00    +0.000 HD
ENDBRANCH   1  12
BRANCH   1  14
ATOM     14  C   UNL     1       4.918   7.414  17.842  0.00  0.00    +0.000 C 
BRANCH  14  15
ATOM     15  N   UNL     1       3.539   6.999  17.486  0.00  0.00    +0.000 N 
ATOM     16  C   UNL     1       2.480   7.103  18.367  0.00  0.00    +0.000 C 
ATOM     17  O   UNL     1       2.445   7.847  19.335  0.00  0.00    +0.000 OA
ATOM     18  H   UNL     1       3.380   6.359  16.721  0.00  0.00    +0.000 HD
BRANCH  16  19
ATOM     19  O   UNL     1       1.528   6.193  18.028  0.00  0.00    +0.000 OA
BRANCH  19  20
ATOM     20  C   UNL     1       1.988   4.840  17.831  0.00  0.00    +0.000 C 
BRANCH  20  21
ATOM     21  C   UNL     1       2.157   4.049  19.105  0.00  0.00    +0.000 A 
ATOM     22  C   UNL     1       1.104   3.902  20.019  0.00  0.00    +0.000 A 
ATOM     23  C   UNL     1       1.281   3.155  21.189  0.00  0.00    +0.000 A 
ATOM     24  C   UNL     1       2.509   2.556  21.460  0.00  0.00    +0.000 A 
ATOM     25  C   UNL     1       3.559   2.689  20.555  0.00  0.00    +0.000 A 
ATOM     26  C   UNL     1       3.381   3.425  19.384  0.00  0.00    +0.000 A 
ENDBRANCH  20  21
ENDBRANCH  19  20
ENDBRANCH  16  19
ENDBRANCH  14  15
ENDBRANCH   1  14
TORSDOF 9
ENDMDL
