MODEL 1
REMARK VINA RESULT:      -7.2      0.000      0.000
REMARK  Name = 
REMARK  12 active torsions:
REMARK  status: ('A' for Active; 'I' for Inactive)
REMARK    1  A    between atoms: C_1  and  C_2
REMARK    2  A    between atoms: C_2  and  O_3
REMARK    3  A    between atoms: O_3  and  C_4
REMARK    4  A    between atoms: C_7  and  C_8
REMARK    5  A    between atoms: C_11  and  S_12
REMARK    6  A    between atoms: S_12  and  C_13
REMARK    7  A    between atoms: C_13  and  C_14
REMARK    8  A    between atoms: N_16  and  C_17
REMARK    9  A    between atoms: C_24  and  C_25
REMARK   10  A    between atoms: C_28  and  O_29
REMARK   11  A    between atoms: O_29  and  C_30
REMARK   12  A    between atoms: C_30  and  C_31
REMARK                            x       y       z     vdW  Elec       q    Type
REMARK                         _______ _______ _______ _____ _____    ______ ____
ROOT
ATOM      1  C   UNL     1       0.130  10.052  20.840  0.00  0.00    +0.000 A 
ATOM      2  N   UNL     1       0.412  10.039  22.165  0.00  0.00    +0.000 NA
ATOM      3  N   UNL     1      -0.228  10.896  22.993  0.00  0.00    +0.000 NA
ATOM      4  C   UNL     1      -1.111  11.777  22.482  0.00  0.00    +0.000 A 
ATOM      5  N   UNL     1      -1.475  11.810  21.193  0.00  0.00    +0.000 NA
ATOM      6  C   UNL     1      -0.867  10.918  20.366  0.00  0.00    +0.000 A 
ENDROOT
BRANCH   1  10
ATOM      7  C   UNL     1       2.707   7.461  18.572  0.00  0.00    +0.000 A 
ATOM      8  C   UNL     1       2.237   8.648  18.017  0.00  0.00    +0.000 A 
ATOM      9  C   UNL     1       1.384   9.480  18.748  0.00  0.00    +0.000 A 
ATOM     10  C   UNL     1       0.957   9.128  20.041  0.00  0.00    +0.000 A 
ATOM     11  C   UNL     1       1.351   7.869  20.526  0.00  0.00    +0.000 A 
ATOM     12  C   UNL     1       2.239   7.057  19.817  0.00  0.00    +0.000 A 
BRANCH   7  13
ATOM     13  O   UNL     1       3.604   6.770  17.810  0.00  0.00    +0.000 OA
BRANCH  13  15
ATOM     14  C   UNL     1       5.785   5.831  17.917  0.00  0.00    +0.000 C 
ATOM     15  C   UNL     1       4.390   5.803  18.511  0.00  0.00    +0.000 C 
ENDBRANCH  13  15
ENDBRANCH   7  13
ENDBRANCH   1  10
BRANCH   6  16
ATOM     16  C   UNL     1      -1.378  10.957  18.972  0.00  0.00    +0.000 A 
ATOM     17  C   UNL     1      -2.047   9.853  18.414  0.00  0.00    +0.000 A 
ATOM     18  C   UNL     1      -2.556   9.895  17.110  0.00  0.00    +0.000 A 
ATOM     19  C   UNL     1      -2.441  11.047  16.332  0.00  0.00    +0.000 A 
ATOM     20  C   UNL     1      -1.770  12.147  16.857  0.00  0.00    +0.000 A 
ATOM     21  C   UNL     1      -1.220  12.086  18.146  0.00  0.00    +0.000 A 
BRANCH  19  22
ATOM     22  O   UNL     1      -2.956  10.957  15.071  0.00  0.00    +0.000 OA
BRANCH  22  23
ATOM     23  C   UNL     1      -3.856   9.879  14.813  0.00  0.00    +0.000 C 
ATOM     24  C   UNL     1      -4.091   9.820  13.314  0.00  0.00    +0.000 C 
ENDBRANCH  22  23
ENDBRANCH  19  22
ENDBRANCH   6  16
BRANCH   4  25
ATOM     25  S   UNL     1      -1.813  12.980  23.577  0.00  0.00    +0.000 S 
BRANCH  25  26
ATOM     26  C   UNL     1      -3.496  12.298  23.709  0.00  0.00    +0.000 C 
BRANCH  26  27
ATOM     27  C   UNL     1      -4.474  13.071  22.831  0.00  0.00    +0.000 C 
ATOM     28  O   UNL     1      -4.903  14.180  23.153  0.00  0.00    +0.000 OA
ATOM     29  N   UNL     1      -4.813  12.435  21.650  0.00  0.00    +0.000 N 
ATOM     30  H   UNL     1      -4.773  11.422  21.672  0.00  0.00    +0.000 HD
BRANCH  29  31
ATOM     31  C   UNL     1      -5.750  13.029  20.689  0.00  0.00    +0.000 C 
ATOM     32  C   UNL     1      -5.346  12.774  19.227  0.00  0.00    +0.000 C 
ATOM     33  C   UNL     1      -5.401  11.287  18.878  0.00  0.00    +0.000 C 
ATOM     34  C   UNL     1      -6.795  10.718  19.120  0.00  0.00    +0.000 C 
ATOM     35  C   UNL     1      -7.301  11.006  20.532  0.00  0.00    +0.000 C 
ATOM     36  C   UNL     1      -7.171  12.483  20.914  0.00  0.00    +0.000 C 
ENDBRANCH  29  31
ENDBRANCH  26  27
ENDBRANCH  25  26
ENDBRANCH   4  25
TORSDOF 10
ENDMDL
MODEL 2
REMARK VINA RESULT:      -6.9      1.345      1.612
REMARK  Name = 
REMARK  12 active torsions:
REMARK  status: ('A' for Active; 'I' for Inactive)
REMARK    1  A    between atoms: C_1  and  C_2
REMARK    2  A    between atoms: C_2  and  O_3
REMARK    3  A    between atoms: O_3  and  C_4
REMARK    4  A    between atoms: C_7  and  C_8
REMARK    5  A    between atoms: C_11  and  S_12
REMARK    6  A    between atoms: S_12  and  C_13
REMARK    7  A    between atoms: C_13  and  C_14
REMARK    8  A    between atoms: N_16  and  C_17
REMARK    9  A    between atoms: C_24  and  C_25
REMARK   10  A    between atoms: C_28  and  O_29
REMARK   11  A    between atoms: O_29  and  C_30
REMARK   12  A    between atoms: C_30  and  C_31
REMARK                            x       y       z     vdW  Elec       q    Type
REMARK                         _______ _______ _______ _____ _____    ______ ____
ROOT
ATOM      1  C   UNL     1       0.072  10.748  20.322  0.00  0.00    +0.000 A 
ATOM      2  N   UNL     1       0.531  11.119  21.542  0.00  0.00    +0.000 NA
ATOM      3  N   UNL     1      -0.057  12.150  22.192  0.00  0.00    +0.000 NA
ATOM      4  C   UNL     1      -1.067  12.818  21.599  0.00  0.00    +0.000 A 
ATOM      5  N   UNL     1      -1.603  12.473  20.421  0.00  0.00    +0.000 NA
ATOM      6  C   UNL     1      -1.044  11.407  19.786  0.00  0.00    +0.000 A 
ENDROOT
BRANCH   1  10
ATOM      7  C   UNL     1       2.521   7.706  18.521  0.00  0.00    +0.000 A 
ATOM      8  C   UNL     1       2.095   8.800  17.773  0.00  0.00    +0.000 A 
ATOM      9  C   UNL     1       1.282   9.778  18.354  0.00  0.00    +0.000 A 
ATOM     10  C   UNL     1       0.854   9.669  19.689  0.00  0.00    +0.000 A 
ATOM     11  C   UNL     1       1.201   8.495  20.381  0.00  0.00    +0.000 A 
ATOM     12  C   UNL     1       2.050   7.538  19.818  0.00  0.00    +0.000 A 
BRANCH   7  13
ATOM     13  O   UNL     1       3.382   6.858  17.886  0.00  0.00    +0.000 OA
BRANCH  13  15
ATOM     14  C   UNL     1       4.007   4.565  17.882  0.00  0.00    +0.000 C 
ATOM     15  C   UNL     1       3.957   5.838  18.704  0.00  0.00    +0.000 C 
ENDBRANCH  13  15
ENDBRANCH   7  13
ENDBRANCH   1  10
BRANCH   6  16
ATOM     16  C   UNL     1      -1.740  11.033  18.529  0.00  0.00    +0.000 A 
ATOM     17  C   UNL     1      -2.441   9.819  18.422  0.00  0.00    +0.000 A 
ATOM     18  C   UNL     1      -3.124   9.474  17.249  0.00  0.00    +0.000 A 
ATOM     19  C   UNL     1      -3.153  10.341  16.156  0.00  0.00    +0.000 A 
ATOM     20  C   UNL     1      -2.455  11.542  16.232  0.00  0.00    +0.000 A 
ATOM     21  C   UNL     1      -1.733  11.863  17.391  0.00  0.00    +0.000 A 
BRANCH  19  22
ATOM     22  O   UNL     1      -3.831   9.883  15.063  0.00  0.00    +0.000 OA
BRANCH  22  23
ATOM     23  C   UNL     1      -3.148   9.929  13.810  0.00  0.00    +0.000 C 
ATOM     24  C   UNL     1      -4.193   9.851  12.710  0.00  0.00    +0.000 C 
ENDBRANCH  22  23
ENDBRANCH  19  22
ENDBRANCH   6  16
BRANCH   4  25
ATOM     25  S   UNL     1      -1.706  14.252  22.418  0.00  0.00    +0.000 S 
BRANCH  25  26
ATOM     26  C   UNL     1      -2.833  14.846  21.116  0.00  0.00    +0.000 C 
BRANCH  26  27
ATOM     27  C   UNL     1      -4.203  14.187  21.229  0.00  0.00    +0.000 C 
ATOM     28  O   UNL     1      -4.611  13.710  22.288  0.00  0.00    +0.000 OA
ATOM     29  N   UNL     1      -4.942  14.192  20.060  0.00  0.00    +0.000 N 
ATOM     30  H   UNL     1      -4.402  14.200  19.202  0.00  0.00    +0.000 HD
BRANCH  29  31
ATOM     31  C   UNL     1      -6.279  13.592  19.983  0.00  0.00    +0.000 C 
ATOM     32  C   UNL     1      -7.224  14.359  19.043  0.00  0.00    +0.000 C 
ATOM     33  C   UNL     1      -6.745  14.303  17.593  0.00  0.00    +0.000 C 
ATOM     34  C   UNL     1      -6.620  12.861  17.111  0.00  0.00    +0.000 C 
ATOM     35  C   UNL     1      -5.759  12.012  18.045  0.00  0.00    +0.000 C 
ATOM     36  C   UNL     1      -6.187  12.130  19.510  0.00  0.00    +0.000 C 
ENDBRANCH  29  31
ENDBRANCH  26  27
ENDBRANCH  25  26
ENDBRANCH   4  25
TORSDOF 10
ENDMDL
MODEL 3
REMARK VINA RESULT:      -6.9      1.239      1.716
REMARK  Name = 
REMARK  12 active torsions:
REMARK  status: ('A' for Active; 'I' for Inactive)
REMARK    1  A    between atoms: C_1  and  C_2
REMARK    2  A    between atoms: C_2  and  O_3
REMARK    3  A    between atoms: O_3  and  C_4
REMARK    4  A    between atoms: C_7  and  C_8
REMARK    5  A    between atoms: C_11  and  S_12
REMARK    6  A    between atoms: S_12  and  C_13
REMARK    7  A    between atoms: C_13  and  C_14
REMARK    8  A    between atoms: N_16  and  C_17
REMARK    9  A    between atoms: C_24  and  C_25
REMARK   10  A    between atoms: C_28  and  O_29
REMARK   11  A    between atoms: O_29  and  C_30
REMARK   12  A    between atoms: C_30  and  C_31
REMARK                            x       y       z     vdW  Elec       q    Type
REMARK                         _______ _______ _______ _____ _____    ______ ____
ROOT
ATOM      1  C   UNL     1       0.056  10.835  20.458  0.00  0.00    +0.000 A 
ATOM      2  N   UNL     1       0.509  11.254  21.664  0.00  0.00    +0.000 NA
ATOM      3  N   UNL     1      -0.034  12.353  22.237  0.00  0.00    +0.000 NA
ATOM      4  C   UNL     1      -0.993  13.037  21.582  0.00  0.00    +0.000 A 
ATOM      5  N   UNL     1      -1.523  12.651  20.414  0.00  0.00    +0.000 NA
ATOM      6  C   UNL     1      -1.011  11.520  19.857  0.00  0.00    +0.000 A 
ENDROOT
BRANCH   1  10
ATOM      7  C   UNL     1       2.369   7.557  18.909  0.00  0.00    +0.000 A 
ATOM      8  C   UNL     1       2.057   8.644  18.097  0.00  0.00    +0.000 A 
ATOM      9  C   UNL     1       1.289   9.700  18.596  0.00  0.00    +0.000 A 
ATOM     10  C   UNL     1       0.789   9.678  19.910  0.00  0.00    +0.000 A 
ATOM     11  C   UNL     1       1.019   8.515  20.665  0.00  0.00    +0.000 A 
ATOM     12  C   UNL     1       1.824   7.478  20.185  0.00  0.00    +0.000 A 
BRANCH   7  13
ATOM     13  O   UNL     1       3.198   6.626  18.352  0.00  0.00    +0.000 OA
BRANCH  13  15
ATOM     14  C   UNL     1       4.919   4.995  18.518  0.00  0.00    +0.000 C 
ATOM     15  C   UNL     1       3.841   5.745  19.276  0.00  0.00    +0.000 C 
ENDBRANCH  13  15
ENDBRANCH   7  13
ENDBRANCH   1  10
BRANCH   6  16
ATOM     16  C   UNL     1      -1.700  11.108  18.608  0.00  0.00    +0.000 A 
ATOM     17  C   UNL     1      -2.406   9.894  18.537  0.00  0.00    +0.000 A 
ATOM     18  C   UNL     1      -3.083   9.515  17.370  0.00  0.00    +0.000 A 
ATOM     19  C   UNL     1      -3.101  10.346  16.249  0.00  0.00    +0.000 A 
ATOM     20  C   UNL     1      -2.397  11.545  16.291  0.00  0.00    +0.000 A 
ATOM     21  C   UNL     1      -1.682  11.901  17.444  0.00  0.00    +0.000 A 
BRANCH  19  22
ATOM     22  O   UNL     1      -3.773   9.855  15.167  0.00  0.00    +0.000 OA
BRANCH  22  23
ATOM     23  C   UNL     1      -3.146  10.001  13.893  0.00  0.00    +0.000 C 
ATOM     24  C   UNL     1      -4.216   9.830  12.828  0.00  0.00    +0.000 C 
ENDBRANCH  22  23
ENDBRANCH  19  22
ENDBRANCH   6  16
BRANCH   4  25
ATOM     25  S   UNL     1      -1.568  14.552  22.298  0.00  0.00    +0.000 S 
BRANCH  25  26
ATOM     26  C   UNL     1      -2.463  13.869  23.730  0.00  0.00    +0.000 C 
BRANCH  26  27
ATOM     27  C   UNL     1      -3.560  12.908  23.287  0.00  0.00    +0.000 C 
ATOM     28  O   UNL     1      -3.821  11.882  23.916  0.00  0.00    +0.000 OA
ATOM     29  N   UNL     1      -4.240  13.297  22.147  0.00  0.00    +0.000 N 
ATOM     30  H   UNL     1      -3.711  13.869  21.497  0.00  0.00    +0.000 HD
BRANCH  29  31
ATOM     31  C   UNL     1      -5.319  12.487  21.572  0.00  0.00    +0.000 C 
ATOM     32  C   UNL     1      -6.696  12.816  22.174  0.00  0.00    +0.000 C 
ATOM     33  C   UNL     1      -7.131  14.243  21.841  0.00  0.00    +0.000 C 
ATOM     34  C   UNL     1      -7.176  14.466  20.333  0.00  0.00    +0.000 C 
ATOM     35  C   UNL     1      -5.865  14.080  19.651  0.00  0.00    +0.000 C 
ATOM     36  C   UNL     1      -5.385  12.681  20.046  0.00  0.00    +0.000 C 
ENDBRANCH  29  31
ENDBRANCH  26  27
ENDBRANCH  25  26
ENDBRANCH   4  25
TORSDOF 10
ENDMDL
MODEL 4
REMARK VINA RESULT:      -6.8      3.773      9.043
REMARK  Name = 
REMARK  12 active torsions:
REMARK  status: ('A' for Active; 'I' for Inactive)
REMARK    1  A    between atoms: C_1  and  C_2
REMARK    2  A    between atoms: C_2  and  O_3
REMARK    3  A    between atoms: O_3  and  C_4
REMARK    4  A    between atoms: C_7  and  C_8
REMARK    5  A    between atoms: C_11  and  S_12
REMARK    6  A    between atoms: S_12  and  C_13
REMARK    7  A    between atoms: C_13  and  C_14
REMARK    8  A    between atoms: N_16  and  C_17
REMARK    9  A    between atoms: C_24  and  C_25
REMARK   10  A    between atoms: C_28  and  O_29
REMARK   11  A    between atoms: O_29  and  C_30
REMARK   12  A    between atoms: C_30  and  C_31
REMARK                            x       y       z     vdW  Elec       q    Type
REMARK                         _______ _______ _______ _____ _____    ______ ____
ROOT
ATOM      1  C   UNL     1      -0.701  11.472  22.557  0.00  0.00    +0.000 A 
ATOM      2  N   UNL     1      -0.738  10.316  23.263  0.00  0.00    +0.000 NA
ATOM      3  N   UNL     1      -0.054   9.238  22.815  0.00  0.00    +0.000 NA
ATOM      4  C   UNL     1       0.622   9.318  21.651  0.00  0.00    +0.000 A 
ATOM      5  N   UNL     1       0.742  10.441  20.931  0.00  0.00    +0.000 NA
ATOM      6  C   UNL     1       0.094  11.540  21.404  0.00  0.00    +0.000 A 
ENDROOT
BRANCH   1  10
ATOM      7  C   UNL     1      -3.169  14.500  24.356  0.00  0.00    +0.000 A 
ATOM      8  C   UNL     1      -3.732  13.307  23.910  0.00  0.00    +0.000 A 
ATOM      9  C   UNL     1      -2.932  12.332  23.307  0.00  0.00    +0.000 A 
ATOM     10  C   UNL     1      -1.555  12.541  23.111  0.00  0.00    +0.000 A 
ATOM     11  C   UNL     1      -1.039  13.801  23.462  0.00  0.00    +0.000 A 
ATOM     12  C   UNL     1      -1.827  14.759  24.105  0.00  0.00    +0.000 A 
BRANCH   7  13
ATOM     13  O   UNL     1      -4.021  15.344  25.009  0.00  0.00    +0.000 OA
BRANCH  13  15
ATOM     14  C   UNL     1      -4.931  16.835  23.398  0.00  0.00    +0.000 C 
ATOM     15  C   UNL     1      -3.988  16.706  24.578  0.00  0.00    +0.000 C 
ENDBRANCH  13  15
ENDBRANCH   7  13
ENDBRANCH   1  10
BRANCH   6  16
ATOM     16  C   UNL     1       0.339  12.765  20.601  0.00  0.00    +0.000 A 
ATOM     17  C   UNL     1       1.500  13.535  20.790  0.00  0.00    +0.000 A 
ATOM     18  C   UNL     1       1.749  14.675  20.014  0.00  0.00    +0.000 A 
ATOM     19  C   UNL     1       0.865  15.066  19.009  0.00  0.00    +0.000 A 
ATOM     20  C   UNL     1      -0.298  14.328  18.813  0.00  0.00    +0.000 A 
ATOM     21  C   UNL     1      -0.568  13.214  19.621  0.00  0.00    +0.000 A 
BRANCH  19  22
ATOM     22  O   UNL     1       1.206  16.206  18.339  0.00  0.00    +0.000 OA
BRANCH  22  23
ATOM     23  C   UNL     1       2.599  16.492  18.212  0.00  0.00    +0.000 C 
ATOM     24  C   UNL     1       2.814  17.163  16.867  0.00  0.00    +0.000 C 
ENDBRANCH  22  23
ENDBRANCH  19  22
ENDBRANCH   6  16
BRANCH   4  25
ATOM     25  S   UNL     1       1.375   7.842  21.025  0.00  0.00    +0.000 S 
BRANCH  25  26
ATOM     26  C   UNL     1       1.795   8.423  19.351  0.00  0.00    +0.000 C 
BRANCH  26  27
ATOM     27  C   UNL     1       2.550   7.354  18.570  0.00  0.00    +0.000 C 
ATOM     28  O   UNL     1       3.346   7.639  17.675  0.00  0.00    +0.000 OA
ATOM     29  N   UNL     1       2.281   6.055  18.966  0.00  0.00    +0.000 N 
ATOM     30  H   UNL     1       1.362   5.902  19.366  0.00  0.00    +0.000 HD
BRANCH  29  31
ATOM     31  C   UNL     1       2.910   4.899  18.317  0.00  0.00    +0.000 C 
ATOM     32  C   UNL     1       3.790   4.082  19.278  0.00  0.00    +0.000 C 
ATOM     33  C   UNL     1       2.963   3.437  20.390  0.00  0.00    +0.000 C 
ATOM     34  C   UNL     1       1.877   2.534  19.812  0.00  0.00    +0.000 C 
ATOM     35  C   UNL     1       1.011   3.256  18.782  0.00  0.00    +0.000 C 
ATOM     36  C   UNL     1       1.840   3.972  17.713  0.00  0.00    +0.000 C 
ENDBRANCH  29  31
ENDBRANCH  26  27
ENDBRANCH  25  26
ENDBRANCH   4  25
TORSDOF 10
ENDMDL
MODEL 5
REMARK VINA RESULT:      -6.7      3.393      5.758
REMARK  Name = 
REMARK  12 active torsions:
REMARK  status: ('A' for Active; 'I' for Inactive)
REMARK    1  A    between atoms: C_1  and  C_2
REMARK    2  A    between atoms: C_2  and  O_3
REMARK    3  A    between atoms: O_3  and  C_4
REMARK    4  A    between atoms: C_7  and  C_8
REMARK    5  A    between atoms: C_11  and  S_12
REMARK    6  A    between atoms: S_12  and  C_13
REMARK    7  A    between atoms: C_13  and  C_14
REMARK    8  A    between atoms: N_16  and  C_17
REMARK    9  A    between atoms: C_24  and  C_25
REMARK   10  A    between atoms: C_28  and  O_29
REMARK   11  A    between atoms: O_29  and  C_30
REMARK   12  A    between atoms: C_30  and  C_31
REMARK                            x       y       z     vdW  Elec       q    Type
REMARK                         _______ _______ _______ _____ _____    ______ ____
ROOT
ATOM      1  C   UNL     1      -0.128  12.464  19.272  0.00  0.00    +0.000 A 
ATOM      2  N   UNL     1      -1.112  13.392  19.354  0.00  0.00    +0.000 NA
ATOM      3  N   UNL     1      -2.400  13.018  19.171  0.00  0.00    +0.000 NA
ATOM      4  C   UNL     1      -2.681  11.734  18.872  0.00  0.00    +0.000 A 
ATOM      5  N   UNL     1      -1.765  10.757  18.828  0.00  0.00    +0.000 NA
ATOM      6  C   UNL     1      -0.474  11.123  19.057  0.00  0.00    +0.000 A 
ENDROOT
BRANCH   1  10
ATOM      7  C   UNL     1       3.758  14.270  19.646  0.00  0.00    +0.000 A 
ATOM      8  C   UNL     1       3.246  13.953  18.391  0.00  0.00    +0.000 A 
ATOM      9  C   UNL     1       1.992  13.348  18.272  0.00  0.00    +0.000 A 
ATOM     10  C   UNL     1       1.232  13.020  19.409  0.00  0.00    +0.000 A 
ATOM     11  C   UNL     1       1.825  13.241  20.664  0.00  0.00    +0.000 A 
ATOM     12  C   UNL     1       3.059  13.887  20.786  0.00  0.00    +0.000 A 
BRANCH   7  13
ATOM     13  O   UNL     1       4.948  14.938  19.646  0.00  0.00    +0.000 OA
BRANCH  13  15
ATOM     14  C   UNL     1       6.811  15.908  18.533  0.00  0.00    +0.000 C 
ATOM     15  C   UNL     1       5.651  14.941  18.402  0.00  0.00    +0.000 C 
ENDBRANCH  13  15
ENDBRANCH   7  13
ENDBRANCH   1  10
BRANCH   6  16
ATOM     16  C   UNL     1       0.473   9.979  19.073  0.00  0.00    +0.000 A 
ATOM     17  C   UNL     1       0.729   9.267  20.257  0.00  0.00    +0.000 A 
ATOM     18  C   UNL     1       1.599   8.168  20.271  0.00  0.00    +0.000 A 
ATOM     19  C   UNL     1       2.217   7.729  19.100  0.00  0.00    +0.000 A 
ATOM     20  C   UNL     1       1.990   8.427  17.919  0.00  0.00    +0.000 A 
ATOM     21  C   UNL     1       1.155   9.554  17.916  0.00  0.00    +0.000 A 
BRANCH  19  22
ATOM     22  O   UNL     1       3.060   6.665  19.247  0.00  0.00    +0.000 OA
BRANCH  22  23
ATOM     23  C   UNL     1       3.333   5.888  18.080  0.00  0.00    +0.000 C 
ATOM     24  C   UNL     1       2.317   4.760  18.026  0.00  0.00    +0.000 C 
ENDBRANCH  22  23
ENDBRANCH  19  22
ENDBRANCH   6  16
BRANCH   4  25
ATOM     25  S   UNL     1      -4.360  11.318  18.492  0.00  0.00    +0.000 S 
BRANCH  25  26
ATOM     26  C   UNL     1      -5.194  12.708  19.324  0.00  0.00    +0.000 C 
BRANCH  26  27
ATOM     27  C   UNL     1      -5.159  12.545  20.839  0.00  0.00    +0.000 C 
ATOM     28  O   UNL     1      -5.953  11.816  21.434  0.00  0.00    +0.000 OA
ATOM     29  N   UNL     1      -4.156  13.259  21.471  0.00  0.00    +0.000 N 
ATOM     30  H   UNL     1      -3.861  14.107  21.000  0.00  0.00    +0.000 HD
BRANCH  29  31
ATOM     31  C   UNL     1      -3.981  13.228  22.928  0.00  0.00    +0.000 C 
ATOM     32  C   UNL     1      -3.014  12.125  23.388  0.00  0.00    +0.000 C 
ATOM     33  C   UNL     1      -1.592  12.374  22.883  0.00  0.00    +0.000 C 
ATOM     34  C   UNL     1      -1.072  13.729  23.354  0.00  0.00    +0.000 C 
ATOM     35  C   UNL     1      -2.026  14.869  23.005  0.00  0.00    +0.000 C 
ATOM     36  C   UNL     1      -3.466  14.586  23.438  0.00  0.00    +0.000 C 
ENDBRANCH  29  31
ENDBRANCH  26  27
ENDBRANCH  25  26
ENDBRANCH   4  25
TORSDOF 10
ENDMDL
MODEL 6
REMARK VINA RESULT:      -6.7      1.210      1.631
REMARK  Name = 
REMARK  12 active torsions:
REMARK  status: ('A' for Active; 'I' for Inactive)
REMARK    1  A    between atoms: C_1  and  C_2
REMARK    2  A    between atoms: C_2  and  O_3
REMARK    3  A    between atoms: O_3  and  C_4
REMARK    4  A    between atoms: C_7  and  C_8
REMARK    5  A    between atoms: C_11  and  S_12
REMARK    6  A    between atoms: S_12  and  C_13
REMARK    7  A    between atoms: C_13  and  C_14
REMARK    8  A    between atoms: N_16  and  C_17
REMARK    9  A    between atoms: C_24  and  C_25
REMARK   10  A    between atoms: C_28  and  O_29
REMARK   11  A    between atoms: O_29  and  C_30
REMARK   12  A    between atoms: C_30  and  C_31
REMARK                            x       y       z     vdW  Elec       q    Type
REMARK                         _______ _______ _______ _____ _____    ______ ____
ROOT
ATOM      1  C   UNL     1      -0.316  10.575  20.997  0.00  0.00    +0.000 A 
ATOM      2  N   UNL     1      -0.117  10.831  22.313  0.00  0.00    +0.000 NA
ATOM      3  N   UNL     1      -0.760  11.870  22.896  0.00  0.00    +0.000 NA
ATOM      4  C   UNL     1      -1.559  12.659  22.148  0.00  0.00    +0.000 A 
ATOM      5  N   UNL     1      -1.840  12.432  20.859  0.00  0.00    +0.000 NA
ATOM      6  C   UNL     1      -1.231  11.361  20.282  0.00  0.00    +0.000 A 
ENDROOT
BRANCH   1  10
ATOM      7  C   UNL     1       2.249   7.448  19.534  0.00  0.00    +0.000 A 
ATOM      8  C   UNL     1       1.989   8.570  18.750  0.00  0.00    +0.000 A 
ATOM      9  C   UNL     1       1.139   9.576  19.219  0.00  0.00    +0.000 A 
ATOM     10  C   UNL     1       0.507   9.470  20.471  0.00  0.00    +0.000 A 
ATOM     11  C   UNL     1       0.695   8.273  21.185  0.00  0.00    +0.000 A 
ATOM     12  C   UNL     1       1.578   7.286  20.740  0.00  0.00    +0.000 A 
BRANCH   7  13
ATOM     13  O   UNL     1       3.161   6.571  19.021  0.00  0.00    +0.000 OA
BRANCH  13  15
ATOM     14  C   UNL     1       2.254   4.712  17.849  0.00  0.00    +0.000 C 
ATOM     15  C   UNL     1       2.833   5.188  19.168  0.00  0.00    +0.000 C 
ENDBRANCH  13  15
ENDBRANCH   7  13
ENDBRANCH   1  10
BRANCH   6  16
ATOM     16  C   UNL     1      -1.651  11.124  18.877  0.00  0.00    +0.000 A 
ATOM     17  C   UNL     1      -1.546  12.138  17.909  0.00  0.00    +0.000 A 
ATOM     18  C   UNL     1      -1.913  11.911  16.576  0.00  0.00    +0.000 A 
ATOM     19  C   UNL     1      -2.369  10.660  16.162  0.00  0.00    +0.000 A 
ATOM     20  C   UNL     1      -2.496   9.645  17.104  0.00  0.00    +0.000 A 
ATOM     21  C   UNL     1      -2.171   9.888  18.447  0.00  0.00    +0.000 A 
BRANCH  19  22
ATOM     22  O   UNL     1      -2.718  10.570  14.845  0.00  0.00    +0.000 OA
BRANCH  22  23
ATOM     23  C   UNL     1      -4.036  10.107  14.553  0.00  0.00    +0.000 C 
ATOM     24  C   UNL     1      -4.093   9.772  13.073  0.00  0.00    +0.000 C 
ENDBRANCH  22  23
ENDBRANCH  19  22
ENDBRANCH   6  16
BRANCH   4  25
ATOM     25  S   UNL     1      -2.259  14.094  22.915  0.00  0.00    +0.000 S 
BRANCH  25  26
ATOM     26  C   UNL     1      -2.941  14.905  21.433  0.00  0.00    +0.000 C 
BRANCH  26  27
ATOM     27  C   UNL     1      -4.423  14.590  21.265  0.00  0.00    +0.000 C 
ATOM     28  O   UNL     1      -5.261  14.933  22.099  0.00  0.00    +0.000 OA
ATOM     29  N   UNL     1      -4.738  13.915  20.099  0.00  0.00    +0.000 N 
ATOM     30  H   UNL     1      -4.002  13.328  19.721  0.00  0.00    +0.000 HD
BRANCH  29  31
ATOM     31  C   UNL     1      -6.114  13.521  19.778  0.00  0.00    +0.000 C 
ATOM     32  C   UNL     1      -6.425  13.613  18.274  0.00  0.00    +0.000 C 
ATOM     33  C   UNL     1      -5.592  12.619  17.464  0.00  0.00    +0.000 C 
ATOM     34  C   UNL     1      -5.828  11.189  17.940  0.00  0.00    +0.000 C 
ATOM     35  C   UNL     1      -5.620  11.037  19.445  0.00  0.00    +0.000 C 
ATOM     36  C   UNL     1      -6.390  12.083  20.255  0.00  0.00    +0.000 C 
ENDBRANCH  29  31
ENDBRANCH  26  27
ENDBRANCH  25  26
ENDBRANCH   4  25
TORSDOF 10
ENDMDL
MODEL 7
REMARK VINA RESULT:      -6.7      2.941      4.719
REMARK  Name = 
REMARK  12 active torsions:
REMARK  status: ('A' for Active; 'I' for Inactive)
REMARK    1  A    between atoms: C_1  and  C_2
REMARK    2  A    between atoms: C_2  and  O_3
REMARK    3  A    between atoms: O_3  and  C_4
REMARK    4  A    between atoms: C_7  and  C_8
REMARK    5  A    between atoms: C_11  and  S_12
REMARK    6  A    between atoms: S_12  and  C_13
REMARK    7  A    between atoms: C_13  and  C_14
REMARK    8  A    between atoms: N_16  and  C_17
REMARK    9  A    between atoms: C_24  and  C_25
REMARK   10  A    between atoms: C_28  and  O_29
REMARK   11  A    between atoms: O_29  and  C_30
REMARK   12  A    between atoms: C_30  and  C_31
REMARK                            x       y       z     vdW  Elec       q    Type
REMARK                         _______ _______ _______ _____ _____    ______ ____
ROOT
ATOM      1  C   UNL     1       0.125  10.550  20.546  0.00  0.00    +0.000 A 
ATOM      2  N   UNL     1       0.592  10.838  21.785  0.00  0.00    +0.000 NA
ATOM      3  N   UNL     1       0.031  11.847  22.492  0.00  0.00    +0.000 NA
ATOM      4  C   UNL     1      -0.959  12.575  21.937  0.00  0.00    +0.000 A 
ATOM      5  N   UNL     1      -1.503  12.312  20.742  0.00  0.00    +0.000 NA
ATOM      6  C   UNL     1      -0.972  11.268  20.048  0.00  0.00    +0.000 A 
ENDROOT
BRANCH   1  10
ATOM      7  C   UNL     1       2.491   7.554  18.566  0.00  0.00    +0.000 A 
ATOM      8  C   UNL     1       2.022   8.660  17.861  0.00  0.00    +0.000 A 
ATOM      9  C   UNL     1       1.237   9.622  18.501  0.00  0.00    +0.000 A 
ATOM     10  C   UNL     1       0.878   9.486  19.854  0.00  0.00    +0.000 A 
ATOM     11  C   UNL     1       1.264   8.301  20.505  0.00  0.00    +0.000 A 
ATOM     12  C   UNL     1       2.087   7.359  19.881  0.00  0.00    +0.000 A 
BRANCH   7  13
ATOM     13  O   UNL     1       3.322   6.723  17.871  0.00  0.00    +0.000 OA
BRANCH  13  15
ATOM     14  C   UNL     1       2.709   4.437  17.644  0.00  0.00    +0.000 C 
ATOM     15  C   UNL     1       3.524   5.432  18.449  0.00  0.00    +0.000 C 
ENDBRANCH  13  15
ENDBRANCH   7  13
ENDBRANCH   1  10
BRANCH   6  16
ATOM     16  C   UNL     1      -1.675  10.985  18.771  0.00  0.00    +0.000 A 
ATOM     17  C   UNL     1      -2.445   9.819  18.612  0.00  0.00    +0.000 A 
ATOM     18  C   UNL     1      -3.134   9.561  17.420  0.00  0.00    +0.000 A 
ATOM     19  C   UNL     1      -3.102  10.470  16.362  0.00  0.00    +0.000 A 
ATOM     20  C   UNL     1      -2.336  11.623  16.491  0.00  0.00    +0.000 A 
ATOM     21  C   UNL     1      -1.609  11.857  17.668  0.00  0.00    +0.000 A 
BRANCH  19  22
ATOM     22  O   UNL     1      -3.794  10.095  15.246  0.00  0.00    +0.000 OA
BRANCH  22  23
ATOM     23  C   UNL     1      -3.071  10.056  14.016  0.00  0.00    +0.000 C 
ATOM     24  C   UNL     1      -4.071   9.825  12.897  0.00  0.00    +0.000 C 
ENDBRANCH  22  23
ENDBRANCH  19  22
ENDBRANCH   6  16
BRANCH   4  25
ATOM     25  S   UNL     1      -1.560  13.978  22.835  0.00  0.00    +0.000 S 
BRANCH  25  26
ATOM     26  C   UNL     1      -0.972  15.299  21.728  0.00  0.00    +0.000 C 
BRANCH  26  27
ATOM     27  C   UNL     1       0.542  15.453  21.810  0.00  0.00    +0.000 C 
ATOM     28  O   UNL     1       1.157  15.300  22.866  0.00  0.00    +0.000 OA
ATOM     29  N   UNL     1       1.156  15.753  20.607  0.00  0.00    +0.000 N 
ATOM     30  H   UNL     1       0.584  16.260  19.940  0.00  0.00    +0.000 HD
BRANCH  29  31
ATOM     31  C   UNL     1       2.606  15.948  20.502  0.00  0.00    +0.000 C 
ATOM     32  C   UNL     1       3.366  14.636  20.242  0.00  0.00    +0.000 C 
ATOM     33  C   UNL     1       3.007  14.036  18.882  0.00  0.00    +0.000 C 
ATOM     34  C   UNL     1       3.300  15.019  17.753  0.00  0.00    +0.000 C 
ATOM     35  C   UNL     1       2.645  16.379  17.985  0.00  0.00    +0.000 C 
ATOM     36  C   UNL     1       2.937  16.944  19.377  0.00  0.00    +0.000 C 
ENDBRANCH  29  31
ENDBRANCH  26  27
ENDBRANCH  25  26
ENDBRANCH   4  25
TORSDOF 10
ENDMDL
MODEL 8
REMARK VINA RESULT:      -6.6      2.409      4.234
REMARK  Name = 
REMARK  12 active torsions:
REMARK  status: ('A' for Active; 'I' for Inactive)
REMARK    1  A    between atoms: C_1  and  C_2
REMARK    2  A    between atoms: C_2  and  O_3
REMARK    3  A    between atoms: O_3  and  C_4
REMARK    4  A    between atoms: C_7  and  C_8
REMARK    5  A    between atoms: C_11  and  S_12
REMARK    6  A    between atoms: S_12  and  C_13
REMARK    7  A    between atoms: C_13  and  C_14
REMARK    8  A    between atoms: N_16  and  C_17
REMARK    9  A    between atoms: C_24  and  C_25
REMARK   10  A    between atoms: C_28  and  O_29
REMARK   11  A    between atoms: O_29  and  C_30
REMARK   12  A    between atoms: C_30  and  C_31
REMARK                            x       y       z     vdW  Elec       q    Type
REMARK                         _______ _______ _______ _____ _____    ______ ____
ROOT
ATOM      1  C   UNL     1      -0.012  10.417  20.846  0.00  0.00    +0.000 A 
ATOM      2  N   UNL     1       0.298  10.499  22.163  0.00  0.00    +0.000 NA
ATOM      3  N   UNL     1      -0.396  11.344  22.960  0.00  0.00    +0.000 NA
ATOM      4  C   UNL     1      -1.360  12.120  22.424  0.00  0.00    +0.000 A 
ATOM      5  N   UNL     1      -1.751  12.053  21.145  0.00  0.00    +0.000 NA
ATOM      6  C   UNL     1      -1.086  11.170  20.351  0.00  0.00    +0.000 A 
ENDROOT
BRANCH   1  10
ATOM      7  C   UNL     1       2.407   7.701  18.550  0.00  0.00    +0.000 A 
ATOM      8  C   UNL     1       2.095   7.416  19.877  0.00  0.00    +0.000 A 
ATOM      9  C   UNL     1       1.325   8.309  20.628  0.00  0.00    +0.000 A 
ATOM     10  C   UNL     1       0.875   9.522  20.077  0.00  0.00    +0.000 A 
ATOM     11  C   UNL     1       1.306   9.836  18.776  0.00  0.00    +0.000 A 
ATOM     12  C   UNL     1       2.037   8.926  18.008  0.00  0.00    +0.000 A 
BRANCH   7  13
ATOM     13  O   UNL     1       3.086   6.722  17.883  0.00  0.00    +0.000 OA
BRANCH  13  15
ATOM     14  C   UNL     1       3.441   4.388  17.611  0.00  0.00    +0.000 C 
ATOM     15  C   UNL     1       3.304   5.515  18.616  0.00  0.00    +0.000 C 
ENDBRANCH  13  15
ENDBRANCH   7  13
ENDBRANCH   1  10
BRANCH   6  16
ATOM     16  C   UNL     1      -1.626  11.091  18.970  0.00  0.00    +0.000 A 
ATOM     17  C   UNL     1      -2.423  10.005  18.565  0.00  0.00    +0.000 A 
ATOM     18  C   UNL     1      -2.959   9.940  17.272  0.00  0.00    +0.000 A 
ATOM     19  C   UNL     1      -2.741  10.967  16.353  0.00  0.00    +0.000 A 
ATOM     20  C   UNL     1      -1.943  12.044  16.726  0.00  0.00    +0.000 A 
ATOM     21  C   UNL     1      -1.370  12.084  18.006  0.00  0.00    +0.000 A 
BRANCH  19  22
ATOM     22  O   UNL     1      -3.295  10.777  15.120  0.00  0.00    +0.000 OA
BRANCH  22  23
ATOM     23  C   UNL     1      -3.138   9.487  14.530  0.00  0.00    +0.000 C 
ATOM     24  C   UNL     1      -2.921   9.682  13.039  0.00  0.00    +0.000 C 
ENDBRANCH  22  23
ENDBRANCH  19  22
ENDBRANCH   6  16
BRANCH   4  25
ATOM     25  S   UNL     1      -2.138  13.319  23.471  0.00  0.00    +0.000 S 
BRANCH  25  26
ATOM     26  C   UNL     1      -1.645  14.833  22.588  0.00  0.00    +0.000 C 
BRANCH  26  27
ATOM     27  C   UNL     1      -0.129  14.990  22.566  0.00  0.00    +0.000 C 
ATOM     28  O   UNL     1       0.476  15.595  23.451  0.00  0.00    +0.000 OA
ATOM     29  N   UNL     1       0.497  14.382  21.492  0.00  0.00    +0.000 N 
ATOM     30  H   UNL     1      -0.062  14.300  20.650  0.00  0.00    +0.000 HD
BRANCH  29  31
ATOM     31  C   UNL     1       1.951  14.440  21.306  0.00  0.00    +0.000 C 
ATOM     32  C   UNL     1       2.495  13.257  20.487  0.00  0.00    +0.000 C 
ATOM     33  C   UNL     1       1.969  13.276  19.051  0.00  0.00    +0.000 C 
ATOM     34  C   UNL     1       2.333  14.582  18.351  0.00  0.00    +0.000 C 
ATOM     35  C   UNL     1       1.897  15.808  19.150  0.00  0.00    +0.000 C 
ATOM     36  C   UNL     1       2.353  15.753  20.610  0.00  0.00    +0.000 C 
ENDBRANCH  29  31
ENDBRANCH  26  27
ENDBRANCH  25  26
ENDBRANCH   4  25
TORSDOF 10
ENDMDL
MODEL 9
REMARK VINA RESULT:      -6.6      3.648      9.003
REMARK  Name = 
REMARK  12 active torsions:
REMARK  status: ('A' for Active; 'I' for Inactive)
REMARK    1  A    between atoms: C_1  and  C_2
REMARK    2  A    between atoms: C_2  and  O_3
REMARK    3  A    between atoms: O_3  and  C_4
REMARK    4  A    between atoms: C_7  and  C_8
REMARK    5  A    between atoms: C_11  and  S_12
REMARK    6  A    between atoms: S_12  and  C_13
REMARK    7  A    between atoms: C_13  and  C_14
REMARK    8  A    between atoms: N_16  and  C_17
REMARK    9  A    between atoms: C_24  and  C_25
REMARK   10  A    between atoms: C_28  and  O_29
REMARK   11  A    between atoms: O_29  and  C_30
REMARK   12  A    between atoms: C_30  and  C_31
REMARK                            x       y       z     vdW  Elec       q    Type
REMARK                         _______ _______ _______ _____ _____    ______ ____
ROOT
ATOM      1  C   UNL     1      -0.838  11.451  22.508  0.00  0.00    +0.000 A 
ATOM      2  N   UNL     1      -0.895  10.279  23.187  0.00  0.00    +0.000 NA
ATOM      3  N   UNL     1      -0.157   9.226  22.764  0.00  0.00    +0.000 NA
ATOM      4  C   UNL     1       0.595   9.347  21.652  0.00  0.00    +0.000 A 
ATOM      5  N   UNL     1       0.738  10.488  20.966  0.00  0.00    +0.000 NA
ATOM      6  C   UNL     1       0.034  11.562  21.415  0.00  0.00    +0.000 A 
ENDROOT
BRANCH   1  10
ATOM      7  C   UNL     1      -3.487  14.569  23.833  0.00  0.00    +0.000 A 
ATOM      8  C   UNL     1      -2.109  14.707  23.978  0.00  0.00    +0.000 A 
ATOM      9  C   UNL     1      -1.251  13.685  23.565  0.00  0.00    +0.000 A 
ATOM     10  C   UNL     1      -1.752  12.487  23.024  0.00  0.00    +0.000 A 
ATOM     11  C   UNL     1      -3.149  12.329  23.001  0.00  0.00    +0.000 A 
ATOM     12  C   UNL     1      -4.009  13.366  23.371  0.00  0.00    +0.000 A 
BRANCH   7  13
ATOM     13  O   UNL     1      -4.228  15.660  24.184  0.00  0.00    +0.000 OA
BRANCH  13  15
ATOM     14  C   UNL     1      -5.744  17.285  23.338  0.00  0.00    +0.000 C 
ATOM     15  C   UNL     1      -4.374  16.656  23.170  0.00  0.00    +0.000 C 
ENDBRANCH  13  15
ENDBRANCH   7  13
ENDBRANCH   1  10
BRANCH   6  16
ATOM     16  C   UNL     1       0.304  12.809  20.656  0.00  0.00    +0.000 A 
ATOM     17  C   UNL     1      -0.477  13.162  19.541  0.00  0.00    +0.000 A 
ATOM     18  C   UNL     1      -0.245  14.353  18.840  0.00  0.00    +0.000 A 
ATOM     19  C   UNL     1       0.752  15.241  19.244  0.00  0.00    +0.000 A 
ATOM     20  C   UNL     1       1.546  14.906  20.335  0.00  0.00    +0.000 A 
ATOM     21  C   UNL     1       1.343  13.692  21.008  0.00  0.00    +0.000 A 
BRANCH  19  22
ATOM     22  O   UNL     1       0.896  16.353  18.466  0.00  0.00    +0.000 OA
BRANCH  22  23
ATOM     23  C   UNL     1       0.086  17.483  18.793  0.00  0.00    +0.000 C 
ATOM     24  C   UNL     1      -0.666  17.893  17.539  0.00  0.00    +0.000 C 
ENDBRANCH  22  23
ENDBRANCH  19  22
ENDBRANCH   6  16
BRANCH   4  25
ATOM     25  S   UNL     1       1.425   7.902  21.050  0.00  0.00    +0.000 S 
BRANCH  25  26
ATOM     26  C   UNL     1       1.769   8.458  19.350  0.00  0.00    +0.000 C 
BRANCH  26  27
ATOM     27  C   UNL     1       2.557   7.408  18.576  0.00  0.00    +0.000 C 
ATOM     28  O   UNL     1       3.362   7.714  17.696  0.00  0.00    +0.000 OA
ATOM     29  N   UNL     1       2.308   6.102  18.962  0.00  0.00    +0.000 N 
ATOM     30  H   UNL     1       1.385   5.929  19.345  0.00  0.00    +0.000 HD
BRANCH  29  31
ATOM     31  C   UNL     1       2.970   4.962  18.318  0.00  0.00    +0.000 C 
ATOM     32  C   UNL     1       3.807   4.126  19.300  0.00  0.00    +0.000 C 
ATOM     33  C   UNL     1       2.931   3.454  20.358  0.00  0.00    +0.000 C 
ATOM     34  C   UNL     1       1.877   2.562  19.711  0.00  0.00    +0.000 C 
ATOM     35  C   UNL     1       1.057   3.305  18.657  0.00  0.00    +0.000 C 
ATOM     36  C   UNL     1       1.933   4.046  17.644  0.00  0.00    +0.000 C 
ENDBRANCH  29  31
ENDBRANCH  26  27
ENDBRANCH  25  26
ENDBRANCH   4  25
TORSDOF 10
ENDMDL
