MODEL 1
REMARK VINA RESULT:      -7.4      0.000      0.000
REMARK  Name = 
REMARK  9 active torsions:
REMARK  status: ('A' for Active; 'I' for Inactive)
REMARK    1  A    between atoms: C_1  and  O_2
REMARK    2  A    between atoms: O_2  and  C_3
REMARK    3  A    between atoms: C_6  and  N_7
REMARK    4  A    between atoms: C_8  and  C_10
REMARK    5  A    between atoms: C_19  and  O_21
REMARK    6  A    between atoms: O_21  and  C_22
REMARK    7  A    between atoms: C_22  and  C_23
REMARK    8  A    between atoms: C_22  and  C_24
REMARK    9  A    between atoms: C_22  and  C_25
REMARK                            x       y       z     vdW  Elec       q    Type
REMARK                         _______ _______ _______ _____ _____    ______ ____
ROOT
ATOM      1  C   UNL     1       3.860   6.301  18.040  0.00  0.00    +0.000 C 
ATOM      2  C   UNL     1       4.821   7.085  17.092  0.00  0.00    +0.000 C 
ATOM      3  C   UNL     1       5.311   6.002  16.184  0.00  0.00    +0.000 A 
ATOM      4  C   UNL     1       6.198   6.076  15.126  0.00  0.00    +0.000 A 
ATOM      5  C   UNL     1       6.659   4.881  14.567  0.00  0.00    +0.000 A 
ATOM      6  C   UNL     1       6.260   3.647  15.101  0.00  0.00    +0.000 A 
ATOM      7  C   UNL     1       5.255   3.594  16.066  0.00  0.00    +0.000 A 
ATOM      8  C   UNL     1       4.730   4.789  16.527  0.00  0.00    +0.000 A 
ATOM      9  N   UNL     1       3.599   5.028  17.340  0.00  0.00    +0.000 N 
ATOM     10  C   UNL     1       2.623   4.095  17.530  0.00  0.00    +0.000 C 
ATOM     11  O   UNL     1       2.558   3.040  16.911  0.00  0.00    +0.000 OA
ENDROOT
BRANCH   1  13
ATOM     12  N   UNL     1       2.570   7.480  19.785  0.00  0.00    +0.000 N 
ATOM     13  C   UNL     1       2.735   7.243  18.430  0.00  0.00    +0.000 C 
ATOM     14  O   UNL     1       1.966   7.628  17.549  0.00  0.00    +0.000 OA
ATOM     15  H   UNL     1       3.326   7.198  20.398  0.00  0.00    +0.000 HD
BRANCH  12  19
ATOM     16  C   UNL     1      -0.287  10.002  21.605  0.00  0.00    +0.000 A 
ATOM     17  C   UNL     1       0.131  10.268  20.303  0.00  0.00    +0.000 A 
ATOM     18  C   UNL     1       1.030   9.412  19.671  0.00  0.00    +0.000 A 
ATOM     19  C   UNL     1       1.557   8.301  20.336  0.00  0.00    +0.000 A 
ATOM     20  C   UNL     1       1.097   8.013  21.622  0.00  0.00    +0.000 A 
ATOM     21  C   UNL     1       0.190   8.872  22.262  0.00  0.00    +0.000 A 
BRANCH  16  23
ATOM     22  C   UNL     1      -0.640  12.295  22.077  0.00  0.00    +0.000 C 
ATOM     23  O   UNL     1      -1.111  10.955  22.132  0.00  0.00    +0.000 OA
ENDBRANCH  16  23
ENDBRANCH  12  19
ENDBRANCH   1  13
BRANCH  10  24
ATOM     24  O   UNL     1       1.643   4.498  18.399  0.00  0.00    +0.000 OA
BRANCH  24  25
ATOM     25  C   UNL     1       1.451   3.745  19.637  0.00  0.00    +0.000 C 
ATOM     26  C   UNL     1       2.798   3.430  20.304  0.00  0.00    +0.000 C 
ATOM     27  C   UNL     1       0.663   4.668  20.584  0.00  0.00    +0.000 C 
ATOM     28  C   UNL     1       0.605   2.476  19.425  0.00  0.00    +0.000 C 
ENDBRANCH  24  25
ENDBRANCH  10  24
TORSDOF 5
ENDMDL
MODEL 2
REMARK VINA RESULT:      -7.4      1.228      1.835
REMARK  Name = 
REMARK  9 active torsions:
REMARK  status: ('A' for Active; 'I' for Inactive)
REMARK    1  A    between atoms: C_1  and  O_2
REMARK    2  A    between atoms: O_2  and  C_3
REMARK    3  A    between atoms: C_6  and  N_7
REMARK    4  A    between atoms: C_8  and  C_10
REMARK    5  A    between atoms: C_19  and  O_21
REMARK    6  A    between atoms: O_21  and  C_22
REMARK    7  A    between atoms: C_22  and  C_23
REMARK    8  A    between atoms: C_22  and  C_24
REMARK    9  A    between atoms: C_22  and  C_25
REMARK                            x       y       z     vdW  Elec       q    Type
REMARK                         _______ _______ _______ _____ _____    ______ ____
ROOT
ATOM      1  C   UNL     1       3.994   5.831  18.379  0.00  0.00    +0.000 C 
ATOM      2  C   UNL     1       4.948   6.767  17.574  0.00  0.00    +0.000 C 
ATOM      3  C   UNL     1       5.340   5.895  16.424  0.00  0.00    +0.000 A 
ATOM      4  C   UNL     1       6.180   6.168  15.359  0.00  0.00    +0.000 A 
ATOM      5  C   UNL     1       6.554   5.109  14.527  0.00  0.00    +0.000 A 
ATOM      6  C   UNL     1       6.119   3.804  14.799  0.00  0.00    +0.000 A 
ATOM      7  C   UNL     1       5.159   3.577  15.784  0.00  0.00    +0.000 A 
ATOM      8  C   UNL     1       4.716   4.659  16.524  0.00  0.00    +0.000 A 
ATOM      9  N   UNL     1       3.638   4.755  17.433  0.00  0.00    +0.000 N 
ATOM     10  C   UNL     1       2.626   3.841  17.468  0.00  0.00    +0.000 C 
ATOM     11  O   UNL     1       2.480   2.953  16.637  0.00  0.00    +0.000 OA
ENDROOT
BRANCH   1  13
ATOM     12  N   UNL     1       2.544   7.829  18.319  0.00  0.00    +0.000 N 
ATOM     13  C   UNL     1       2.937   6.705  19.028  0.00  0.00    +0.000 C 
ATOM     14  O   UNL     1       2.595   6.446  20.182  0.00  0.00    +0.000 OA
ATOM     15  H   UNL     1       2.811   7.876  17.343  0.00  0.00    +0.000 HD
BRANCH  12  19
ATOM     16  C   UNL     1      -0.461  10.511  19.588  0.00  0.00    +0.000 A 
ATOM     17  C   UNL     1       0.300   9.836  20.539  0.00  0.00    +0.000 A 
ATOM     18  C   UNL     1       1.331   8.991  20.134  0.00  0.00    +0.000 A 
ATOM     19  C   UNL     1       1.597   8.775  18.779  0.00  0.00    +0.000 A 
ATOM     20  C   UNL     1       0.862   9.493  17.833  0.00  0.00    +0.000 A 
ATOM     21  C   UNL     1      -0.176  10.345  18.236  0.00  0.00    +0.000 A 
BRANCH  16  23
ATOM     22  C   UNL     1      -2.332  11.904  19.179  0.00  0.00    +0.000 C 
ATOM     23  O   UNL     1      -1.484  11.249  20.113  0.00  0.00    +0.000 OA
ENDBRANCH  16  23
ENDBRANCH  12  19
ENDBRANCH   1  13
BRANCH  10  24
ATOM     24  O   UNL     1       1.709   4.079  18.457  0.00  0.00    +0.000 OA
BRANCH  24  25
ATOM     25  C   UNL     1       1.578   3.106  19.541  0.00  0.00    +0.000 C 
ATOM     26  C   UNL     1       0.955   3.753  20.788  0.00  0.00    +0.000 C 
ATOM     27  C   UNL     1       0.605   2.027  19.036  0.00  0.00    +0.000 C 
ATOM     28  C   UNL     1       2.912   2.408  19.864  0.00  0.00    +0.000 C 
ENDBRANCH  24  25
ENDBRANCH  10  24
TORSDOF 5
ENDMDL
MODEL 3
REMARK VINA RESULT:      -7.3      1.904      2.017
REMARK  Name = 
REMARK  9 active torsions:
REMARK  status: ('A' for Active; 'I' for Inactive)
REMARK    1  A    between atoms: C_1  and  O_2
REMARK    2  A    between atoms: O_2  and  C_3
REMARK    3  A    between atoms: C_6  and  N_7
REMARK    4  A    between atoms: C_8  and  C_10
REMARK    5  A    between atoms: C_19  and  O_21
REMARK    6  A    between atoms: O_21  and  C_22
REMARK    7  A    between atoms: C_22  and  C_23
REMARK    8  A    between atoms: C_22  and  C_24
REMARK    9  A    between atoms: C_22  and  C_25
REMARK                            x       y       z     vdW  Elec       q    Type
REMARK                         _______ _______ _______ _____ _____    ______ ____
ROOT
ATOM      1  C   UNL     1       4.009   6.190  18.085  0.00  0.00    +0.000 C 
ATOM      2  C   UNL     1       4.971   7.012  17.171  0.00  0.00    +0.000 C 
ATOM      3  C   UNL     1       5.395   5.987  16.168  0.00  0.00    +0.000 A 
ATOM      4  C   UNL     1       6.254   6.113  15.092  0.00  0.00    +0.000 A 
ATOM      5  C   UNL     1       6.655   4.949  14.429  0.00  0.00    +0.000 A 
ATOM      6  C   UNL     1       6.226   3.692  14.878  0.00  0.00    +0.000 A 
ATOM      7  C   UNL     1       5.246   3.599  15.866  0.00  0.00    +0.000 A 
ATOM      8  C   UNL     1       4.779   4.772  16.433  0.00  0.00    +0.000 A 
ATOM      9  N   UNL     1       3.681   4.985  17.297  0.00  0.00    +0.000 N 
ATOM     10  C   UNL     1       2.676   4.075  17.444  0.00  0.00    +0.000 C 
ATOM     11  O   UNL     1       2.555   3.075  16.748  0.00  0.00    +0.000 OA
ENDROOT
BRANCH   1  13
ATOM     12  N   UNL     1       2.578   8.172  17.728  0.00  0.00    +0.000 N 
ATOM     13  C   UNL     1       2.931   7.138  18.580  0.00  0.00    +0.000 C 
ATOM     14  O   UNL     1       2.536   7.016  19.740  0.00  0.00    +0.000 OA
ATOM     15  H   UNL     1       2.889   8.104  16.766  0.00  0.00    +0.000 HD
BRANCH  12  19
ATOM     16  C   UNL     1      -0.193  11.278  18.444  0.00  0.00    +0.000 A 
ATOM     17  C   UNL     1      -0.657  10.017  18.077  0.00  0.00    +0.000 A 
ATOM     18  C   UNL     1       0.243   8.970  17.893  0.00  0.00    +0.000 A 
ATOM     19  C   UNL     1       1.619   9.168  18.032  0.00  0.00    +0.000 A 
ATOM     20  C   UNL     1       2.074  10.421  18.447  0.00  0.00    +0.000 A 
ATOM     21  C   UNL     1       1.171  11.478  18.635  0.00  0.00    +0.000 A 
BRANCH  16  23
ATOM     22  C   UNL     1      -2.472  11.831  18.122  0.00  0.00    +0.000 C 
ATOM     23  O   UNL     1      -1.168  12.231  18.521  0.00  0.00    +0.000 OA
ENDBRANCH  16  23
ENDBRANCH  12  19
ENDBRANCH   1  13
BRANCH  10  24
ATOM     24  O   UNL     1       1.737   4.443  18.370  0.00  0.00    +0.000 OA
BRANCH  24  25
ATOM     25  C   UNL     1       1.505   3.569  19.520  0.00  0.00    +0.000 C 
ATOM     26  C   UNL     1       2.833   3.059  20.099  0.00  0.00    +0.000 C 
ATOM     27  C   UNL     1       0.827   4.439  20.592  0.00  0.00    +0.000 C 
ATOM     28  C   UNL     1       0.542   2.413  19.190  0.00  0.00    +0.000 C 
ENDBRANCH  24  25
ENDBRANCH  10  24
TORSDOF 5
ENDMDL
MODEL 4
REMARK VINA RESULT:      -7.2      1.205      1.620
REMARK  Name = 
REMARK  9 active torsions:
REMARK  status: ('A' for Active; 'I' for Inactive)
REMARK    1  A    between atoms: C_1  and  O_2
REMARK    2  A    between atoms: O_2  and  C_3
REMARK    3  A    between atoms: C_6  and  N_7
REMARK    4  A    between atoms: C_8  and  C_10
REMARK    5  A    between atoms: C_19  and  O_21
REMARK    6  A    between atoms: O_21  and  C_22
REMARK    7  A    between atoms: C_22  and  C_23
REMARK    8  A    between atoms: C_22  and  C_24
REMARK    9  A    between atoms: C_22  and  C_25
REMARK                            x       y       z     vdW  Elec       q    Type
REMARK                         _______ _______ _______ _____ _____    ______ ____
ROOT
ATOM      1  C   UNL     1       3.911   5.877  18.408  0.00  0.00    +0.000 C 
ATOM      2  C   UNL     1       4.839   6.832  17.595  0.00  0.00    +0.000 C 
ATOM      3  C   UNL     1       5.257   5.959  16.454  0.00  0.00    +0.000 A 
ATOM      4  C   UNL     1       6.090   6.245  15.388  0.00  0.00    +0.000 A 
ATOM      5  C   UNL     1       6.495   5.189  14.567  0.00  0.00    +0.000 A 
ATOM      6  C   UNL     1       6.097   3.875  14.852  0.00  0.00    +0.000 A 
ATOM      7  C   UNL     1       5.142   3.631  15.838  0.00  0.00    +0.000 A 
ATOM      8  C   UNL     1       4.668   4.708  16.566  0.00  0.00    +0.000 A 
ATOM      9  N   UNL     1       3.586   4.782  17.473  0.00  0.00    +0.000 N 
ATOM     10  C   UNL     1       2.600   3.841  17.516  0.00  0.00    +0.000 C 
ATOM     11  O   UNL     1       2.480   2.941  16.694  0.00  0.00    +0.000 OA
ENDROOT
BRANCH   1  13
ATOM     12  N   UNL     1       2.442   7.862  18.352  0.00  0.00    +0.000 N 
ATOM     13  C   UNL     1       2.828   6.728  19.048  0.00  0.00    +0.000 C 
ATOM     14  O   UNL     1       2.460   6.442  20.187  0.00  0.00    +0.000 OA
ATOM     15  H   UNL     1       2.734   7.931  17.384  0.00  0.00    +0.000 HD
BRANCH  12  19
ATOM     16  C   UNL     1      -0.259  10.763  19.809  0.00  0.00    +0.000 A 
ATOM     17  C   UNL     1      -0.133  10.573  18.435  0.00  0.00    +0.000 A 
ATOM     18  C   UNL     1       0.712   9.581  17.943  0.00  0.00    +0.000 A 
ATOM     19  C   UNL     1       1.474   8.790  18.806  0.00  0.00    +0.000 A 
ATOM     20  C   UNL     1       1.307   8.952  20.183  0.00  0.00    +0.000 A 
ATOM     21  C   UNL     1       0.456   9.949  20.683  0.00  0.00    +0.000 A 
BRANCH  16  23
ATOM     22  C   UNL     1      -2.191  12.043  19.324  0.00  0.00    +0.000 C 
ATOM     23  O   UNL     1      -1.062  11.812  20.156  0.00  0.00    +0.000 OA
ENDBRANCH  16  23
ENDBRANCH  12  19
ENDBRANCH   1  13
BRANCH  10  24
ATOM     24  O   UNL     1       1.675   4.063  18.502  0.00  0.00    +0.000 OA
BRANCH  24  25
ATOM     25  C   UNL     1       1.508   3.054  19.547  0.00  0.00    +0.000 C 
ATOM     26  C   UNL     1       0.604   1.909  19.065  0.00  0.00    +0.000 C 
ATOM     27  C   UNL     1       2.907   2.469  19.808  0.00  0.00    +0.000 C 
ATOM     28  C   UNL     1       1.008   3.660  20.871  0.00  0.00    +0.000 C 
ENDBRANCH  24  25
ENDBRANCH  10  24
TORSDOF 5
ENDMDL
MODEL 5
REMARK VINA RESULT:      -7.0      0.335      1.256
REMARK  Name = 
REMARK  9 active torsions:
REMARK  status: ('A' for Active; 'I' for Inactive)
REMARK    1  A    between atoms: C_1  and  O_2
REMARK    2  A    between atoms: O_2  and  C_3
REMARK    3  A    between atoms: C_6  and  N_7
REMARK    4  A    between atoms: C_8  and  C_10
REMARK    5  A    between atoms: C_19  and  O_21
REMARK    6  A    between atoms: O_21  and  C_22
REMARK    7  A    between atoms: C_22  and  C_23
REMARK    8  A    between atoms: C_22  and  C_24
REMARK    9  A    between atoms: C_22  and  C_25
REMARK                            x       y       z     vdW  Elec       q    Type
REMARK                         _______ _______ _______ _____ _____    ______ ____
ROOT
ATOM      1  C   UNL     1       3.834   6.158  18.054  0.00  0.00    +0.000 C 
ATOM      2  C   UNL     1       4.808   6.973  17.147  0.00  0.00    +0.000 C 
ATOM      3  C   UNL     1       5.295   5.925  16.197  0.00  0.00    +0.000 A 
ATOM      4  C   UNL     1       6.190   6.037  15.149  0.00  0.00    +0.000 A 
ATOM      5  C   UNL     1       6.646   4.862  14.543  0.00  0.00    +0.000 A 
ATOM      6  C   UNL     1       6.233   3.610  15.022  0.00  0.00    +0.000 A 
ATOM      7  C   UNL     1       5.221   3.525  15.977  0.00  0.00    +0.000 A 
ATOM      8  C   UNL     1       4.702   4.704  16.484  0.00  0.00    +0.000 A 
ATOM      9  N   UNL     1       3.568   4.917  17.299  0.00  0.00    +0.000 N 
ATOM     10  C   UNL     1       2.582   3.986  17.443  0.00  0.00    +0.000 C 
ATOM     11  O   UNL     1       2.513   2.959  16.780  0.00  0.00    +0.000 OA
ENDROOT
BRANCH   1  13
ATOM     12  N   UNL     1       2.702   7.481  19.806  0.00  0.00    +0.000 N 
ATOM     13  C   UNL     1       2.714   7.092  18.476  0.00  0.00    +0.000 C 
ATOM     14  O   UNL     1       1.823   7.338  17.663  0.00  0.00    +0.000 OA
ATOM     15  H   UNL     1       3.541   7.305  20.346  0.00  0.00    +0.000 HD
BRANCH  12  19
ATOM     16  C   UNL     1      -0.371   9.942  21.334  0.00  0.00    +0.000 A 
ATOM     17  C   UNL     1      -0.026   8.776  22.013  0.00  0.00    +0.000 A 
ATOM     18  C   UNL     1       1.023   7.985  21.550  0.00  0.00    +0.000 A 
ATOM     19  C   UNL     1       1.719   8.319  20.386  0.00  0.00    +0.000 A 
ATOM     20  C   UNL     1       1.400   9.514  19.737  0.00  0.00    +0.000 A 
ATOM     21  C   UNL     1       0.346  10.314  20.200  0.00  0.00    +0.000 A 
BRANCH  16  23
ATOM     22  C   UNL     1      -1.208  11.510  22.899  0.00  0.00    +0.000 C 
ATOM     23  O   UNL     1      -1.460  10.586  21.848  0.00  0.00    +0.000 OA
ENDBRANCH  16  23
ENDBRANCH  12  19
ENDBRANCH   1  13
BRANCH  10  24
ATOM     24  O   UNL     1       1.599   4.360  18.321  0.00  0.00    +0.000 OA
BRANCH  24  25
ATOM     25  C   UNL     1       1.491   3.652  19.596  0.00  0.00    +0.000 C 
ATOM     26  C   UNL     1       0.870   4.553  20.674  0.00  0.00    +0.000 C 
ATOM     27  C   UNL     1       0.529   2.476  19.355  0.00  0.00    +0.000 C 
ATOM     28  C   UNL     1       2.837   3.059  20.051  0.00  0.00    +0.000 C 
ENDBRANCH  24  25
ENDBRANCH  10  24
TORSDOF 5
ENDMDL
MODEL 6
REMARK VINA RESULT:      -6.7      3.963      7.353
REMARK  Name = 
REMARK  9 active torsions:
REMARK  status: ('A' for Active; 'I' for Inactive)
REMARK    1  A    between atoms: C_1  and  O_2
REMARK    2  A    between atoms: O_2  and  C_3
REMARK    3  A    between atoms: C_6  and  N_7
REMARK    4  A    between atoms: C_8  and  C_10
REMARK    5  A    between atoms: C_19  and  O_21
REMARK    6  A    between atoms: O_21  and  C_22
REMARK    7  A    between atoms: C_22  and  C_23
REMARK    8  A    between atoms: C_22  and  C_24
REMARK    9  A    between atoms: C_22  and  C_25
REMARK                            x       y       z     vdW  Elec       q    Type
REMARK                         _______ _______ _______ _____ _____    ______ ____
ROOT
ATOM      1  C   UNL     1      -0.248   9.841  20.963  0.00  0.00    +0.000 C 
ATOM      2  C   UNL     1       0.176   8.441  21.504  0.00  0.00    +0.000 C 
ATOM      3  C   UNL     1       1.197   8.016  20.497  0.00  0.00    +0.000 A 
ATOM      4  C   UNL     1       1.939   6.850  20.436  0.00  0.00    +0.000 A 
ATOM      5  C   UNL     1       2.674   6.599  19.274  0.00  0.00    +0.000 A 
ATOM      6  C   UNL     1       2.620   7.489  18.191  0.00  0.00    +0.000 A 
ATOM      7  C   UNL     1       1.988   8.724  18.333  0.00  0.00    +0.000 A 
ATOM      8  C   UNL     1       1.360   9.001  19.534  0.00  0.00    +0.000 A 
ATOM      9  N   UNL     1       0.819  10.216  20.014  0.00  0.00    +0.000 N 
ATOM     10  C   UNL     1       1.144  11.426  19.476  0.00  0.00    +0.000 C 
ATOM     11  O   UNL     1       2.027  11.587  18.643  0.00  0.00    +0.000 OA
ENDROOT
BRANCH   1  13
ATOM     12  N   UNL     1      -1.571  11.669  21.967  0.00  0.00    +0.000 N 
ATOM     13  C   UNL     1      -0.592  10.709  22.161  0.00  0.00    +0.000 C 
ATOM     14  O   UNL     1       0.098  10.602  23.174  0.00  0.00    +0.000 OA
ATOM     15  H   UNL     1      -2.139  11.588  21.131  0.00  0.00    +0.000 HD
BRANCH  12  19
ATOM     16  C   UNL     1      -2.841  14.588  24.742  0.00  0.00    +0.000 A 
ATOM     17  C   UNL     1      -3.688  13.528  24.428  0.00  0.00    +0.000 A 
ATOM     18  C   UNL     1      -3.259  12.529  23.557  0.00  0.00    +0.000 A 
ATOM     19  C   UNL     1      -1.999  12.587  22.955  0.00  0.00    +0.000 A 
ATOM     20  C   UNL     1      -1.138  13.627  23.312  0.00  0.00    +0.000 A 
ATOM     21  C   UNL     1      -1.564  14.634  24.190  0.00  0.00    +0.000 A 
BRANCH  16  23
ATOM     22  C   UNL     1      -3.927  16.687  24.897  0.00  0.00    +0.000 C 
ATOM     23  O   UNL     1      -3.407  15.534  25.548  0.00  0.00    +0.000 OA
ENDBRANCH  16  23
ENDBRANCH  12  19
ENDBRANCH   1  13
BRANCH  10  24
ATOM     24  O   UNL     1       0.469  12.475  20.043  0.00  0.00    +0.000 OA
BRANCH  24  25
ATOM     25  C   UNL     1       0.009  13.562  19.179  0.00  0.00    +0.000 C 
ATOM     26  C   UNL     1      -0.753  13.012  17.963  0.00  0.00    +0.000 C 
ATOM     27  C   UNL     1      -0.980  14.389  20.018  0.00  0.00    +0.000 C 
ATOM     28  C   UNL     1       1.155  14.501  18.761  0.00  0.00    +0.000 C 
ENDBRANCH  24  25
ENDBRANCH  10  24
TORSDOF 5
ENDMDL
MODEL 7
REMARK VINA RESULT:      -6.6      1.547      1.757
REMARK  Name = 
REMARK  9 active torsions:
REMARK  status: ('A' for Active; 'I' for Inactive)
REMARK    1  A    between atoms: C_1  and  O_2
REMARK    2  A    between atoms: O_2  and  C_3
REMARK    3  A    between atoms: C_6  and  N_7
REMARK    4  A    between atoms: C_8  and  C_10
REMARK    5  A    between atoms: C_19  and  O_21
REMARK    6  A    between atoms: O_21  and  C_22
REMARK    7  A    between atoms: C_22  and  C_23
REMARK    8  A    between atoms: C_22  and  C_24
REMARK    9  A    between atoms: C_22  and  C_25
REMARK                            x       y       z     vdW  Elec       q    Type
REMARK                         _______ _______ _______ _____ _____    ______ ____
ROOT
ATOM      1  C   UNL     1       4.100   7.076  17.676  0.00  0.00    +0.000 C 
ATOM      2  C   UNL     1       4.378   7.147  16.142  0.00  0.00    +0.000 C 
ATOM      3  C   UNL     1       5.303   5.989  15.942  0.00  0.00    +0.000 A 
ATOM      4  C   UNL     1       5.903   5.534  14.782  0.00  0.00    +0.000 A 
ATOM      5  C   UNL     1       6.898   4.558  14.894  0.00  0.00    +0.000 A 
ATOM      6  C   UNL     1       7.298   4.093  16.155  0.00  0.00    +0.000 A 
ATOM      7  C   UNL     1       6.579   4.455  17.294  0.00  0.00    +0.000 A 
ATOM      8  C   UNL     1       5.524   5.337  17.146  0.00  0.00    +0.000 A 
ATOM      9  N   UNL     1       4.527   5.720  18.073  0.00  0.00    +0.000 N 
ATOM     10  C   UNL     1       4.252   4.995  19.195  0.00  0.00    +0.000 C 
ATOM     11  O   UNL     1       4.728   3.891  19.427  0.00  0.00    +0.000 OA
ENDROOT
BRANCH   1  13
ATOM     12  N   UNL     1       2.544   8.765  18.585  0.00  0.00    +0.000 N 
ATOM     13  C   UNL     1       2.681   7.566  17.906  0.00  0.00    +0.000 C 
ATOM     14  O   UNL     1       1.751   6.819  17.601  0.00  0.00    +0.000 OA
ATOM     15  H   UNL     1       3.375   9.337  18.686  0.00  0.00    +0.000 HD
BRANCH  12  19
ATOM     16  C   UNL     1      -1.032  10.719  19.695  0.00  0.00    +0.000 A 
ATOM     17  C   UNL     1      -0.714  10.587  18.345  0.00  0.00    +0.000 A 
ATOM     18  C   UNL     1       0.434   9.895  17.965  0.00  0.00    +0.000 A 
ATOM     19  C   UNL     1       1.303   9.359  18.918  0.00  0.00    +0.000 A 
ATOM     20  C   UNL     1       0.953   9.453  20.267  0.00  0.00    +0.000 A 
ATOM     21  C   UNL     1      -0.202  10.147  20.655  0.00  0.00    +0.000 A 
BRANCH  16  23
ATOM     22  C   UNL     1      -1.986  12.542  20.867  0.00  0.00    +0.000 C 
ATOM     23  O   UNL     1      -2.141  11.479  19.935  0.00  0.00    +0.000 OA
ENDBRANCH  16  23
ENDBRANCH  12  19
ENDBRANCH   1  13
BRANCH  10  24
ATOM     24  O   UNL     1       3.294   5.564  19.992  0.00  0.00    +0.000 OA
BRANCH  24  25
ATOM     25  C   UNL     1       2.111   4.777  20.338  0.00  0.00    +0.000 C 
ATOM     26  C   UNL     1       2.387   3.876  21.552  0.00  0.00    +0.000 C 
ATOM     27  C   UNL     1       1.024   5.788  20.741  0.00  0.00    +0.000 C 
ATOM     28  C   UNL     1       1.571   3.975  19.140  0.00  0.00    +0.000 C 
ENDBRANCH  24  25
ENDBRANCH  10  24
TORSDOF 5
ENDMDL
MODEL 8
REMARK VINA RESULT:      -6.5      3.715      6.980
REMARK  Name = 
REMARK  9 active torsions:
REMARK  status: ('A' for Active; 'I' for Inactive)
REMARK    1  A    between atoms: C_1  and  O_2
REMARK    2  A    between atoms: O_2  and  C_3
REMARK    3  A    between atoms: C_6  and  N_7
REMARK    4  A    between atoms: C_8  and  C_10
REMARK    5  A    between atoms: C_19  and  O_21
REMARK    6  A    between atoms: O_21  and  C_22
REMARK    7  A    between atoms: C_22  and  C_23
REMARK    8  A    between atoms: C_22  and  C_24
REMARK    9  A    between atoms: C_22  and  C_25
REMARK                            x       y       z     vdW  Elec       q    Type
REMARK                         _______ _______ _______ _____ _____    ______ ____
ROOT
ATOM      1  C   UNL     1      -0.011   9.635  20.678  0.00  0.00    +0.000 C 
ATOM      2  C   UNL     1       0.476   8.296  21.313  0.00  0.00    +0.000 C 
ATOM      3  C   UNL     1       1.482   7.826  20.311  0.00  0.00    +0.000 A 
ATOM      4  C   UNL     1       2.262   6.684  20.317  0.00  0.00    +0.000 A 
ATOM      5  C   UNL     1       2.971   6.365  19.155  0.00  0.00    +0.000 A 
ATOM      6  C   UNL     1       2.854   7.164  18.009  0.00  0.00    +0.000 A 
ATOM      7  C   UNL     1       2.185   8.385  18.073  0.00  0.00    +0.000 A 
ATOM      8  C   UNL     1       1.582   8.736  19.268  0.00  0.00    +0.000 A 
ATOM      9  N   UNL     1       1.014   9.967  19.669  0.00  0.00    +0.000 N 
ATOM     10  C   UNL     1       1.281  11.141  19.027  0.00  0.00    +0.000 C 
ATOM     11  O   UNL     1       2.133  11.264  18.157  0.00  0.00    +0.000 OA
ENDROOT
BRANCH   1  13
ATOM     12  N   UNL     1      -1.311  11.546  21.550  0.00  0.00    +0.000 N 
ATOM     13  C   UNL     1      -0.350  10.583  21.814  0.00  0.00    +0.000 C 
ATOM     14  O   UNL     1       0.330  10.531  22.839  0.00  0.00    +0.000 OA
ATOM     15  H   UNL     1      -1.873  11.420  20.716  0.00  0.00    +0.000 HD
BRANCH  12  19
ATOM     16  C   UNL     1      -2.578  14.310  24.480  0.00  0.00    +0.000 A 
ATOM     17  C   UNL     1      -1.310  14.440  23.919  0.00  0.00    +0.000 A 
ATOM     18  C   UNL     1      -0.902  13.569  22.912  0.00  0.00    +0.000 A 
ATOM     19  C   UNL     1      -1.730  12.533  22.474  0.00  0.00    +0.000 A 
ATOM     20  C   UNL     1      -3.018  12.438  23.006  0.00  0.00    +0.000 A 
ATOM     21  C   UNL     1      -3.434  13.314  24.019  0.00  0.00    +0.000 A 
BRANCH  16  23
ATOM     22  C   UNL     1      -1.735  15.986  25.925  0.00  0.00    +0.000 C 
ATOM     23  O   UNL     1      -2.827  15.178  25.505  0.00  0.00    +0.000 OA
ENDBRANCH  16  23
ENDBRANCH  12  19
ENDBRANCH   1  13
BRANCH  10  24
ATOM     24  O   UNL     1       0.587  12.209  19.531  0.00  0.00    +0.000 OA
BRANCH  24  25
ATOM     25  C   UNL     1       1.260  13.504  19.620  0.00  0.00    +0.000 C 
ATOM     26  C   UNL     1       2.027  13.814  18.325  0.00  0.00    +0.000 C 
ATOM     27  C   UNL     1       0.149  14.558  19.771  0.00  0.00    +0.000 C 
ATOM     28  C   UNL     1       2.165  13.610  20.861  0.00  0.00    +0.000 C 
ENDBRANCH  24  25
ENDBRANCH  10  24
TORSDOF 5
ENDMDL
MODEL 9
REMARK VINA RESULT:      -6.5      1.256      1.428
REMARK  Name = 
REMARK  9 active torsions:
REMARK  status: ('A' for Active; 'I' for Inactive)
REMARK    1  A    between atoms: C_1  and  O_2
REMARK    2  A    between atoms: O_2  and  C_3
REMARK    3  A    between atoms: C_6  and  N_7
REMARK    4  A    between atoms: C_8  and  C_10
REMARK    5  A    between atoms: C_19  and  O_21
REMARK    6  A    between atoms: O_21  and  C_22
REMARK    7  A    between atoms: C_22  and  C_23
REMARK    8  A    between atoms: C_22  and  C_24
REMARK    9  A    between atoms: C_22  and  C_25
REMARK                            x       y       z     vdW  Elec       q    Type
REMARK                         _______ _______ _______ _____ _____    ______ ____
ROOT
ATOM      1  C   UNL     1       4.658   5.626  18.308  0.00  0.00    +0.000 C 
ATOM      2  C   UNL     1       5.117   6.625  17.201  0.00  0.00    +0.000 C 
ATOM      3  C   UNL     1       5.470   5.702  16.078  0.00  0.00    +0.000 A 
ATOM      4  C   UNL     1       5.947   5.998  14.814  0.00  0.00    +0.000 A 
ATOM      5  C   UNL     1       6.404   4.943  14.019  0.00  0.00    +0.000 A 
ATOM      6  C   UNL     1       6.414   3.632  14.516  0.00  0.00    +0.000 A 
ATOM      7  C   UNL     1       5.793   3.339  15.729  0.00  0.00    +0.000 A 
ATOM      8  C   UNL     1       5.246   4.385  16.451  0.00  0.00    +0.000 A 
ATOM      9  N   UNL     1       4.410   4.359  17.591  0.00  0.00    +0.000 N 
ATOM     10  C   UNL     1       3.721   3.246  17.969  0.00  0.00    +0.000 C 
ATOM     11  O   UNL     1       3.644   2.228  17.292  0.00  0.00    +0.000 OA
ENDROOT
BRANCH   1  13
ATOM     12  N   UNL     1       2.942   7.389  18.521  0.00  0.00    +0.000 N 
ATOM     13  C   UNL     1       3.572   6.310  19.119  0.00  0.00    +0.000 C 
ATOM     14  O   UNL     1       3.410   5.960  20.288  0.00  0.00    +0.000 OA
ATOM     15  H   UNL     1       3.082   7.512  17.524  0.00  0.00    +0.000 HD
BRANCH  12  19
ATOM     16  C   UNL     1       0.101   9.794  20.516  0.00  0.00    +0.000 A 
ATOM     17  C   UNL     1       0.412  10.062  19.185  0.00  0.00    +0.000 A 
ATOM     18  C   UNL     1       1.305   9.242  18.499  0.00  0.00    +0.000 A 
ATOM     19  C   UNL     1       1.932   8.168  19.135  0.00  0.00    +0.000 A 
ATOM     20  C   UNL     1       1.579   7.875  20.454  0.00  0.00    +0.000 A 
ATOM     21  C   UNL     1       0.679   8.697  21.148  0.00  0.00    +0.000 A 
BRANCH  16  23
ATOM     22  C   UNL     1      -0.780  10.713  22.512  0.00  0.00    +0.000 C 
ATOM     23  O   UNL     1      -0.729  10.712  21.092  0.00  0.00    +0.000 OA
ENDBRANCH  16  23
ENDBRANCH  12  19
ENDBRANCH   1  13
BRANCH  10  24
ATOM     24  O   UNL     1       3.015   3.408  19.132  0.00  0.00    +0.000 OA
BRANCH  24  25
ATOM     25  C   UNL     1       1.554   3.360  19.079  0.00  0.00    +0.000 C 
ATOM     26  C   UNL     1       1.056   1.909  18.995  0.00  0.00    +0.000 C 
ATOM     27  C   UNL     1       1.056   3.951  20.409  0.00  0.00    +0.000 C 
ATOM     28  C   UNL     1       0.981   4.230  17.945  0.00  0.00    +0.000 C 
ENDBRANCH  24  25
ENDBRANCH  10  24
TORSDOF 5
ENDMDL
