MODEL 1
REMARK VINA RESULT:      -7.5      0.000      0.000
REMARK  Name = 
REMARK  6 active torsions:
REMARK  status: ('A' for Active; 'I' for Inactive)
REMARK    1  A    between atoms: C_1  and  C_2
REMARK    2  A    between atoms: C_2  and  O_3
REMARK    3  A    between atoms: O_3  and  C_4
REMARK    4  A    between atoms: C_4  and  C_6
REMARK    5  A    between atoms: C_7  and  N_8
REMARK    6  A    between atoms: C_11  and  C_12
REMARK                            x       y       z     vdW  Elec       q    Type
REMARK                         _______ _______ _______ _____ _____    ______ ____
ROOT
ATOM      1  N   UNL     1       6.097   4.787  16.902  0.00  0.00    +0.000 N 
ATOM      2  N   UNL     1       6.712   4.498  18.086  0.00  0.00    +0.000 NA
ATOM      3  N   UNL     1       5.755   4.295  18.973  0.00  0.00    +0.000 NA
ATOM      4  C   UNL     1       4.570   4.488  18.325  0.00  0.00    +0.000 A 
ATOM      5  N   UNL     1       4.732   4.848  17.046  0.00  0.00    +0.000 NA
ENDROOT
BRANCH   4   6
ATOM      6  C   UNL     1       3.279   4.253  18.955  0.00  0.00    +0.000 A 
ATOM      7  C   UNL     1       2.925   4.948  20.122  0.00  0.00    +0.000 A 
ATOM      8  C   UNL     1       1.719   4.678  20.775  0.00  0.00    +0.000 A 
ATOM      9  C   UNL     1       0.854   3.714  20.264  0.00  0.00    +0.000 A 
ATOM     10  C   UNL     1       1.197   3.037  19.100  0.00  0.00    +0.000 A 
ATOM     11  F   UNL     1       0.364   2.109  18.610  0.00  0.00    +0.000 F 
ATOM     12  C   UNL     1       2.393   3.295  18.441  0.00  0.00    +0.000 A 
ENDBRANCH   4   6
BRANCH   1  14
ATOM     13  C   UNL     1       6.435   4.415  14.532  0.00  0.00    +0.000 C 
ATOM     14  C   UNL     1       6.771   4.978  15.700  0.00  0.00    +0.000 C 
BRANCH  13  15
ATOM     15  C   UNL     1       7.218   4.745  13.331  0.00  0.00    +0.000 C 
ATOM     16  O   UNL     1       8.019   5.660  13.252  0.00  0.00    +0.000 OA
BRANCH  15  17
ATOM     17  O   UNL     1       6.811   3.923  12.336  0.00  0.00    +0.000 OA
BRANCH  17  19
ATOM     18  C   UNL     1       4.597   3.494  11.548  0.00  0.00    +0.000 C 
ATOM     19  C   UNL     1       5.625   3.171  12.617  0.00  0.00    +0.000 C 
ENDBRANCH  17  19
ENDBRANCH  15  17
ENDBRANCH  13  15
ENDBRANCH   1  14
TORSDOF 5
ENDMDL
MODEL 2
REMARK VINA RESULT:      -7.5      1.169      1.500
REMARK  Name = 
REMARK  6 active torsions:
REMARK  status: ('A' for Active; 'I' for Inactive)
REMARK    1  A    between atoms: C_1  and  C_2
REMARK    2  A    between atoms: C_2  and  O_3
REMARK    3  A    between atoms: O_3  and  C_4
REMARK    4  A    between atoms: C_4  and  C_6
REMARK    5  A    between atoms: C_7  and  N_8
REMARK    6  A    between atoms: C_11  and  C_12
REMARK                            x       y       z     vdW  Elec       q    Type
REMARK                         _______ _______ _______ _____ _____    ______ ____
ROOT
ATOM      1  N   UNL     1       6.250   4.381  16.772  0.00  0.00    +0.000 N 
ATOM      2  N   UNL     1       6.805   4.426  18.020  0.00  0.00    +0.000 NA
ATOM      3  N   UNL     1       5.836   4.159  18.877  0.00  0.00    +0.000 NA
ATOM      4  C   UNL     1       4.700   3.981  18.144  0.00  0.00    +0.000 A 
ATOM      5  N   UNL     1       4.896   4.160  16.832  0.00  0.00    +0.000 NA
ENDROOT
BRANCH   4   6
ATOM      6  C   UNL     1       3.436   3.569  18.737  0.00  0.00    +0.000 A 
ATOM      7  C   UNL     1       2.288   3.445  17.939  0.00  0.00    +0.000 A 
ATOM      8  C   UNL     1       1.053   3.120  18.510  0.00  0.00    +0.000 A 
ATOM      9  C   UNL     1       0.958   2.909  19.882  0.00  0.00    +0.000 A 
ATOM     10  C   UNL     1       2.098   3.015  20.671  0.00  0.00    +0.000 A 
ATOM     11  F   UNL     1       2.004   2.813  21.992  0.00  0.00    +0.000 F 
ATOM     12  C   UNL     1       3.331   3.339  20.117  0.00  0.00    +0.000 A 
ENDBRANCH   4   6
BRANCH   1  14
ATOM     13  C   UNL     1       6.437   4.683  14.377  0.00  0.00    +0.000 C 
ATOM     14  C   UNL     1       6.973   4.523  15.593  0.00  0.00    +0.000 C 
BRANCH  13  15
ATOM     15  C   UNL     1       7.331   4.865  13.222  0.00  0.00    +0.000 C 
ATOM     16  O   UNL     1       8.161   5.751  13.119  0.00  0.00    +0.000 OA
BRANCH  15  17
ATOM     17  O   UNL     1       6.989   3.948  12.287  0.00  0.00    +0.000 OA
BRANCH  17  19
ATOM     18  C   UNL     1       5.582   2.174  11.523  0.00  0.00    +0.000 C 
ATOM     19  C   UNL     1       5.688   3.371  12.452  0.00  0.00    +0.000 C 
ENDBRANCH  17  19
ENDBRANCH  15  17
ENDBRANCH  13  15
ENDBRANCH   1  14
TORSDOF 5
ENDMDL
MODEL 3
REMARK VINA RESULT:      -7.3      1.222      1.538
REMARK  Name = 
REMARK  6 active torsions:
REMARK  status: ('A' for Active; 'I' for Inactive)
REMARK    1  A    between atoms: C_1  and  C_2
REMARK    2  A    between atoms: C_2  and  O_3
REMARK    3  A    between atoms: O_3  and  C_4
REMARK    4  A    between atoms: C_4  and  C_6
REMARK    5  A    between atoms: C_7  and  N_8
REMARK    6  A    between atoms: C_11  and  C_12
REMARK                            x       y       z     vdW  Elec       q    Type
REMARK                         _______ _______ _______ _____ _____    ______ ____
ROOT
ATOM      1  N   UNL     1       6.177   4.856  17.151  0.00  0.00    +0.000 N 
ATOM      2  N   UNL     1       6.916   4.474  18.234  0.00  0.00    +0.000 NA
ATOM      3  N   UNL     1       6.061   4.215  19.207  0.00  0.00    +0.000 NA
ATOM      4  C   UNL     1       4.815   4.467  18.712  0.00  0.00    +0.000 A 
ATOM      5  N   UNL     1       4.839   4.919  17.452  0.00  0.00    +0.000 NA
ENDROOT
BRANCH   4   6
ATOM      6  C   UNL     1       3.599   4.198  19.465  0.00  0.00    +0.000 A 
ATOM      7  C   UNL     1       3.179   2.876  19.680  0.00  0.00    +0.000 A 
ATOM      8  C   UNL     1       1.975   2.608  20.340  0.00  0.00    +0.000 A 
ATOM      9  C   UNL     1       1.185   3.659  20.796  0.00  0.00    +0.000 A 
ATOM     10  C   UNL     1       1.608   4.968  20.597  0.00  0.00    +0.000 A 
ATOM     11  F   UNL     1       0.845   5.978  21.036  0.00  0.00    +0.000 F 
ATOM     12  C   UNL     1       2.802   5.249  19.943  0.00  0.00    +0.000 A 
ENDBRANCH   4   6
BRANCH   1  14
ATOM     13  C   UNL     1       6.717   4.281  14.861  0.00  0.00    +0.000 C 
ATOM     14  C   UNL     1       6.715   5.128  15.898  0.00  0.00    +0.000 C 
BRANCH  13  15
ATOM     15  C   UNL     1       7.285   4.725  13.578  0.00  0.00    +0.000 C 
ATOM     16  O   UNL     1       8.072   5.647  13.448  0.00  0.00    +0.000 OA
BRANCH  15  17
ATOM     17  O   UNL     1       6.704   3.998  12.596  0.00  0.00    +0.000 OA
BRANCH  17  19
ATOM     18  C   UNL     1       4.732   3.178  11.524  0.00  0.00    +0.000 C 
ATOM     19  C   UNL     1       5.340   3.633  12.839  0.00  0.00    +0.000 C 
ENDBRANCH  17  19
ENDBRANCH  15  17
ENDBRANCH  13  15
ENDBRANCH   1  14
TORSDOF 5
ENDMDL
MODEL 4
REMARK VINA RESULT:      -7.0      4.221      7.358
REMARK  Name = 
REMARK  6 active torsions:
REMARK  status: ('A' for Active; 'I' for Inactive)
REMARK    1  A    between atoms: C_1  and  C_2
REMARK    2  A    between atoms: C_2  and  O_3
REMARK    3  A    between atoms: O_3  and  C_4
REMARK    4  A    between atoms: C_4  and  C_6
REMARK    5  A    between atoms: C_7  and  N_8
REMARK    6  A    between atoms: C_11  and  C_12
REMARK                            x       y       z     vdW  Elec       q    Type
REMARK                         _______ _______ _______ _____ _____    ______ ____
ROOT
ATOM      1  N   UNL     1       5.236   4.098  18.026  0.00  0.00    +0.000 N 
ATOM      2  N   UNL     1       6.536   4.416  18.303  0.00  0.00    +0.000 NA
ATOM      3  N   UNL     1       7.159   4.512  17.142  0.00  0.00    +0.000 NA
ATOM      4  C   UNL     1       6.240   4.226  16.176  0.00  0.00    +0.000 A 
ATOM      5  N   UNL     1       5.040   3.911  16.679  0.00  0.00    +0.000 NA
ENDROOT
BRANCH   4   6
ATOM      6  C   UNL     1       6.533   4.330  14.754  0.00  0.00    +0.000 A 
ATOM      7  C   UNL     1       5.865   3.507  13.833  0.00  0.00    +0.000 A 
ATOM      8  C   UNL     1       6.190   3.548  12.474  0.00  0.00    +0.000 A 
ATOM      9  C   UNL     1       7.181   4.416  12.023  0.00  0.00    +0.000 A 
ATOM     10  C   UNL     1       7.831   5.243  12.932  0.00  0.00    +0.000 A 
ATOM     11  F   UNL     1       8.784   6.076  12.496  0.00  0.00    +0.000 F 
ATOM     12  C   UNL     1       7.518   5.212  14.286  0.00  0.00    +0.000 A 
ENDBRANCH   4   6
BRANCH   1  14
ATOM     13  C   UNL     1       4.087   2.969  19.834  0.00  0.00    +0.000 C 
ATOM     14  C   UNL     1       4.238   3.996  18.988  0.00  0.00    +0.000 C 
BRANCH  13  15
ATOM     15  C   UNL     1       3.007   3.020  20.832  0.00  0.00    +0.000 C 
ATOM     16  O   UNL     1       2.991   2.386  21.873  0.00  0.00    +0.000 OA
BRANCH  15  17
ATOM     17  O   UNL     1       2.023   3.805  20.335  0.00  0.00    +0.000 OA
BRANCH  17  19
ATOM     18  C   UNL     1       0.758   2.492  18.789  0.00  0.00    +0.000 C 
ATOM     19  C   UNL     1       0.759   3.153  20.156  0.00  0.00    +0.000 C 
ENDBRANCH  17  19
ENDBRANCH  15  17
ENDBRANCH  13  15
ENDBRANCH   1  14
TORSDOF 5
ENDMDL
MODEL 5
REMARK VINA RESULT:      -6.9      1.279      1.340
REMARK  Name = 
REMARK  6 active torsions:
REMARK  status: ('A' for Active; 'I' for Inactive)
REMARK    1  A    between atoms: C_1  and  C_2
REMARK    2  A    between atoms: C_2  and  O_3
REMARK    3  A    between atoms: O_3  and  C_4
REMARK    4  A    between atoms: C_4  and  C_6
REMARK    5  A    between atoms: C_7  and  N_8
REMARK    6  A    between atoms: C_11  and  C_12
REMARK                            x       y       z     vdW  Elec       q    Type
REMARK                         _______ _______ _______ _____ _____    ______ ____
ROOT
ATOM      1  N   UNL     1       6.072   4.280  17.181  0.00  0.00    +0.000 N 
ATOM      2  N   UNL     1       6.787   4.518  18.320  0.00  0.00    +0.000 NA
ATOM      3  N   UNL     1       5.929   4.475  19.324  0.00  0.00    +0.000 NA
ATOM      4  C   UNL     1       4.700   4.238  18.781  0.00  0.00    +0.000 A 
ATOM      5  N   UNL     1       4.730   4.160  17.445  0.00  0.00    +0.000 NA
ENDROOT
BRANCH   4   6
ATOM      6  C   UNL     1       3.510   4.023  19.591  0.00  0.00    +0.000 A 
ATOM      7  C   UNL     1       2.473   4.969  19.588  0.00  0.00    +0.000 A 
ATOM      8  C   UNL     1       1.357   4.807  20.416  0.00  0.00    +0.000 A 
ATOM      9  C   UNL     1       1.267   3.696  21.249  0.00  0.00    +0.000 A 
ATOM     10  C   UNL     1       2.286   2.751  21.240  0.00  0.00    +0.000 A 
ATOM     11  F   UNL     1       2.198   1.682  22.044  0.00  0.00    +0.000 F 
ATOM     12  C   UNL     1       3.400   2.899  20.423  0.00  0.00    +0.000 A 
ENDBRANCH   4   6
BRANCH   1  14
ATOM     13  C   UNL     1       6.507   5.045  14.924  0.00  0.00    +0.000 C 
ATOM     14  C   UNL     1       6.639   4.156  15.917  0.00  0.00    +0.000 C 
BRANCH  13  15
ATOM     15  C   UNL     1       7.204   4.801  13.652  0.00  0.00    +0.000 C 
ATOM     16  O   UNL     1       7.884   5.624  13.062  0.00  0.00    +0.000 OA
BRANCH  15  17
ATOM     17  O   UNL     1       6.870   3.560  13.230  0.00  0.00    +0.000 OA
BRANCH  17  19
ATOM     18  C   UNL     1       4.895   3.321  11.907  0.00  0.00    +0.000 C 
ATOM     19  C   UNL     1       6.404   3.484  11.877  0.00  0.00    +0.000 C 
ENDBRANCH  17  19
ENDBRANCH  15  17
ENDBRANCH  13  15
ENDBRANCH   1  14
TORSDOF 5
ENDMDL
MODEL 6
REMARK VINA RESULT:      -6.9      4.453      5.745
REMARK  Name = 
REMARK  6 active torsions:
REMARK  status: ('A' for Active; 'I' for Inactive)
REMARK    1  A    between atoms: C_1  and  C_2
REMARK    2  A    between atoms: C_2  and  O_3
REMARK    3  A    between atoms: O_3  and  C_4
REMARK    4  A    between atoms: C_4  and  C_6
REMARK    5  A    between atoms: C_7  and  N_8
REMARK    6  A    between atoms: C_11  and  C_12
REMARK                            x       y       z     vdW  Elec       q    Type
REMARK                         _______ _______ _______ _____ _____    ______ ____
ROOT
ATOM      1  N   UNL     1       7.259   6.905  17.590  0.00  0.00    +0.000 N 
ATOM      2  N   UNL     1       7.376   6.382  16.333  0.00  0.00    +0.000 NA
ATOM      3  N   UNL     1       6.342   5.578  16.158  0.00  0.00    +0.000 NA
ATOM      4  C   UNL     1       5.624   5.602  17.317  0.00  0.00    +0.000 A 
ATOM      5  N   UNL     1       6.183   6.373  18.258  0.00  0.00    +0.000 NA
ENDROOT
BRANCH   4   6
ATOM      6  C   UNL     1       4.351   4.913  17.469  0.00  0.00    +0.000 A 
ATOM      7  C   UNL     1       3.182   5.641  17.742  0.00  0.00    +0.000 A 
ATOM      8  C   UNL     1       1.967   4.984  17.961  0.00  0.00    +0.000 A 
ATOM      9  C   UNL     1       1.909   3.595  17.904  0.00  0.00    +0.000 A 
ATOM     10  C   UNL     1       3.063   2.874  17.617  0.00  0.00    +0.000 A 
ATOM     11  F   UNL     1       3.006   1.537  17.563  0.00  0.00    +0.000 F 
ATOM     12  C   UNL     1       4.277   3.514  17.398  0.00  0.00    +0.000 A 
ENDBRANCH   4   6
BRANCH   1  14
ATOM     13  C   UNL     1       8.019   9.185  17.891  0.00  0.00    +0.000 C 
ATOM     14  C   UNL     1       8.113   7.868  18.115  0.00  0.00    +0.000 C 
BRANCH  13  15
ATOM     15  C   UNL     1       8.971  10.090  18.552  0.00  0.00    +0.000 C 
ATOM     16  O   UNL     1       9.394   9.948  19.687  0.00  0.00    +0.000 OA
BRANCH  15  17
ATOM     17  O   UNL     1       9.199  11.131  17.717  0.00  0.00    +0.000 OA
BRANCH  17  19
ATOM     18  C   UNL     1      11.368  12.134  17.727  0.00  0.00    +0.000 C 
ATOM     19  C   UNL     1       9.957  12.207  18.282  0.00  0.00    +0.000 C 
ENDBRANCH  17  19
ENDBRANCH  15  17
ENDBRANCH  13  15
ENDBRANCH   1  14
TORSDOF 5
ENDMDL
MODEL 7
REMARK VINA RESULT:      -6.9      3.989      7.387
REMARK  Name = 
REMARK  6 active torsions:
REMARK  status: ('A' for Active; 'I' for Inactive)
REMARK    1  A    between atoms: C_1  and  C_2
REMARK    2  A    between atoms: C_2  and  O_3
REMARK    3  A    between atoms: O_3  and  C_4
REMARK    4  A    between atoms: C_4  and  C_6
REMARK    5  A    between atoms: C_7  and  N_8
REMARK    6  A    between atoms: C_11  and  C_12
REMARK                            x       y       z     vdW  Elec       q    Type
REMARK                         _______ _______ _______ _____ _____    ______ ____
ROOT
ATOM      1  N   UNL     1       4.040   4.569  17.231  0.00  0.00    +0.000 N 
ATOM      2  N   UNL     1       4.495   5.857  17.242  0.00  0.00    +0.000 NA
ATOM      3  N   UNL     1       5.313   5.980  16.212  0.00  0.00    +0.000 NA
ATOM      4  C   UNL     1       5.367   4.760  15.604  0.00  0.00    +0.000 A 
ATOM      5  N   UNL     1       4.632   3.835  16.232  0.00  0.00    +0.000 NA
ENDROOT
BRANCH   4   6
ATOM      6  C   UNL     1       6.093   4.529  14.364  0.00  0.00    +0.000 A 
ATOM      7  C   UNL     1       7.215   5.311  14.047  0.00  0.00    +0.000 A 
ATOM      8  C   UNL     1       7.877   5.147  12.826  0.00  0.00    +0.000 A 
ATOM      9  C   UNL     1       7.427   4.195  11.916  0.00  0.00    +0.000 A 
ATOM     10  C   UNL     1       6.326   3.409  12.236  0.00  0.00    +0.000 A 
ATOM     11  F   UNL     1       5.894   2.495  11.358  0.00  0.00    +0.000 F 
ATOM     12  C   UNL     1       5.658   3.563  13.446  0.00  0.00    +0.000 A 
ENDBRANCH   4   6
BRANCH   1  14
ATOM     13  C   UNL     1       1.879   3.611  17.759  0.00  0.00    +0.000 C 
ATOM     14  C   UNL     1       3.085   4.073  18.112  0.00  0.00    +0.000 C 
BRANCH  13  15
ATOM     15  C   UNL     1       0.987   3.075  18.799  0.00  0.00    +0.000 C 
ATOM     16  O   UNL     1       0.126   2.233  18.611  0.00  0.00    +0.000 OA
BRANCH  15  17
ATOM     17  O   UNL     1       1.237   3.751  19.944  0.00  0.00    +0.000 OA
BRANCH  17  19
ATOM     18  C   UNL     1       2.628   2.729  21.596  0.00  0.00    +0.000 C 
ATOM     19  C   UNL     1       1.199   2.958  21.137  0.00  0.00    +0.000 C 
ENDBRANCH  17  19
ENDBRANCH  15  17
ENDBRANCH  13  15
ENDBRANCH   1  14
TORSDOF 5
ENDMDL
MODEL 8
REMARK VINA RESULT:      -6.9      3.103      3.534
REMARK  Name = 
REMARK  6 active torsions:
REMARK  status: ('A' for Active; 'I' for Inactive)
REMARK    1  A    between atoms: C_1  and  C_2
REMARK    2  A    between atoms: C_2  and  O_3
REMARK    3  A    between atoms: O_3  and  C_4
REMARK    4  A    between atoms: C_4  and  C_6
REMARK    5  A    between atoms: C_7  and  N_8
REMARK    6  A    between atoms: C_11  and  C_12
REMARK                            x       y       z     vdW  Elec       q    Type
REMARK                         _______ _______ _______ _____ _____    ______ ____
ROOT
ATOM      1  N   UNL     1       4.291   5.001  16.947  0.00  0.00    +0.000 N 
ATOM      2  N   UNL     1       3.560   4.123  17.696  0.00  0.00    +0.000 NA
ATOM      3  N   UNL     1       2.813   4.847  18.510  0.00  0.00    +0.000 NA
ATOM      4  C   UNL     1       3.116   6.154  18.265  0.00  0.00    +0.000 A 
ATOM      5  N   UNL     1       4.070   6.300  17.337  0.00  0.00    +0.000 NA
ENDROOT
BRANCH   4   6
ATOM      6  C   UNL     1       2.416   7.259  18.903  0.00  0.00    +0.000 A 
ATOM      7  C   UNL     1       2.041   7.172  20.253  0.00  0.00    +0.000 A 
ATOM      8  C   UNL     1       1.305   8.196  20.857  0.00  0.00    +0.000 A 
ATOM      9  C   UNL     1       0.942   9.318  20.117  0.00  0.00    +0.000 A 
ATOM     10  C   UNL     1       1.326   9.412  18.785  0.00  0.00    +0.000 A 
ATOM     11  F   UNL     1       0.975  10.492  18.074  0.00  0.00    +0.000 F 
ATOM     12  C   UNL     1       2.058   8.401  18.172  0.00  0.00    +0.000 A 
ENDBRANCH   4   6
BRANCH   1  14
ATOM     13  C   UNL     1       6.040   5.421  15.325  0.00  0.00    +0.000 C 
ATOM     14  C   UNL     1       5.137   4.624  15.910  0.00  0.00    +0.000 C 
BRANCH  13  15
ATOM     15  C   UNL     1       6.899   4.869  14.266  0.00  0.00    +0.000 C 
ATOM     16  O   UNL     1       7.906   5.405  13.837  0.00  0.00    +0.000 OA
BRANCH  15  17
ATOM     17  O   UNL     1       6.315   3.737  13.809  0.00  0.00    +0.000 OA
BRANCH  17  19
ATOM     18  C   UNL     1       5.012   3.200  11.879  0.00  0.00    +0.000 C 
ATOM     19  C   UNL     1       6.400   3.540  12.393  0.00  0.00    +0.000 C 
ENDBRANCH  17  19
ENDBRANCH  15  17
ENDBRANCH  13  15
ENDBRANCH   1  14
TORSDOF 5
ENDMDL
MODEL 9
REMARK VINA RESULT:      -6.8      4.159      7.422
REMARK  Name = 
REMARK  6 active torsions:
REMARK  status: ('A' for Active; 'I' for Inactive)
REMARK    1  A    between atoms: C_1  and  C_2
REMARK    2  A    between atoms: C_2  and  O_3
REMARK    3  A    between atoms: O_3  and  C_4
REMARK    4  A    between atoms: C_4  and  C_6
REMARK    5  A    between atoms: C_7  and  N_8
REMARK    6  A    between atoms: C_11  and  C_12
REMARK                            x       y       z     vdW  Elec       q    Type
REMARK                         _______ _______ _______ _____ _____    ______ ____
ROOT
ATOM      1  N   UNL     1       5.539   4.845  18.090  0.00  0.00    +0.000 N 
ATOM      2  N   UNL     1       6.882   4.698  18.296  0.00  0.00    +0.000 NA
ATOM      3  N   UNL     1       7.435   4.547  17.106  0.00  0.00    +0.000 NA
ATOM      4  C   UNL     1       6.421   4.577  16.194  0.00  0.00    +0.000 A 
ATOM      5  N   UNL     1       5.216   4.709  16.762  0.00  0.00    +0.000 NA
ENDROOT
BRANCH   4   6
ATOM      6  C   UNL     1       6.653   4.542  14.758  0.00  0.00    +0.000 A 
ATOM      7  C   UNL     1       5.990   3.598  13.958  0.00  0.00    +0.000 A 
ATOM      8  C   UNL     1       6.258   3.508  12.588  0.00  0.00    +0.000 A 
ATOM      9  C   UNL     1       7.187   4.366  12.006  0.00  0.00    +0.000 A 
ATOM     10  C   UNL     1       7.832   5.312  12.795  0.00  0.00    +0.000 A 
ATOM     11  F   UNL     1       8.727   6.135  12.233  0.00  0.00    +0.000 F 
ATOM     12  C   UNL     1       7.575   5.411  14.157  0.00  0.00    +0.000 A 
ENDBRANCH   4   6
BRANCH   1  14
ATOM     13  C   UNL     1       3.395   5.620  18.909  0.00  0.00    +0.000 C 
ATOM     14  C   UNL     1       4.622   5.117  19.099  0.00  0.00    +0.000 C 
BRANCH  13  15
ATOM     15  C   UNL     1       2.516   5.814  20.073  0.00  0.00    +0.000 C 
ATOM     16  O   UNL     1       1.960   6.860  20.358  0.00  0.00    +0.000 OA
BRANCH  15  17
ATOM     17  O   UNL     1       2.527   4.668  20.794  0.00  0.00    +0.000 OA
BRANCH  17  19
ATOM     18  C   UNL     1       1.515   2.645  21.562  0.00  0.00    +0.000 C 
ATOM     19  C   UNL     1       1.331   3.885  20.705  0.00  0.00    +0.000 C 
ENDBRANCH  17  19
ENDBRANCH  15  17
ENDBRANCH  13  15
ENDBRANCH   1  14
TORSDOF 5
ENDMDL
