MODEL 1
REMARK VINA RESULT:      -7.9      0.000      0.000
REMARK  Name = 
REMARK  4 active torsions:
REMARK  status: ('A' for Active; 'I' for Inactive)
REMARK    1  A    between atoms: C_2  and  C_3
REMARK    2  A    between atoms: C_3  and  O_4
REMARK    3  A    between atoms: O_4  and  C_5
REMARK    4  A    between atoms: C_15  and  C_16
REMARK                            x       y       z     vdW  Elec       q    Type
REMARK                         _______ _______ _______ _____ _____    ______ ____
ROOT
ATOM      1  O   UNL     1       6.425   6.656  17.813  0.00  0.00    +0.000 OA
ATOM      2  C   UNL     1       6.355   5.444  17.627  0.00  0.00    +0.000 C 
ATOM      3  N   UNL     1       5.409   4.602  18.166  0.00  0.00    +0.000 N 
ATOM      4  C   UNL     1       4.316   5.039  18.861  0.00  0.00    +0.000 A 
ATOM      5  N   UNL     1       3.457   4.272  19.494  0.00  0.00    +0.000 NA
ATOM      6  N   UNL     1       2.473   5.108  19.981  0.00  0.00    +0.000 NA
ATOM      7  C   UNL     1       2.784   6.326  19.581  0.00  0.00    +0.000 A 
ATOM      8  O   UNL     1       3.960   6.359  18.873  0.00  0.00    +0.000 OA
ATOM      9  H   UNL     1       5.518   3.600  18.120  0.00  0.00    +0.000 HD
ENDROOT
BRANCH   7  10
ATOM     10  C   UNL     1       2.024   7.565  19.717  0.00  0.00    +0.000 A 
ATOM     11  C   UNL     1       1.354   7.834  20.924  0.00  0.00    +0.000 A 
ATOM     12  C   UNL     1       0.541   8.965  21.061  0.00  0.00    +0.000 A 
ATOM     13  C   UNL     1       0.390   9.840  19.990  0.00  0.00    +0.000 A 
ATOM     14 CL   UNL     1      -0.649  11.202  20.138  0.00  0.00    +0.000 Cl
ATOM     15  C   UNL     1       1.064   9.605  18.793  0.00  0.00    +0.000 A 
ATOM     16  C   UNL     1       1.882   8.476  18.659  0.00  0.00    +0.000 A 
ENDBRANCH   7  10
BRANCH   2  17
ATOM     17  C   UNL     1       7.331   4.718  16.693  0.00  0.00    +0.000 C 
BRANCH  17  18
ATOM     18  O   UNL     1       7.553   5.436  15.485  0.00  0.00    +0.000 OA
BRANCH  18  19
ATOM     19  C   UNL     1       7.050   4.833  14.358  0.00  0.00    +0.000 A 
ATOM     20  C   UNL     1       7.775   5.027  13.179  0.00  0.00    +0.000 A 
ATOM     21  C   UNL     1       7.352   4.442  11.983  0.00  0.00    +0.000 A 
ATOM     22  C   UNL     1       6.208   3.645  11.958  0.00  0.00    +0.000 A 
ATOM     23  C   UNL     1       5.492   3.432  13.133  0.00  0.00    +0.000 A 
ATOM     24  C   UNL     1       5.913   4.021  14.329  0.00  0.00    +0.000 A 
ENDBRANCH  18  19
ENDBRANCH  17  18
ENDBRANCH   2  17
TORSDOF 4
ENDMDL
MODEL 2
REMARK VINA RESULT:      -7.9      0.276      1.042
REMARK  Name = 
REMARK  4 active torsions:
REMARK  status: ('A' for Active; 'I' for Inactive)
REMARK    1  A    between atoms: C_2  and  C_3
REMARK    2  A    between atoms: C_3  and  O_4
REMARK    3  A    between atoms: O_4  and  C_5
REMARK    4  A    between atoms: C_15  and  C_16
REMARK                            x       y       z     vdW  Elec       q    Type
REMARK                         _______ _______ _______ _____ _____    ______ ____
ROOT
ATOM      1  O   UNL     1       6.381   6.748  17.521  0.00  0.00    +0.000 OA
ATOM      2  C   UNL     1       6.393   5.521  17.461  0.00  0.00    +0.000 C 
ATOM      3  N   UNL     1       5.550   4.675  18.145  0.00  0.00    +0.000 N 
ATOM      4  C   UNL     1       4.472   5.104  18.867  0.00  0.00    +0.000 A 
ATOM      5  N   UNL     1       3.715   4.349  19.631  0.00  0.00    +0.000 NA
ATOM      6  N   UNL     1       2.702   5.159  20.099  0.00  0.00    +0.000 NA
ATOM      7  C   UNL     1       2.892   6.348  19.559  0.00  0.00    +0.000 A 
ATOM      8  O   UNL     1       4.016   6.389  18.772  0.00  0.00    +0.000 OA
ATOM      9  H   UNL     1       5.734   3.684  18.191  0.00  0.00    +0.000 HD
ENDROOT
BRANCH   7  10
ATOM     10  C   UNL     1       2.048   7.537  19.624  0.00  0.00    +0.000 A 
ATOM     11  C   UNL     1       1.942   8.370  18.495  0.00  0.00    +0.000 A 
ATOM     12  C   UNL     1       1.218   9.566  18.547  0.00  0.00    +0.000 A 
ATOM     13  C   UNL     1       0.590   9.942  19.730  0.00  0.00    +0.000 A 
ATOM     14 CL   UNL     1      -0.257  11.436  19.812  0.00  0.00    +0.000 Cl
ATOM     15  C   UNL     1       0.661   9.119  20.853  0.00  0.00    +0.000 A 
ATOM     16  C   UNL     1       1.382   7.920  20.799  0.00  0.00    +0.000 A 
ENDBRANCH   7  10
BRANCH   2  17
ATOM     17  C   UNL     1       7.363   4.772  16.539  0.00  0.00    +0.000 C 
BRANCH  17  18
ATOM     18  O   UNL     1       7.521   5.423  15.284  0.00  0.00    +0.000 OA
BRANCH  18  19
ATOM     19  C   UNL     1       6.916   4.787  14.227  0.00  0.00    +0.000 A 
ATOM     20  C   UNL     1       7.632   4.765  13.028  0.00  0.00    +0.000 A 
ATOM     21  C   UNL     1       7.106   4.129  11.901  0.00  0.00    +0.000 A 
ATOM     22  C   UNL     1       5.865   3.496  11.967  0.00  0.00    +0.000 A 
ATOM     23  C   UNL     1       5.156   3.497  13.164  0.00  0.00    +0.000 A 
ATOM     24  C   UNL     1       5.680   4.137  14.291  0.00  0.00    +0.000 A 
ENDBRANCH  18  19
ENDBRANCH  17  18
ENDBRANCH   2  17
TORSDOF 4
ENDMDL
MODEL 3
REMARK VINA RESULT:      -7.9      0.381      1.467
REMARK  Name = 
REMARK  4 active torsions:
REMARK  status: ('A' for Active; 'I' for Inactive)
REMARK    1  A    between atoms: C_2  and  C_3
REMARK    2  A    between atoms: C_3  and  O_4
REMARK    3  A    between atoms: O_4  and  C_5
REMARK    4  A    between atoms: C_15  and  C_16
REMARK                            x       y       z     vdW  Elec       q    Type
REMARK                         _______ _______ _______ _____ _____    ______ ____
ROOT
ATOM      1  O   UNL     1       6.211   6.794  17.469  0.00  0.00    +0.000 OA
ATOM      2  C   UNL     1       6.202   5.566  17.490  0.00  0.00    +0.000 C 
ATOM      3  N   UNL     1       5.346   4.782  18.231  0.00  0.00    +0.000 N 
ATOM      4  C   UNL     1       4.279   5.277  18.926  0.00  0.00    +0.000 A 
ATOM      5  N   UNL     1       3.512   4.588  19.741  0.00  0.00    +0.000 NA
ATOM      6  N   UNL     1       2.515   5.445  20.157  0.00  0.00    +0.000 NA
ATOM      7  C   UNL     1       2.725   6.593  19.541  0.00  0.00    +0.000 A 
ATOM      8  O   UNL     1       3.846   6.562  18.749  0.00  0.00    +0.000 OA
ATOM      9  H   UNL     1       5.512   3.793  18.342  0.00  0.00    +0.000 HD
ENDROOT
BRANCH   7  10
ATOM     10  C   UNL     1       1.903   7.799  19.529  0.00  0.00    +0.000 A 
ATOM     11  C   UNL     1       1.800   8.552  18.346  0.00  0.00    +0.000 A 
ATOM     12  C   UNL     1       1.097   9.762  18.320  0.00  0.00    +0.000 A 
ATOM     13  C   UNL     1       0.489  10.231  19.480  0.00  0.00    +0.000 A 
ATOM     14 CL   UNL     1      -0.332  11.742  19.465  0.00  0.00    +0.000 Cl
ATOM     15  C   UNL     1       0.556   9.488  20.657  0.00  0.00    +0.000 A 
ATOM     16  C   UNL     1       1.255   8.275  20.681  0.00  0.00    +0.000 A 
ENDBRANCH   7  10
BRANCH   2  17
ATOM     17  C   UNL     1       7.154   4.740  16.616  0.00  0.00    +0.000 C 
BRANCH  17  18
ATOM     18  O   UNL     1       7.547   5.440  15.442  0.00  0.00    +0.000 OA
BRANCH  18  19
ATOM     19  C   UNL     1       7.147   4.856  14.264  0.00  0.00    +0.000 A 
ATOM     20  C   UNL     1       6.000   4.061  14.329  0.00  0.00    +0.000 A 
ATOM     21  C   UNL     1       5.506   3.436  13.182  0.00  0.00    +0.000 A 
ATOM     22  C   UNL     1       6.146   3.612  11.956  0.00  0.00    +0.000 A 
ATOM     23  C   UNL     1       7.279   4.418  11.881  0.00  0.00    +0.000 A 
ATOM     24  C   UNL     1       7.776   5.040  13.030  0.00  0.00    +0.000 A 
ENDBRANCH  18  19
ENDBRANCH  17  18
ENDBRANCH   2  17
TORSDOF 4
ENDMDL
MODEL 4
REMARK VINA RESULT:      -7.7      4.879      6.890
REMARK  Name = 
REMARK  4 active torsions:
REMARK  status: ('A' for Active; 'I' for Inactive)
REMARK    1  A    between atoms: C_2  and  C_3
REMARK    2  A    between atoms: C_3  and  O_4
REMARK    3  A    between atoms: O_4  and  C_5
REMARK    4  A    between atoms: C_15  and  C_16
REMARK                            x       y       z     vdW  Elec       q    Type
REMARK                         _______ _______ _______ _____ _____    ______ ____
ROOT
ATOM      1  O   UNL     1       7.899   7.081  18.919  0.00  0.00    +0.000 OA
ATOM      2  C   UNL     1       7.868   7.708  17.863  0.00  0.00    +0.000 C 
ATOM      3  N   UNL     1       7.095   7.398  16.767  0.00  0.00    +0.000 N 
ATOM      4  C   UNL     1       6.131   6.430  16.772  0.00  0.00    +0.000 A 
ATOM      5  N   UNL     1       5.455   6.019  15.722  0.00  0.00    +0.000 NA
ATOM      6  N   UNL     1       4.534   5.103  16.185  0.00  0.00    +0.000 NA
ATOM      7  C   UNL     1       4.689   5.044  17.494  0.00  0.00    +0.000 A 
ATOM      8  O   UNL     1       5.703   5.855  17.937  0.00  0.00    +0.000 OA
ATOM      9  H   UNL     1       7.254   7.844  15.876  0.00  0.00    +0.000 HD
ENDROOT
BRANCH   7  10
ATOM     10  C   UNL     1       3.894   4.325  18.486  0.00  0.00    +0.000 A 
ATOM     11  C   UNL     1       2.578   4.745  18.751  0.00  0.00    +0.000 A 
ATOM     12  C   UNL     1       1.818   4.140  19.759  0.00  0.00    +0.000 A 
ATOM     13  C   UNL     1       2.368   3.108  20.512  0.00  0.00    +0.000 A 
ATOM     14 CL   UNL     1       1.455   2.398  21.785  0.00  0.00    +0.000 Cl
ATOM     15  C   UNL     1       3.661   2.659  20.249  0.00  0.00    +0.000 A 
ATOM     16  C   UNL     1       4.419   3.261  19.237  0.00  0.00    +0.000 A 
ENDBRANCH   7  10
BRANCH   2  17
ATOM     17  C   UNL     1       8.690   8.988  17.665  0.00  0.00    +0.000 C 
BRANCH  17  18
ATOM     18  O   UNL     1       8.343   9.999  18.603  0.00  0.00    +0.000 OA
BRANCH  18  19
ATOM     19  C   UNL     1       9.404  10.736  19.071  0.00  0.00    +0.000 A 
ATOM     20  C   UNL     1      10.359  11.114  18.123  0.00  0.00    +0.000 A 
ATOM     21  C   UNL     1      11.467  11.877  18.499  0.00  0.00    +0.000 A 
ATOM     22  C   UNL     1      11.622  12.282  19.824  0.00  0.00    +0.000 A 
ATOM     23  C   UNL     1      10.665  11.926  20.769  0.00  0.00    +0.000 A 
ATOM     24  C   UNL     1       9.558  11.159  20.394  0.00  0.00    +0.000 A 
ENDBRANCH  18  19
ENDBRANCH  17  18
ENDBRANCH   2  17
TORSDOF 4
ENDMDL
MODEL 5
REMARK VINA RESULT:      -7.7      5.086      7.059
REMARK  Name = 
REMARK  4 active torsions:
REMARK  status: ('A' for Active; 'I' for Inactive)
REMARK    1  A    between atoms: C_2  and  C_3
REMARK    2  A    between atoms: C_3  and  O_4
REMARK    3  A    between atoms: O_4  and  C_5
REMARK    4  A    between atoms: C_15  and  C_16
REMARK                            x       y       z     vdW  Elec       q    Type
REMARK                         _______ _______ _______ _____ _____    ______ ____
ROOT
ATOM      1  O   UNL     1       7.971   7.228  19.025  0.00  0.00    +0.000 OA
ATOM      2  C   UNL     1       7.941   7.901  17.997  0.00  0.00    +0.000 C 
ATOM      3  N   UNL     1       7.182   7.630  16.882  0.00  0.00    +0.000 N 
ATOM      4  C   UNL     1       6.230   6.650  16.835  0.00  0.00    +0.000 A 
ATOM      5  N   UNL     1       5.570   6.277  15.762  0.00  0.00    +0.000 NA
ATOM      6  N   UNL     1       4.658   5.329  16.175  0.00  0.00    +0.000 NA
ATOM      7  C   UNL     1       4.802   5.214  17.481  0.00  0.00    +0.000 A 
ATOM      8  O   UNL     1       5.801   6.018  17.969  0.00  0.00    +0.000 OA
ATOM      9  H   UNL     1       7.342   8.118  16.013  0.00  0.00    +0.000 HD
ENDROOT
BRANCH   7  10
ATOM     10  C   UNL     1       4.009   4.441  18.433  0.00  0.00    +0.000 A 
ATOM     11  C   UNL     1       2.659   4.776  18.639  0.00  0.00    +0.000 A 
ATOM     12  C   UNL     1       1.892   4.120  19.609  0.00  0.00    +0.000 A 
ATOM     13  C   UNL     1       2.470   3.118  20.383  0.00  0.00    +0.000 A 
ATOM     14 CL   UNL     1       1.546   2.345  21.609  0.00  0.00    +0.000 Cl
ATOM     15  C   UNL     1       3.799   2.752  20.177  0.00  0.00    +0.000 A 
ATOM     16  C   UNL     1       4.564   3.406  19.203  0.00  0.00    +0.000 A 
ENDBRANCH   7  10
BRANCH   2  17
ATOM     17  C   UNL     1       8.747   9.199  17.864  0.00  0.00    +0.000 C 
BRANCH  17  18
ATOM     18  O   UNL     1       9.049   9.776  19.129  0.00  0.00    +0.000 OA
BRANCH  18  19
ATOM     19  C   UNL     1       9.874  10.873  19.077  0.00  0.00    +0.000 A 
ATOM     20  C   UNL     1      10.208  11.453  20.304  0.00  0.00    +0.000 A 
ATOM     21  C   UNL     1      11.053  12.563  20.356  0.00  0.00    +0.000 A 
ATOM     22  C   UNL     1      11.584  13.097  19.182  0.00  0.00    +0.000 A 
ATOM     23  C   UNL     1      11.271  12.512  17.958  0.00  0.00    +0.000 A 
ATOM     24  C   UNL     1      10.422  11.403  17.905  0.00  0.00    +0.000 A 
ENDBRANCH  18  19
ENDBRANCH  17  18
ENDBRANCH   2  17
TORSDOF 4
ENDMDL
MODEL 6
REMARK VINA RESULT:      -7.6      4.802      6.665
REMARK  Name = 
REMARK  4 active torsions:
REMARK  status: ('A' for Active; 'I' for Inactive)
REMARK    1  A    between atoms: C_2  and  C_3
REMARK    2  A    between atoms: C_3  and  O_4
REMARK    3  A    between atoms: O_4  and  C_5
REMARK    4  A    between atoms: C_15  and  C_16
REMARK                            x       y       z     vdW  Elec       q    Type
REMARK                         _______ _______ _______ _____ _____    ______ ____
ROOT
ATOM      1  O   UNL     1       1.330   9.424  18.788  0.00  0.00    +0.000 OA
ATOM      2  C   UNL     1       1.799   8.496  19.443  0.00  0.00    +0.000 C 
ATOM      3  N   UNL     1       1.763   8.384  20.814  0.00  0.00    +0.000 N 
ATOM      4  C   UNL     1       1.052   9.224  21.624  0.00  0.00    +0.000 A 
ATOM      5  N   UNL     1       1.085   9.229  22.938  0.00  0.00    +0.000 NA
ATOM      6  N   UNL     1       0.161  10.168  23.347  0.00  0.00    +0.000 NA
ATOM      7  C   UNL     1      -0.398  10.648  22.253  0.00  0.00    +0.000 A 
ATOM      8  O   UNL     1       0.135  10.100  21.112  0.00  0.00    +0.000 OA
ATOM      9  H   UNL     1       2.323   7.694  21.294  0.00  0.00    +0.000 HD
ENDROOT
BRANCH   7  10
ATOM     10  C   UNL     1      -1.516  11.576  22.117  0.00  0.00    +0.000 A 
ATOM     11  C   UNL     1      -2.332  11.840  23.232  0.00  0.00    +0.000 A 
ATOM     12  C   UNL     1      -3.467  12.652  23.119  0.00  0.00    +0.000 A 
ATOM     13  C   UNL     1      -3.797  13.208  21.887  0.00  0.00    +0.000 A 
ATOM     14 CL   UNL     1      -5.219  14.163  21.734  0.00  0.00    +0.000 Cl
ATOM     15  C   UNL     1      -2.989  12.980  20.775  0.00  0.00    +0.000 A 
ATOM     16  C   UNL     1      -1.850  12.172  20.891  0.00  0.00    +0.000 A 
ENDBRANCH   7  10
BRANCH   2  17
ATOM     17  C   UNL     1       2.460   7.289  18.767  0.00  0.00    +0.000 C 
BRANCH  17  18
ATOM     18  O   UNL     1       2.855   6.296  19.706  0.00  0.00    +0.000 OA
BRANCH  18  19
ATOM     19  C   UNL     1       2.222   5.085  19.560  0.00  0.00    +0.000 A 
ATOM     20  C   UNL     1       1.759   4.485  20.734  0.00  0.00    +0.000 A 
ATOM     21  C   UNL     1       1.091   3.260  20.687  0.00  0.00    +0.000 A 
ATOM     22  C   UNL     1       0.865   2.630  19.464  0.00  0.00    +0.000 A 
ATOM     23  C   UNL     1       1.306   3.232  18.288  0.00  0.00    +0.000 A 
ATOM     24  C   UNL     1       1.980   4.456  18.335  0.00  0.00    +0.000 A 
ENDBRANCH  18  19
ENDBRANCH  17  18
ENDBRANCH   2  17
TORSDOF 4
ENDMDL
MODEL 7
REMARK VINA RESULT:      -7.6      4.747      6.583
REMARK  Name = 
REMARK  4 active torsions:
REMARK  status: ('A' for Active; 'I' for Inactive)
REMARK    1  A    between atoms: C_2  and  C_3
REMARK    2  A    between atoms: C_3  and  O_4
REMARK    3  A    between atoms: O_4  and  C_5
REMARK    4  A    between atoms: C_15  and  C_16
REMARK                            x       y       z     vdW  Elec       q    Type
REMARK                         _______ _______ _______ _____ _____    ______ ____
ROOT
ATOM      1  O   UNL     1       1.317   9.464  18.703  0.00  0.00    +0.000 OA
ATOM      2  C   UNL     1       1.803   8.531  19.338  0.00  0.00    +0.000 C 
ATOM      3  N   UNL     1       1.791   8.399  20.708  0.00  0.00    +0.000 N 
ATOM      4  C   UNL     1       1.089   9.224  21.540  0.00  0.00    +0.000 A 
ATOM      5  N   UNL     1       1.145   9.212  22.854  0.00  0.00    +0.000 NA
ATOM      6  N   UNL     1       0.223  10.139  23.292  0.00  0.00    +0.000 NA
ATOM      7  C   UNL     1      -0.357  10.630  22.214  0.00  0.00    +0.000 A 
ATOM      8  O   UNL     1       0.159  10.101  21.057  0.00  0.00    +0.000 OA
ATOM      9  H   UNL     1       2.363   7.707  21.168  0.00  0.00    +0.000 HD
ENDROOT
BRANCH   7  10
ATOM     10  C   UNL     1      -1.483  11.554  22.111  0.00  0.00    +0.000 A 
ATOM     11  C   UNL     1      -2.277  11.803  23.245  0.00  0.00    +0.000 A 
ATOM     12  C   UNL     1      -3.418  12.610  23.164  0.00  0.00    +0.000 A 
ATOM     13  C   UNL     1      -3.776  13.176  21.944  0.00  0.00    +0.000 A 
ATOM     14 CL   UNL     1      -5.206  14.124  21.830  0.00  0.00    +0.000 Cl
ATOM     15  C   UNL     1      -2.990  12.963  20.814  0.00  0.00    +0.000 A 
ATOM     16  C   UNL     1      -1.845  12.160  20.898  0.00  0.00    +0.000 A 
ENDBRANCH   7  10
BRANCH   2  17
ATOM     17  C   UNL     1       2.459   7.337  18.633  0.00  0.00    +0.000 C 
BRANCH  17  18
ATOM     18  O   UNL     1       2.941   6.367  19.556  0.00  0.00    +0.000 OA
BRANCH  18  19
ATOM     19  C   UNL     1       2.236   5.188  19.569  0.00  0.00    +0.000 A 
ATOM     20  C   UNL     1       2.081   4.547  18.336  0.00  0.00    +0.000 A 
ATOM     21  C   UNL     1       1.393   3.336  18.249  0.00  0.00    +0.000 A 
ATOM     22  C   UNL     1       0.864   2.745  19.397  0.00  0.00    +0.000 A 
ATOM     23  C   UNL     1       1.031   3.368  20.630  0.00  0.00    +0.000 A 
ATOM     24  C   UNL     1       1.717   4.583  20.717  0.00  0.00    +0.000 A 
ENDBRANCH  18  19
ENDBRANCH  17  18
ENDBRANCH   2  17
TORSDOF 4
ENDMDL
MODEL 8
REMARK VINA RESULT:      -7.6      4.807      6.797
REMARK  Name = 
REMARK  4 active torsions:
REMARK  status: ('A' for Active; 'I' for Inactive)
REMARK    1  A    between atoms: C_2  and  C_3
REMARK    2  A    between atoms: C_3  and  O_4
REMARK    3  A    between atoms: O_4  and  C_5
REMARK    4  A    between atoms: C_15  and  C_16
REMARK                            x       y       z     vdW  Elec       q    Type
REMARK                         _______ _______ _______ _____ _____    ______ ____
ROOT
ATOM      1  O   UNL     1       1.243   9.535  18.840  0.00  0.00    +0.000 OA
ATOM      2  C   UNL     1       1.724   8.600  19.476  0.00  0.00    +0.000 C 
ATOM      3  N   UNL     1       1.695   8.460  20.844  0.00  0.00    +0.000 N 
ATOM      4  C   UNL     1       0.978   9.277  21.672  0.00  0.00    +0.000 A 
ATOM      5  N   UNL     1       1.016   9.257  22.986  0.00  0.00    +0.000 NA
ATOM      6  N   UNL     1       0.084  10.177  23.418  0.00  0.00    +0.000 NA
ATOM      7  C   UNL     1      -0.484  10.672  22.335  0.00  0.00    +0.000 A 
ATOM      8  O   UNL     1       0.050  10.153  21.182  0.00  0.00    +0.000 OA
ATOM      9  H   UNL     1       2.265   7.768  21.308  0.00  0.00    +0.000 HD
ENDROOT
BRANCH   7  10
ATOM     10  C   UNL     1      -1.613  11.591  22.222  0.00  0.00    +0.000 A 
ATOM     11  C   UNL     1      -1.823  12.280  21.014  0.00  0.00    +0.000 A 
ATOM     12  C   UNL     1      -2.838  13.236  20.896  0.00  0.00    +0.000 A 
ATOM     13  C   UNL     1      -3.655  13.513  21.988  0.00  0.00    +0.000 A 
ATOM     14 CL   UNL     1      -4.869  14.724  21.863  0.00  0.00    +0.000 Cl
ATOM     15  C   UNL     1      -3.480  12.823  23.187  0.00  0.00    +0.000 A 
ATOM     16  C   UNL     1      -2.468  11.863  23.302  0.00  0.00    +0.000 A 
ENDBRANCH   7  10
BRANCH   2  17
ATOM     17  C   UNL     1       2.396   7.413  18.773  0.00  0.00    +0.000 C 
BRANCH  17  18
ATOM     18  O   UNL     1       2.824   6.417  19.693  0.00  0.00    +0.000 OA
BRANCH  18  19
ATOM     19  C   UNL     1       2.215   5.195  19.540  0.00  0.00    +0.000 A 
ATOM     20  C   UNL     1       1.727   4.598  20.706  0.00  0.00    +0.000 A 
ATOM     21  C   UNL     1       1.079   3.363  20.651  0.00  0.00    +0.000 A 
ATOM     22  C   UNL     1       0.899   2.718  19.427  0.00  0.00    +0.000 A 
ATOM     23  C   UNL     1       1.365   3.316  18.260  0.00  0.00    +0.000 A 
ATOM     24  C   UNL     1       2.018   4.551  18.315  0.00  0.00    +0.000 A 
ENDBRANCH  18  19
ENDBRANCH  17  18
ENDBRANCH   2  17
TORSDOF 4
ENDMDL
MODEL 9
REMARK VINA RESULT:      -7.6      3.574      9.163
REMARK  Name = 
REMARK  4 active torsions:
REMARK  status: ('A' for Active; 'I' for Inactive)
REMARK    1  A    between atoms: C_2  and  C_3
REMARK    2  A    between atoms: C_3  and  O_4
REMARK    3  A    between atoms: O_4  and  C_5
REMARK    4  A    between atoms: C_15  and  C_16
REMARK                            x       y       z     vdW  Elec       q    Type
REMARK                         _______ _______ _______ _____ _____    ______ ____
ROOT
ATOM      1  O   UNL     1       1.510   8.824  19.724  0.00  0.00    +0.000 OA
ATOM      2  C   UNL     1       1.325   8.366  20.848  0.00  0.00    +0.000 C 
ATOM      3  N   UNL     1       1.479   7.048  21.214  0.00  0.00    +0.000 N 
ATOM      4  C   UNL     1       2.019   6.095  20.397  0.00  0.00    +0.000 A 
ATOM      5  N   UNL     1       2.075   4.808  20.657  0.00  0.00    +0.000 NA
ATOM      6  N   UNL     1       2.770   4.229  19.616  0.00  0.00    +0.000 NA
ATOM      7  C   UNL     1       3.120   5.211  18.807  0.00  0.00    +0.000 A 
ATOM      8  O   UNL     1       2.660   6.430  19.237  0.00  0.00    +0.000 OA
ATOM      9  H   UNL     1       1.136   6.711  22.102  0.00  0.00    +0.000 HD
ENDROOT
BRANCH   7  10
ATOM     10  C   UNL     1       3.970   5.171  17.620  0.00  0.00    +0.000 A 
ATOM     11  C   UNL     1       4.405   3.928  17.126  0.00  0.00    +0.000 A 
ATOM     12  C   UNL     1       5.294   3.853  16.047  0.00  0.00    +0.000 A 
ATOM     13  C   UNL     1       5.755   5.022  15.451  0.00  0.00    +0.000 A 
ATOM     14 CL   UNL     1       6.887   4.934  14.159  0.00  0.00    +0.000 Cl
ATOM     15  C   UNL     1       5.317   6.263  15.908  0.00  0.00    +0.000 A 
ATOM     16  C   UNL     1       4.423   6.337  16.985  0.00  0.00    +0.000 A 
ENDBRANCH   7  10
BRANCH   2  17
ATOM     17  C   UNL     1       0.931   9.265  22.026  0.00  0.00    +0.000 C 
BRANCH  17  18
ATOM     18  O   UNL     1       0.919  10.642  21.670  0.00  0.00    +0.000 OA
BRANCH  18  19
ATOM     19  C   UNL     1      -0.298  11.263  21.819  0.00  0.00    +0.000 A 
ATOM     20  C   UNL     1      -0.818  11.882  20.679  0.00  0.00    +0.000 A 
ATOM     21  C   UNL     1      -2.056  12.527  20.726  0.00  0.00    +0.000 A 
ATOM     22  C   UNL     1      -2.793  12.546  21.910  0.00  0.00    +0.000 A 
ATOM     23  C   UNL     1      -2.289  11.915  23.044  0.00  0.00    +0.000 A 
ATOM     24  C   UNL     1      -1.047  11.273  22.998  0.00  0.00    +0.000 A 
ENDBRANCH  18  19
ENDBRANCH  17  18
ENDBRANCH   2  17
TORSDOF 4
ENDMDL
