MODEL 1
REMARK VINA RESULT:      -6.2      0.000      0.000
REMARK  Name = 
REMARK  11 active torsions:
REMARK  status: ('A' for Active; 'I' for Inactive)
REMARK    1  A    between atoms: C_1  and  C_2
REMARK    2  A    between atoms: C_2  and  N_3
REMARK    3  A    between atoms: N_3  and  C_4
REMARK    4  A    between atoms: N_3  and  C_6
REMARK    5  A    between atoms: C_4  and  C_5
REMARK    6  A    between atoms: C_6  and  N_8
REMARK    7  A    between atoms: N_8  and  N_9
REMARK    8  A    between atoms: N_13  and  C_14
REMARK    9  A    between atoms: C_14  and  N_15
REMARK   10  A    between atoms: N_15  and  C_16
REMARK   11  A    between atoms: N_15  and  C_17
REMARK                            x       y       z     vdW  Elec       q    Type
REMARK                         _______ _______ _______ _____ _____    ______ ____
ROOT
ATOM      1  N   UNL     1       4.084   4.862  16.756  0.00  0.00    +0.000 NA
ATOM      2  C   UNL     1       3.366   5.241  17.769  0.00  0.00    +0.000 C 
ATOM      3  C   UNL     1       3.317   6.621  18.431  0.00  0.00    +0.000 C 
ATOM      4  O   UNL     1       3.881   7.603  17.993  0.00  0.00    +0.000 OA
ATOM      5  N   UNL     1       2.520   6.468  19.550  0.00  0.00    +0.000 N 
ATOM      6  C   UNL     1       2.011   5.159  19.619  0.00  0.00    +0.000 A 
ATOM      7  C   UNL     1       1.168   4.609  20.569  0.00  0.00    +0.000 A 
ATOM      8  C   UNL     1       0.797   3.267  20.422  0.00  0.00    +0.000 A 
ATOM      9  C   UNL     1       1.261   2.502  19.334  0.00  0.00    +0.000 A 
ATOM     10  C   UNL     1       2.120   3.062  18.382  0.00  0.00    +0.000 A 
ATOM     11  C   UNL     1       2.479   4.386  18.553  0.00  0.00    +0.000 A 
ENDROOT
BRANCH   1  12
ATOM     12  N   UNL     1       4.901   5.815  16.188  0.00  0.00    +0.000 N 
ATOM     13  H   UNL     1       4.443   6.599  15.733  0.00  0.00    +0.000 HD
BRANCH  12  14
ATOM     14  C   UNL     1       6.286   5.672  16.110  0.00  0.00    +0.000 C 
ATOM     15  S   UNL     1       7.024   4.813  14.857  0.00  0.00    +0.000 S 
BRANCH  14  16
ATOM     16  N   UNL     1       6.996   6.291  17.171  0.00  0.00    +0.000 N 
BRANCH  16  18
ATOM     17  C   UNL     1       8.273   8.173  18.248  0.00  0.00    +0.000 C 
ATOM     18  C   UNL     1       7.280   7.742  17.177  0.00  0.00    +0.000 C 
ENDBRANCH  16  18
BRANCH  16  19
ATOM     19  C   UNL     1       7.574   5.544  18.304  0.00  0.00    +0.000 C 
ATOM     20  C   UNL     1       6.579   5.300  19.429  0.00  0.00    +0.000 C 
ENDBRANCH  16  19
ENDBRANCH  14  16
ENDBRANCH  12  14
ENDBRANCH   1  12
BRANCH   5  21
ATOM     21  C   UNL     1       2.200   7.541  20.456  0.00  0.00    +0.000 C 
BRANCH  21  22
ATOM     22  N   UNL     1       0.934   8.179  20.082  0.00  0.00    +0.000 NA
ATOM     23  C   UNL     1       0.115   8.509  21.251  0.00  0.00    +0.000 C 
ATOM     24  C   UNL     1       1.196   9.396  19.311  0.00  0.00    +0.000 C 
ENDBRANCH  21  22
ENDBRANCH   5  21
TORSDOF 7
ENDMDL
MODEL 2
REMARK VINA RESULT:      -6.1      2.931      6.281
REMARK  Name = 
REMARK  11 active torsions:
REMARK  status: ('A' for Active; 'I' for Inactive)
REMARK    1  A    between atoms: C_1  and  C_2
REMARK    2  A    between atoms: C_2  and  N_3
REMARK    3  A    between atoms: N_3  and  C_4
REMARK    4  A    between atoms: N_3  and  C_6
REMARK    5  A    between atoms: C_4  and  C_5
REMARK    6  A    between atoms: C_6  and  N_8
REMARK    7  A    between atoms: N_8  and  N_9
REMARK    8  A    between atoms: N_13  and  C_14
REMARK    9  A    between atoms: C_14  and  N_15
REMARK   10  A    between atoms: N_15  and  C_16
REMARK   11  A    between atoms: N_15  and  C_17
REMARK                            x       y       z     vdW  Elec       q    Type
REMARK                         _______ _______ _______ _____ _____    ______ ____
ROOT
ATOM      1  N   UNL     1       2.660   8.171  18.196  0.00  0.00    +0.000 NA
ATOM      2  C   UNL     1       3.023   6.937  18.368  0.00  0.00    +0.000 C 
ATOM      3  C   UNL     1       2.606   5.974  19.483  0.00  0.00    +0.000 C 
ATOM      4  O   UNL     1       1.754   6.224  20.311  0.00  0.00    +0.000 OA
ATOM      5  N   UNL     1       3.377   4.841  19.303  0.00  0.00    +0.000 N 
ATOM      6  C   UNL     1       4.180   4.966  18.155  0.00  0.00    +0.000 A 
ATOM      7  C   UNL     1       5.076   4.055  17.623  0.00  0.00    +0.000 A 
ATOM      8  C   UNL     1       5.767   4.414  16.460  0.00  0.00    +0.000 A 
ATOM      9  C   UNL     1       5.550   5.662  15.844  0.00  0.00    +0.000 A 
ATOM     10  C   UNL     1       4.651   6.582  16.392  0.00  0.00    +0.000 A 
ATOM     11  C   UNL     1       3.986   6.209  17.545  0.00  0.00    +0.000 A 
ENDROOT
BRANCH   1  12
ATOM     12  N   UNL     1       1.779   8.689  19.120  0.00  0.00    +0.000 N 
ATOM     13  H   UNL     1       1.477   8.066  19.863  0.00  0.00    +0.000 HD
BRANCH  12  14
ATOM     14  C   UNL     1       1.210   9.956  18.993  0.00  0.00    +0.000 C 
ATOM     15  S   UNL     1       2.005  11.214  18.193  0.00  0.00    +0.000 S 
BRANCH  14  16
ATOM     16  N   UNL     1      -0.065  10.086  19.602  0.00  0.00    +0.000 N 
BRANCH  16  18
ATOM     17  C   UNL     1       0.174  10.127  22.107  0.00  0.00    +0.000 C 
ATOM     18  C   UNL     1      -0.389   9.420  20.881  0.00  0.00    +0.000 C 
ENDBRANCH  16  18
BRANCH  16  19
ATOM     19  C   UNL     1      -1.186  10.818  18.985  0.00  0.00    +0.000 C 
ATOM     20  C   UNL     1      -1.714  10.150  17.724  0.00  0.00    +0.000 C 
ENDBRANCH  16  19
ENDBRANCH  14  16
ENDBRANCH  12  14
ENDBRANCH   1  12
BRANCH   5  21
ATOM     21  C   UNL     1       3.287   3.671  20.139  0.00  0.00    +0.000 C 
BRANCH  21  22
ATOM     22  N   UNL     1       1.930   3.117  20.116  0.00  0.00    +0.000 NA
ATOM     23  C   UNL     1       1.796   2.024  19.150  0.00  0.00    +0.000 C 
ATOM     24  C   UNL     1       1.564   2.636  21.450  0.00  0.00    +0.000 C 
ENDBRANCH  21  22
ENDBRANCH   5  21
TORSDOF 7
ENDMDL
MODEL 3
REMARK VINA RESULT:      -6.0      2.598      6.227
REMARK  Name = 
REMARK  11 active torsions:
REMARK  status: ('A' for Active; 'I' for Inactive)
REMARK    1  A    between atoms: C_1  and  C_2
REMARK    2  A    between atoms: C_2  and  N_3
REMARK    3  A    between atoms: N_3  and  C_4
REMARK    4  A    between atoms: N_3  and  C_6
REMARK    5  A    between atoms: C_4  and  C_5
REMARK    6  A    between atoms: C_6  and  N_8
REMARK    7  A    between atoms: N_8  and  N_9
REMARK    8  A    between atoms: N_13  and  C_14
REMARK    9  A    between atoms: C_14  and  N_15
REMARK   10  A    between atoms: N_15  and  C_16
REMARK   11  A    between atoms: N_15  and  C_17
REMARK                            x       y       z     vdW  Elec       q    Type
REMARK                         _______ _______ _______ _____ _____    ______ ____
ROOT
ATOM      1  N   UNL     1       3.152   8.100  17.636  0.00  0.00    +0.000 NA
ATOM      2  C   UNL     1       3.600   6.927  17.967  0.00  0.00    +0.000 C 
ATOM      3  C   UNL     1       2.886   5.832  18.764  0.00  0.00    +0.000 C 
ATOM      4  O   UNL     1       1.719   5.886  19.096  0.00  0.00    +0.000 OA
ATOM      5  N   UNL     1       3.835   4.848  18.975  0.00  0.00    +0.000 N 
ATOM      6  C   UNL     1       5.042   5.180  18.335  0.00  0.00    +0.000 A 
ATOM      7  C   UNL     1       6.223   4.460  18.291  0.00  0.00    +0.000 A 
ATOM      8  C   UNL     1       7.301   5.006  17.584  0.00  0.00    +0.000 A 
ATOM      9  C   UNL     1       7.184   6.248  16.929  0.00  0.00    +0.000 A 
ATOM     10  C   UNL     1       5.990   6.975  16.986  0.00  0.00    +0.000 A 
ATOM     11  C   UNL     1       4.943   6.419  17.696  0.00  0.00    +0.000 A 
ENDROOT
BRANCH   1  12
ATOM     12  N   UNL     1       1.871   8.406  18.037  0.00  0.00    +0.000 N 
ATOM     13  H   UNL     1       1.148   7.726  17.820  0.00  0.00    +0.000 HD
BRANCH  12  14
ATOM     14  C   UNL     1       1.528   9.637  18.595  0.00  0.00    +0.000 C 
ATOM     15  S   UNL     1       2.176  11.088  18.020  0.00  0.00    +0.000 S 
BRANCH  14  16
ATOM     16  N   UNL     1       0.616   9.552  19.679  0.00  0.00    +0.000 N 
BRANCH  16  18
ATOM     17  C   UNL     1      -1.438  10.211  18.383  0.00  0.00    +0.000 C 
ATOM     18  C   UNL     1      -0.657  10.304  19.687  0.00  0.00    +0.000 C 
ENDBRANCH  16  18
BRANCH  16  19
ATOM     19  C   UNL     1       0.886   8.783  20.907  0.00  0.00    +0.000 C 
ATOM     20  C   UNL     1      -0.210   8.922  21.954  0.00  0.00    +0.000 C 
ENDBRANCH  16  19
ENDBRANCH  14  16
ENDBRANCH  12  14
ENDBRANCH   1  12
BRANCH   5  21
ATOM     21  C   UNL     1       3.569   3.620  19.680  0.00  0.00    +0.000 C 
BRANCH  21  22
ATOM     22  N   UNL     1       2.797   2.695  18.845  0.00  0.00    +0.000 NA
ATOM     23  C   UNL     1       3.584   1.527  18.441  0.00  0.00    +0.000 C 
ATOM     24  C   UNL     1       1.601   2.252  19.565  0.00  0.00    +0.000 C 
ENDBRANCH  21  22
ENDBRANCH   5  21
TORSDOF 7
ENDMDL
MODEL 4
REMARK VINA RESULT:      -6.0      3.158      5.982
REMARK  Name = 
REMARK  11 active torsions:
REMARK  status: ('A' for Active; 'I' for Inactive)
REMARK    1  A    between atoms: C_1  and  C_2
REMARK    2  A    between atoms: C_2  and  N_3
REMARK    3  A    between atoms: N_3  and  C_4
REMARK    4  A    between atoms: N_3  and  C_6
REMARK    5  A    between atoms: C_4  and  C_5
REMARK    6  A    between atoms: C_6  and  N_8
REMARK    7  A    between atoms: N_8  and  N_9
REMARK    8  A    between atoms: N_13  and  C_14
REMARK    9  A    between atoms: C_14  and  N_15
REMARK   10  A    between atoms: N_15  and  C_16
REMARK   11  A    between atoms: N_15  and  C_17
REMARK                            x       y       z     vdW  Elec       q    Type
REMARK                         _______ _______ _______ _____ _____    ______ ____
ROOT
ATOM      1  N   UNL     1       1.695   7.540  20.436  0.00  0.00    +0.000 NA
ATOM      2  C   UNL     1       1.184   8.725  20.289  0.00  0.00    +0.000 C 
ATOM      3  C   UNL     1       1.307   9.667  19.088  0.00  0.00    +0.000 C 
ATOM      4  O   UNL     1       1.822   9.357  18.033  0.00  0.00    +0.000 OA
ATOM      5  N   UNL     1       0.716  10.852  19.484  0.00  0.00    +0.000 N 
ATOM      6  C   UNL     1       0.176  10.728  20.777  0.00  0.00    +0.000 A 
ATOM      7  C   UNL     1      -0.505  11.673  21.524  0.00  0.00    +0.000 A 
ATOM      8  C   UNL     1      -0.948  11.309  22.800  0.00  0.00    +0.000 A 
ATOM      9  C   UNL     1      -0.714  10.016  23.307  0.00  0.00    +0.000 A 
ATOM     10  C   UNL     1      -0.017   9.068  22.552  0.00  0.00    +0.000 A 
ATOM     11  C   UNL     1       0.417   9.453  21.297  0.00  0.00    +0.000 A 
ENDROOT
BRANCH   1  12
ATOM     12  N   UNL     1       2.435   7.054  19.380  0.00  0.00    +0.000 N 
ATOM     13  H   UNL     1       2.541   7.664  18.575  0.00  0.00    +0.000 HD
BRANCH  12  14
ATOM     14  C   UNL     1       2.913   5.744  19.334  0.00  0.00    +0.000 C 
ATOM     15  S   UNL     1       4.566   5.396  19.380  0.00  0.00    +0.000 S 
BRANCH  14  16
ATOM     16  N   UNL     1       1.899   4.757  19.232  0.00  0.00    +0.000 N 
BRANCH  16  18
ATOM     17  C   UNL     1       2.529   3.242  17.325  0.00  0.00    +0.000 C 
ATOM     18  C   UNL     1       1.497   4.184  17.930  0.00  0.00    +0.000 C 
ENDBRANCH  16  18
BRANCH  16  19
ATOM     19  C   UNL     1       1.113   4.281  20.385  0.00  0.00    +0.000 C 
ATOM     20  C   UNL     1       1.773   3.124  21.121  0.00  0.00    +0.000 C 
ENDBRANCH  16  19
ENDBRANCH  14  16
ENDBRANCH  12  14
ENDBRANCH   1  12
BRANCH   5  21
ATOM     21  C   UNL     1       0.603  12.011  18.637  0.00  0.00    +0.000 C 
BRANCH  21  22
ATOM     22  N   UNL     1       1.555  13.050  19.043  0.00  0.00    +0.000 NA
ATOM     23  C   UNL     1       2.717  13.113  18.154  0.00  0.00    +0.000 C 
ATOM     24  C   UNL     1       0.889  14.354  19.068  0.00  0.00    +0.000 C 
ENDBRANCH  21  22
ENDBRANCH   5  21
TORSDOF 7
ENDMDL
MODEL 5
REMARK VINA RESULT:      -6.0      2.728      5.077
REMARK  Name = 
REMARK  11 active torsions:
REMARK  status: ('A' for Active; 'I' for Inactive)
REMARK    1  A    between atoms: C_1  and  C_2
REMARK    2  A    between atoms: C_2  and  N_3
REMARK    3  A    between atoms: N_3  and  C_4
REMARK    4  A    between atoms: N_3  and  C_6
REMARK    5  A    between atoms: C_4  and  C_5
REMARK    6  A    between atoms: C_6  and  N_8
REMARK    7  A    between atoms: N_8  and  N_9
REMARK    8  A    between atoms: N_13  and  C_14
REMARK    9  A    between atoms: C_14  and  N_15
REMARK   10  A    between atoms: N_15  and  C_16
REMARK   11  A    between atoms: N_15  and  C_17
REMARK                            x       y       z     vdW  Elec       q    Type
REMARK                         _______ _______ _______ _____ _____    ______ ____
ROOT
ATOM      1  N   UNL     1       2.065   7.618  19.679  0.00  0.00    +0.000 NA
ATOM      2  C   UNL     1       1.464   8.767  19.736  0.00  0.00    +0.000 C 
ATOM      3  C   UNL     1       1.433   9.873  18.677  0.00  0.00    +0.000 C 
ATOM      4  O   UNL     1       1.890   9.753  17.558  0.00  0.00    +0.000 OA
ATOM      5  N   UNL     1       0.792  10.942  19.275  0.00  0.00    +0.000 N 
ATOM      6  C   UNL     1       0.359  10.597  20.568  0.00  0.00    +0.000 A 
ATOM      7  C   UNL     1      -0.330  11.374  21.484  0.00  0.00    +0.000 A 
ATOM      8  C   UNL     1      -0.652  10.804  22.720  0.00  0.00    +0.000 A 
ATOM      9  C   UNL     1      -0.293   9.475  23.021  0.00  0.00    +0.000 A 
ATOM     10  C   UNL     1       0.412   8.699  22.095  0.00  0.00    +0.000 A 
ATOM     11  C   UNL     1       0.725   9.286  20.884  0.00  0.00    +0.000 A 
ENDROOT
BRANCH   1  12
ATOM     12  N   UNL     1       2.757   7.341  18.520  0.00  0.00    +0.000 N 
ATOM     13  H   UNL     1       2.802   8.081  17.825  0.00  0.00    +0.000 HD
BRANCH  12  14
ATOM     14  C   UNL     1       3.267   6.076  18.230  0.00  0.00    +0.000 C 
ATOM     15  S   UNL     1       2.259   4.743  17.982  0.00  0.00    +0.000 S 
BRANCH  14  16
ATOM     16  N   UNL     1       4.684   6.017  18.180  0.00  0.00    +0.000 N 
BRANCH  16  18
ATOM     17  C   UNL     1       5.275   6.037  15.734  0.00  0.00    +0.000 C 
ATOM     18  C   UNL     1       5.455   6.676  17.105  0.00  0.00    +0.000 C 
ENDBRANCH  16  18
BRANCH  16  19
ATOM     19  C   UNL     1       5.496   5.239  19.134  0.00  0.00    +0.000 C 
ATOM     20  C   UNL     1       6.975   5.593  19.088  0.00  0.00    +0.000 C 
ENDBRANCH  16  19
ENDBRANCH  14  16
ENDBRANCH  12  14
ENDBRANCH   1  12
BRANCH   5  21
ATOM     21  C   UNL     1       0.538  12.194  18.611  0.00  0.00    +0.000 C 
BRANCH  21  22
ATOM     22  N   UNL     1       1.475  13.226  19.064  0.00  0.00    +0.000 NA
ATOM     23  C   UNL     1       2.651  13.324  18.196  0.00  0.00    +0.000 C 
ATOM     24  C   UNL     1       0.800  14.524  19.121  0.00  0.00    +0.000 C 
ENDBRANCH  21  22
ENDBRANCH   5  21
TORSDOF 7
ENDMDL
MODEL 6
REMARK VINA RESULT:      -6.0      2.922      6.264
REMARK  Name = 
REMARK  11 active torsions:
REMARK  status: ('A' for Active; 'I' for Inactive)
REMARK    1  A    between atoms: C_1  and  C_2
REMARK    2  A    between atoms: C_2  and  N_3
REMARK    3  A    between atoms: N_3  and  C_4
REMARK    4  A    between atoms: N_3  and  C_6
REMARK    5  A    between atoms: C_4  and  C_5
REMARK    6  A    between atoms: C_6  and  N_8
REMARK    7  A    between atoms: N_8  and  N_9
REMARK    8  A    between atoms: N_13  and  C_14
REMARK    9  A    between atoms: C_14  and  N_15
REMARK   10  A    between atoms: N_15  and  C_16
REMARK   11  A    between atoms: N_15  and  C_17
REMARK                            x       y       z     vdW  Elec       q    Type
REMARK                         _______ _______ _______ _____ _____    ______ ____
ROOT
ATOM      1  N   UNL     1       1.570   7.349  20.407  0.00  0.00    +0.000 NA
ATOM      2  C   UNL     1       2.366   6.549  19.766  0.00  0.00    +0.000 C 
ATOM      3  C   UNL     1       3.168   6.832  18.492  0.00  0.00    +0.000 C 
ATOM      4  O   UNL     1       3.250   7.926  17.972  0.00  0.00    +0.000 OA
ATOM      5  N   UNL     1       3.733   5.622  18.133  0.00  0.00    +0.000 N 
ATOM      6  C   UNL     1       3.428   4.632  19.084  0.00  0.00    +0.000 A 
ATOM      7  C   UNL     1       3.812   3.302  19.101  0.00  0.00    +0.000 A 
ATOM      8  C   UNL     1       3.376   2.505  20.164  0.00  0.00    +0.000 A 
ATOM      9  C   UNL     1       2.576   3.042  21.192  0.00  0.00    +0.000 A 
ATOM     10  C   UNL     1       2.183   4.383  21.165  0.00  0.00    +0.000 A 
ATOM     11  C   UNL     1       2.620   5.149  20.100  0.00  0.00    +0.000 A 
ENDROOT
BRANCH   1  12
ATOM     12  N   UNL     1       1.427   8.619  19.893  0.00  0.00    +0.000 N 
ATOM     13  H   UNL     1       2.052   8.880  19.136  0.00  0.00    +0.000 HD
BRANCH  12  14
ATOM     14  C   UNL     1       0.568   9.566  20.450  0.00  0.00    +0.000 C 
ATOM     15  S   UNL     1       0.266   9.628  22.111  0.00  0.00    +0.000 S 
BRANCH  14  16
ATOM     16  N   UNL     1      -0.024  10.443  19.505  0.00  0.00    +0.000 N 
BRANCH  16  18
ATOM     17  C   UNL     1       0.349  12.924  19.319  0.00  0.00    +0.000 C 
ATOM     18  C   UNL     1      -0.498  11.791  19.881  0.00  0.00    +0.000 C 
ENDBRANCH  16  18
BRANCH  16  19
ATOM     19  C   UNL     1      -0.289  10.064  18.104  0.00  0.00    +0.000 C 
ATOM     20  C   UNL     1      -1.765  10.123  17.738  0.00  0.00    +0.000 C 
ENDBRANCH  16  19
ENDBRANCH  14  16
ENDBRANCH  12  14
ENDBRANCH   1  12
BRANCH   5  21
ATOM     21  C   UNL     1       4.587   5.449  16.986  0.00  0.00    +0.000 C 
BRANCH  21  22
ATOM     22  N   UNL     1       5.999   5.487  17.376  0.00  0.00    +0.000 NA
ATOM     23  C   UNL     1       6.809   4.533  16.614  0.00  0.00    +0.000 C 
ATOM     24  C   UNL     1       6.533   6.838  17.190  0.00  0.00    +0.000 C 
ENDBRANCH  21  22
ENDBRANCH   5  21
TORSDOF 7
ENDMDL
MODEL 7
REMARK VINA RESULT:      -6.0      2.793      5.784
REMARK  Name = 
REMARK  11 active torsions:
REMARK  status: ('A' for Active; 'I' for Inactive)
REMARK    1  A    between atoms: C_1  and  C_2
REMARK    2  A    between atoms: C_2  and  N_3
REMARK    3  A    between atoms: N_3  and  C_4
REMARK    4  A    between atoms: N_3  and  C_6
REMARK    5  A    between atoms: C_4  and  C_5
REMARK    6  A    between atoms: C_6  and  N_8
REMARK    7  A    between atoms: N_8  and  N_9
REMARK    8  A    between atoms: N_13  and  C_14
REMARK    9  A    between atoms: C_14  and  N_15
REMARK   10  A    between atoms: N_15  and  C_16
REMARK   11  A    between atoms: N_15  and  C_17
REMARK                            x       y       z     vdW  Elec       q    Type
REMARK                         _______ _______ _______ _____ _____    ______ ____
ROOT
ATOM      1  N   UNL     1       1.908   7.752  19.728  0.00  0.00    +0.000 NA
ATOM      2  C   UNL     1       1.346   8.921  19.779  0.00  0.00    +0.000 C 
ATOM      3  C   UNL     1       1.363  10.027  18.720  0.00  0.00    +0.000 C 
ATOM      4  O   UNL     1       1.828   9.892  17.606  0.00  0.00    +0.000 OA
ATOM      5  N   UNL     1       0.753  11.117  19.311  0.00  0.00    +0.000 N 
ATOM      6  C   UNL     1       0.293  10.787  20.599  0.00  0.00    +0.000 A 
ATOM      7  C   UNL     1      -0.379  11.587  21.508  0.00  0.00    +0.000 A 
ATOM      8  C   UNL     1      -0.733  11.028  22.740  0.00  0.00    +0.000 A 
ATOM      9  C   UNL     1      -0.422   9.688  23.044  0.00  0.00    +0.000 A 
ATOM     10  C   UNL     1       0.265   8.888  22.126  0.00  0.00    +0.000 A 
ATOM     11  C   UNL     1       0.611   9.465  20.919  0.00  0.00    +0.000 A 
ENDROOT
BRANCH   1  12
ATOM     12  N   UNL     1       2.603   7.452  18.577  0.00  0.00    +0.000 N 
ATOM     13  H   UNL     1       2.512   8.104  17.803  0.00  0.00    +0.000 HD
BRANCH  12  14
ATOM     14  C   UNL     1       3.297   6.254  18.404  0.00  0.00    +0.000 C 
ATOM     15  S   UNL     1       4.844   6.209  17.726  0.00  0.00    +0.000 S 
BRANCH  14  16
ATOM     16  N   UNL     1       2.585   5.103  18.830  0.00  0.00    +0.000 N 
BRANCH  16  18
ATOM     17  C   UNL     1       1.419   4.005  20.771  0.00  0.00    +0.000 C 
ATOM     18  C   UNL     1       2.714   4.570  20.203  0.00  0.00    +0.000 C 
ENDBRANCH  16  18
BRANCH  16  19
ATOM     19  C   UNL     1       1.731   4.301  17.934  0.00  0.00    +0.000 C 
ATOM     20  C   UNL     1       2.485   3.182  17.232  0.00  0.00    +0.000 C 
ENDBRANCH  16  19
ENDBRANCH  14  16
ENDBRANCH  12  14
ENDBRANCH   1  12
BRANCH   5  21
ATOM     21  C   UNL     1       0.548  12.377  18.645  0.00  0.00    +0.000 C 
BRANCH  21  22
ATOM     22  N   UNL     1       1.527  13.371  19.094  0.00  0.00    +0.000 NA
ATOM     23  C   UNL     1       2.657  13.491  18.170  0.00  0.00    +0.000 C 
ATOM     24  C   UNL     1       0.881  14.676  19.246  0.00  0.00    +0.000 C 
ENDBRANCH  21  22
ENDBRANCH   5  21
TORSDOF 7
ENDMDL
MODEL 8
REMARK VINA RESULT:      -6.0      3.036      6.222
REMARK  Name = 
REMARK  11 active torsions:
REMARK  status: ('A' for Active; 'I' for Inactive)
REMARK    1  A    between atoms: C_1  and  C_2
REMARK    2  A    between atoms: C_2  and  N_3
REMARK    3  A    between atoms: N_3  and  C_4
REMARK    4  A    between atoms: N_3  and  C_6
REMARK    5  A    between atoms: C_4  and  C_5
REMARK    6  A    between atoms: C_6  and  N_8
REMARK    7  A    between atoms: N_8  and  N_9
REMARK    8  A    between atoms: N_13  and  C_14
REMARK    9  A    between atoms: C_14  and  N_15
REMARK   10  A    between atoms: N_15  and  C_16
REMARK   11  A    between atoms: N_15  and  C_17
REMARK                            x       y       z     vdW  Elec       q    Type
REMARK                         _______ _______ _______ _____ _____    ______ ____
ROOT
ATOM      1  N   UNL     1       2.708   7.964  18.599  0.00  0.00    +0.000 NA
ATOM      2  C   UNL     1       2.948   6.700  18.420  0.00  0.00    +0.000 C 
ATOM      3  C   UNL     1       2.420   5.513  19.230  0.00  0.00    +0.000 C 
ATOM      4  O   UNL     1       1.583   5.607  20.105  0.00  0.00    +0.000 OA
ATOM      5  N   UNL     1       3.082   4.404  18.737  0.00  0.00    +0.000 N 
ATOM      6  C   UNL     1       3.911   4.762  17.659  0.00  0.00    +0.000 A 
ATOM      7  C   UNL     1       4.724   3.949  16.887  0.00  0.00    +0.000 A 
ATOM      8  C   UNL     1       5.466   4.545  15.861  0.00  0.00    +0.000 A 
ATOM      9  C   UNL     1       5.381   5.930  15.616  0.00  0.00    +0.000 A 
ATOM     10  C   UNL     1       4.566   6.747  16.405  0.00  0.00    +0.000 A 
ATOM     11  C   UNL     1       3.849   6.137  17.418  0.00  0.00    +0.000 A 
ENDROOT
BRANCH   1  12
ATOM     12  N   UNL     1       1.867   8.290  19.639  0.00  0.00    +0.000 N 
ATOM     13  H   UNL     1       1.844   7.651  20.428  0.00  0.00    +0.000 HD
BRANCH  12  14
ATOM     14  C   UNL     1       0.979   9.365  19.583  0.00  0.00    +0.000 C 
ATOM     15  S   UNL     1       0.389   9.959  18.116  0.00  0.00    +0.000 S 
BRANCH  14  16
ATOM     16  N   UNL     1       0.641   9.907  20.850  0.00  0.00    +0.000 N 
BRANCH  16  18
ATOM     17  C   UNL     1       1.348  12.319  20.737  0.00  0.00    +0.000 C 
ATOM     18  C   UNL     1       0.233  11.319  21.010  0.00  0.00    +0.000 C 
ENDBRANCH  16  18
BRANCH  16  19
ATOM     19  C   UNL     1       0.741   9.147  22.110  0.00  0.00    +0.000 C 
ATOM     20  C   UNL     1      -0.190   9.665  23.196  0.00  0.00    +0.000 C 
ENDBRANCH  16  19
ENDBRANCH  14  16
ENDBRANCH  12  14
ENDBRANCH   1  12
BRANCH   5  21
ATOM     21  C   UNL     1       2.864   3.064  19.219  0.00  0.00    +0.000 C 
BRANCH  21  22
ATOM     22  N   UNL     1       3.521   2.862  20.514  0.00  0.00    +0.000 NA
ATOM     23  C   UNL     1       2.574   2.460  21.557  0.00  0.00    +0.000 C 
ATOM     24  C   UNL     1       4.569   1.848  20.390  0.00  0.00    +0.000 C 
ENDBRANCH  21  22
ENDBRANCH   5  21
TORSDOF 7
ENDMDL
MODEL 9
REMARK VINA RESULT:      -5.9      2.783      6.121
REMARK  Name = 
REMARK  11 active torsions:
REMARK  status: ('A' for Active; 'I' for Inactive)
REMARK    1  A    between atoms: C_1  and  C_2
REMARK    2  A    between atoms: C_2  and  N_3
REMARK    3  A    between atoms: N_3  and  C_4
REMARK    4  A    between atoms: N_3  and  C_6
REMARK    5  A    between atoms: C_4  and  C_5
REMARK    6  A    between atoms: C_6  and  N_8
REMARK    7  A    between atoms: N_8  and  N_9
REMARK    8  A    between atoms: N_13  and  C_14
REMARK    9  A    between atoms: C_14  and  N_15
REMARK   10  A    between atoms: N_15  and  C_16
REMARK   11  A    between atoms: N_15  and  C_17
REMARK                            x       y       z     vdW  Elec       q    Type
REMARK                         _______ _______ _______ _____ _____    ______ ____
ROOT
ATOM      1  N   UNL     1       1.491   7.054  20.612  0.00  0.00    +0.000 NA
ATOM      2  C   UNL     1       2.146   6.247  19.834  0.00  0.00    +0.000 C 
ATOM      3  C   UNL     1       3.030   6.598  18.634  0.00  0.00    +0.000 C 
ATOM      4  O   UNL     1       3.333   7.732  18.324  0.00  0.00    +0.000 OA
ATOM      5  N   UNL     1       3.371   5.388  18.058  0.00  0.00    +0.000 N 
ATOM      6  C   UNL     1       2.853   4.319  18.810  0.00  0.00    +0.000 A 
ATOM      7  C   UNL     1       2.981   2.960  18.581  0.00  0.00    +0.000 A 
ATOM      8  C   UNL     1       2.366   2.081  19.480  0.00  0.00    +0.000 A 
ATOM      9  C   UNL     1       1.645   2.565  20.589  0.00  0.00    +0.000 A 
ATOM     10  C   UNL     1       1.512   3.939  20.809  0.00  0.00    +0.000 A 
ATOM     11  C   UNL     1       2.121   4.788  19.904  0.00  0.00    +0.000 A 
ENDROOT
BRANCH   1  12
ATOM     12  N   UNL     1       1.607   8.400  20.340  0.00  0.00    +0.000 N 
ATOM     13  H   UNL     1       2.506   8.722  19.996  0.00  0.00    +0.000 HD
BRANCH  12  14
ATOM     14  C   UNL     1       0.601   9.319  20.640  0.00  0.00    +0.000 C 
ATOM     15  S   UNL     1      -0.214   9.298  22.119  0.00  0.00    +0.000 S 
BRANCH  14  16
ATOM     16  N   UNL     1       0.326  10.242  19.598  0.00  0.00    +0.000 N 
BRANCH  16  18
ATOM     17  C   UNL     1      -1.781  10.156  18.226  0.00  0.00    +0.000 C 
ATOM     18  C   UNL     1      -1.027  10.796  19.384  0.00  0.00    +0.000 C 
ENDBRANCH  16  18
BRANCH  16  19
ATOM     19  C   UNL     1       1.330  10.662  18.603  0.00  0.00    +0.000 C 
ATOM     20  C   UNL     1       1.769  12.110  18.771  0.00  0.00    +0.000 C 
ENDBRANCH  16  19
ENDBRANCH  14  16
ENDBRANCH  12  14
ENDBRANCH   1  12
BRANCH   5  21
ATOM     21  C   UNL     1       4.217   5.266  16.898  0.00  0.00    +0.000 C 
BRANCH  21  22
ATOM     22  N   UNL     1       5.621   5.114  17.290  0.00  0.00    +0.000 NA
ATOM     23  C   UNL     1       6.348   4.206  16.400  0.00  0.00    +0.000 C 
ATOM     24  C   UNL     1       6.281   6.421  17.299  0.00  0.00    +0.000 C 
ENDBRANCH  21  22
ENDBRANCH   5  21
TORSDOF 7
ENDMDL
