MODEL 1
REMARK VINA RESULT:      -7.7      0.000      0.000
REMARK  Name = 
REMARK  7 active torsions:
REMARK  status: ('A' for Active; 'I' for Inactive)
REMARK    1  A    between atoms: N_1  and  C_2
REMARK    2  A    between atoms: N_10  and  C_11
REMARK    3  A    between atoms: C_13  and  C_14
REMARK    4  A    between atoms: C_14  and  O_15
REMARK    5  A    between atoms: O_15  and  C_16
REMARK    6  A    between atoms: C_19  and  O_20
REMARK    7  A    between atoms: C_21  and  O_22
REMARK                            x       y       z     vdW  Elec       q    Type
REMARK                         _______ _______ _______ _____ _____    ______ ____
ROOT
ATOM      1  C   UNL     1       5.308   5.077  17.464  0.00  0.00    +0.000 C 
ATOM      2  O   UNL     1       4.763   5.569  16.217  0.00  0.00    +0.000 OA
ATOM      3  C   UNL     1       5.704   5.320  15.143  0.00  0.00    +0.000 C 
ATOM      4  C   UNL     1       7.019   4.967  15.826  0.00  0.00    +0.000 C 
ATOM      5  C   UNL     1       6.572   4.287  17.113  0.00  0.00    +0.000 C 
ENDROOT
BRANCH   1  14
ATOM      6  C   UNL     1       1.550   3.951  20.304  0.00  0.00    +0.000 A 
ATOM      7  N   UNL     1       1.328   5.219  20.714  0.00  0.00    +0.000 NA
ATOM      8  C   UNL     1       2.150   6.192  20.256  0.00  0.00    +0.000 A 
ATOM      9  N   UNL     1       3.187   6.082  19.400  0.00  0.00    +0.000 NA
ATOM     10  C   UNL     1       3.353   4.807  19.013  0.00  0.00    +0.000 A 
ATOM     11  C   UNL     1       2.601   3.711  19.402  0.00  0.00    +0.000 A 
ATOM     12  N   UNL     1       3.055   2.561  18.785  0.00  0.00    +0.000 NA
ATOM     13  C   UNL     1       4.055   2.960  18.031  0.00  0.00    +0.000 A 
ATOM     14  N   UNL     1       4.293   4.305  18.150  0.00  0.00    +0.000 N 
BRANCH   6  15
ATOM     15  N   UNL     1       0.714   2.948  20.784  0.00  0.00    +0.000 N 
ATOM     16  H   UNL     1       0.017   2.669  20.109  0.00  0.00    +0.000 HD
ATOM     17  H   UNL     1       1.208   2.220  21.290  0.00  0.00    +0.000 HD
ENDBRANCH   6  15
ENDBRANCH   1  14
BRANCH   4  18
ATOM     18  O   UNL     1       7.759   6.151  16.183  0.00  0.00    +0.000 OA
ATOM     19  H   UNL     1       8.712   5.938  16.205  0.00  0.00    +0.000 HD
ENDBRANCH   4  18
BRANCH   5  20
ATOM     20  O   UNL     1       7.597   4.363  18.102  0.00  0.00    +0.000 OA
ATOM     21  H   UNL     1       7.459   5.208  18.583  0.00  0.00    +0.000 HD
ENDBRANCH   5  20
BRANCH   3  22
ATOM     22  C   UNL     1       5.188   4.204  14.225  0.00  0.00    +0.000 C 
BRANCH  22  23
ATOM     23  O   UNL     1       6.304   3.618  13.552  0.00  0.00    +0.000 OA
BRANCH  23  24
ATOM     24  C   UNL     1       6.135   3.518  12.126  0.00  0.00    +0.000 C 
ATOM     25  C   UNL     1       5.802   2.137  11.636  0.00  0.00    +0.000 C 
ATOM     26  C   UNL     1       4.746   3.203  11.651  0.00  0.00    +0.000 C 
ENDBRANCH  23  24
ENDBRANCH  22  23
ENDBRANCH   3  22
TORSDOF 7
ENDMDL
MODEL 2
REMARK VINA RESULT:      -7.5      1.269      1.488
REMARK  Name = 
REMARK  7 active torsions:
REMARK  status: ('A' for Active; 'I' for Inactive)
REMARK    1  A    between atoms: N_1  and  C_2
REMARK    2  A    between atoms: N_10  and  C_11
REMARK    3  A    between atoms: C_13  and  C_14
REMARK    4  A    between atoms: C_14  and  O_15
REMARK    5  A    between atoms: O_15  and  C_16
REMARK    6  A    between atoms: C_19  and  O_20
REMARK    7  A    between atoms: C_21  and  O_22
REMARK                            x       y       z     vdW  Elec       q    Type
REMARK                         _______ _______ _______ _____ _____    ______ ____
ROOT
ATOM      1  C   UNL     1       5.207   5.635  17.933  0.00  0.00    +0.000 C 
ATOM      2  O   UNL     1       5.425   6.025  16.557  0.00  0.00    +0.000 OA
ATOM      3  C   UNL     1       6.837   5.928  16.241  0.00  0.00    +0.000 C 
ATOM      4  C   UNL     1       7.547   5.798  17.584  0.00  0.00    +0.000 C 
ATOM      5  C   UNL     1       6.531   5.060  18.445  0.00  0.00    +0.000 C 
ENDROOT
BRANCH   1  14
ATOM      6  C   UNL     1       1.178   3.405  19.432  0.00  0.00    +0.000 A 
ATOM      7  N   UNL     1       1.010   4.185  20.523  0.00  0.00    +0.000 NA
ATOM      8  C   UNL     1       1.928   5.149  20.765  0.00  0.00    +0.000 A 
ATOM      9  N   UNL     1       3.016   5.475  20.038  0.00  0.00    +0.000 NA
ATOM     10  C   UNL     1       3.127   4.682  18.962  0.00  0.00    +0.000 A 
ATOM     11  C   UNL     1       2.276   3.654  18.591  0.00  0.00    +0.000 A 
ATOM     12  N   UNL     1       2.698   3.069  17.413  0.00  0.00    +0.000 NA
ATOM     13  C   UNL     1       3.776   3.740  17.074  0.00  0.00    +0.000 A 
ATOM     14  N   UNL     1       4.094   4.711  17.990  0.00  0.00    +0.000 N 
BRANCH   6  15
ATOM     15  N   UNL     1       0.243   2.404  19.189  0.00  0.00    +0.000 N 
ATOM     16  H   UNL     1       0.629   1.634  18.661  0.00  0.00    +0.000 HD
ATOM     17  H   UNL     1      -0.336   2.188  19.995  0.00  0.00    +0.000 HD
ENDBRANCH   6  15
ENDBRANCH   1  14
BRANCH   4  18
ATOM     18  O   UNL     1       7.781   7.089  18.180  0.00  0.00    +0.000 OA
ATOM     19  H   UNL     1       6.968   7.626  18.109  0.00  0.00    +0.000 HD
ENDBRANCH   4  18
BRANCH   5  20
ATOM     20  O   UNL     1       6.773   5.308  19.829  0.00  0.00    +0.000 OA
ATOM     21  H   UNL     1       7.237   6.172  19.882  0.00  0.00    +0.000 HD
ENDBRANCH   5  20
BRANCH   3  22
ATOM     22  C   UNL     1       7.099   4.739  15.309  0.00  0.00    +0.000 C 
BRANCH  22  23
ATOM     23  O   UNL     1       6.048   4.682  14.342  0.00  0.00    +0.000 OA
BRANCH  23  24
ATOM     24  C   UNL     1       6.103   3.519  13.494  0.00  0.00    +0.000 C 
ATOM     25  C   UNL     1       5.225   3.597  12.277  0.00  0.00    +0.000 C 
ATOM     26  C   UNL     1       6.713   3.723  12.139  0.00  0.00    +0.000 C 
ENDBRANCH  23  24
ENDBRANCH  22  23
ENDBRANCH   3  22
TORSDOF 7
ENDMDL
MODEL 3
REMARK VINA RESULT:      -7.4      3.451      6.233
REMARK  Name = 
REMARK  7 active torsions:
REMARK  status: ('A' for Active; 'I' for Inactive)
REMARK    1  A    between atoms: N_1  and  C_2
REMARK    2  A    between atoms: N_10  and  C_11
REMARK    3  A    between atoms: C_13  and  C_14
REMARK    4  A    between atoms: C_14  and  O_15
REMARK    5  A    between atoms: O_15  and  C_16
REMARK    6  A    between atoms: C_19  and  O_20
REMARK    7  A    between atoms: C_21  and  O_22
REMARK                            x       y       z     vdW  Elec       q    Type
REMARK                         _______ _______ _______ _____ _____    ______ ____
ROOT
ATOM      1  C   UNL     1       4.562   3.454  17.439  0.00  0.00    +0.000 C 
ATOM      2  O   UNL     1       3.289   3.386  16.755  0.00  0.00    +0.000 OA
ATOM      3  C   UNL     1       2.283   2.851  17.652  0.00  0.00    +0.000 C 
ATOM      4  C   UNL     1       3.055   2.254  18.822  0.00  0.00    +0.000 C 
ATOM      5  C   UNL     1       4.290   3.140  18.913  0.00  0.00    +0.000 C 
ENDROOT
BRANCH   1  14
ATOM      6  C   UNL     1       7.489   7.293  17.833  0.00  0.00    +0.000 A 
ATOM      7  N   UNL     1       8.230   6.773  18.836  0.00  0.00    +0.000 NA
ATOM      8  C   UNL     1       7.899   5.548  19.307  0.00  0.00    +0.000 A 
ATOM      9  N   UNL     1       6.913   4.726  18.891  0.00  0.00    +0.000 NA
ATOM     10  C   UNL     1       6.219   5.283  17.886  0.00  0.00    +0.000 A 
ATOM     11  C   UNL     1       6.434   6.525  17.310  0.00  0.00    +0.000 A 
ATOM     12  N   UNL     1       5.533   6.754  16.289  0.00  0.00    +0.000 NA
ATOM     13  C   UNL     1       4.796   5.666  16.244  0.00  0.00    +0.000 A 
ATOM     14  N   UNL     1       5.153   4.755  17.205  0.00  0.00    +0.000 N 
BRANCH   6  15
ATOM     15  N   UNL     1       7.819   8.557  17.358  0.00  0.00    +0.000 N 
ATOM     16  H   UNL     1       8.799   8.641  17.128  0.00  0.00    +0.000 HD
ATOM     17  H   UNL     1       7.141   8.931  16.701  0.00  0.00    +0.000 HD
ENDBRANCH   6  15
ENDBRANCH   1  14
BRANCH   4  18
ATOM     18  O   UNL     1       3.492   0.912  18.531  0.00  0.00    +0.000 OA
ATOM     19  H   UNL     1       3.933   0.901  17.660  0.00  0.00    +0.000 HD
ENDBRANCH   4  18
BRANCH   5  20
ATOM     20  O   UNL     1       5.355   2.451  19.565  0.00  0.00    +0.000 OA
ATOM     21  H   UNL     1       6.048   2.300  18.886  0.00  0.00    +0.000 HD
ENDBRANCH   5  20
BRANCH   3  22
ATOM     22  C   UNL     1       1.305   3.953  18.080  0.00  0.00    +0.000 C 
BRANCH  22  23
ATOM     23  O   UNL     1       0.872   3.681  19.415  0.00  0.00    +0.000 OA
BRANCH  23  24
ATOM     24  C   UNL     1       0.967   4.814  20.297  0.00  0.00    +0.000 C 
ATOM     25  C   UNL     1       2.108   4.746  21.273  0.00  0.00    +0.000 C 
ATOM     26  C   UNL     1       2.170   5.691  20.111  0.00  0.00    +0.000 C 
ENDBRANCH  23  24
ENDBRANCH  22  23
ENDBRANCH   3  22
TORSDOF 7
ENDMDL
MODEL 4
REMARK VINA RESULT:      -7.3      0.910      1.949
REMARK  Name = 
REMARK  7 active torsions:
REMARK  status: ('A' for Active; 'I' for Inactive)
REMARK    1  A    between atoms: N_1  and  C_2
REMARK    2  A    between atoms: N_10  and  C_11
REMARK    3  A    between atoms: C_13  and  C_14
REMARK    4  A    between atoms: C_14  and  O_15
REMARK    5  A    between atoms: O_15  and  C_16
REMARK    6  A    between atoms: C_19  and  O_20
REMARK    7  A    between atoms: C_21  and  O_22
REMARK                            x       y       z     vdW  Elec       q    Type
REMARK                         _______ _______ _______ _____ _____    ______ ____
ROOT
ATOM      1  C   UNL     1       5.118   5.929  17.694  0.00  0.00    +0.000 C 
ATOM      2  O   UNL     1       4.774   6.155  16.307  0.00  0.00    +0.000 OA
ATOM      3  C   UNL     1       5.764   5.529  15.452  0.00  0.00    +0.000 C 
ATOM      4  C   UNL     1       6.940   5.199  16.363  0.00  0.00    +0.000 C 
ATOM      5  C   UNL     1       6.275   4.925  17.705  0.00  0.00    +0.000 C 
ENDROOT
BRANCH   1  14
ATOM      6  C   UNL     1       1.606   3.066  19.403  0.00  0.00    +0.000 A 
ATOM      7  N   UNL     1       2.051   1.950  18.784  0.00  0.00    +0.000 NA
ATOM      8  C   UNL     1       3.150   2.050  18.001  0.00  0.00    +0.000 A 
ATOM      9  N   UNL     1       3.911   3.137  17.755  0.00  0.00    +0.000 NA
ATOM     10  C   UNL     1       3.435   4.210  18.405  0.00  0.00    +0.000 A 
ATOM     11  C   UNL     1       2.322   4.262  19.228  0.00  0.00    +0.000 A 
ATOM     12  N   UNL     1       2.148   5.535  19.737  0.00  0.00    +0.000 NA
ATOM     13  C   UNL     1       3.143   6.233  19.238  0.00  0.00    +0.000 A 
ATOM     14  N   UNL     1       3.938   5.486  18.406  0.00  0.00    +0.000 N 
BRANCH   6  15
ATOM     15  N   UNL     1       0.467   2.968  20.197  0.00  0.00    +0.000 N 
ATOM     16  H   UNL     1       0.647   3.204  21.162  0.00  0.00    +0.000 HD
ATOM     17  H   UNL     1      -0.364   3.350  19.758  0.00  0.00    +0.000 HD
ENDBRANCH   6  15
ENDBRANCH   1  14
BRANCH   4  18
ATOM     18  O   UNL     1       7.813   6.334  16.523  0.00  0.00    +0.000 OA
ATOM     19  H   UNL     1       8.721   6.076  16.270  0.00  0.00    +0.000 HD
ENDBRANCH   4  18
BRANCH   5  20
ATOM     20  O   UNL     1       7.202   5.120  18.772  0.00  0.00    +0.000 OA
ATOM     21  H   UNL     1       6.725   4.898  19.601  0.00  0.00    +0.000 HD
ENDBRANCH   5  20
BRANCH   3  22
ATOM     22  C   UNL     1       5.174   4.291  14.764  0.00  0.00    +0.000 C 
BRANCH  22  23
ATOM     23  O   UNL     1       6.228   3.602  14.089  0.00  0.00    +0.000 OA
BRANCH  23  24
ATOM     24  C   UNL     1       6.205   3.767  12.659  0.00  0.00    +0.000 C 
ATOM     25  C   UNL     1       6.113   2.480  11.888  0.00  0.00    +0.000 C 
ATOM     26  C   UNL     1       4.924   3.390  11.975  0.00  0.00    +0.000 C 
ENDBRANCH  23  24
ENDBRANCH  22  23
ENDBRANCH   3  22
TORSDOF 7
ENDMDL
MODEL 5
REMARK VINA RESULT:      -7.1      3.446      5.972
REMARK  Name = 
REMARK  7 active torsions:
REMARK  status: ('A' for Active; 'I' for Inactive)
REMARK    1  A    between atoms: N_1  and  C_2
REMARK    2  A    between atoms: N_10  and  C_11
REMARK    3  A    between atoms: C_13  and  C_14
REMARK    4  A    between atoms: C_14  and  O_15
REMARK    5  A    between atoms: O_15  and  C_16
REMARK    6  A    between atoms: C_19  and  O_20
REMARK    7  A    between atoms: C_21  and  O_22
REMARK                            x       y       z     vdW  Elec       q    Type
REMARK                         _______ _______ _______ _____ _____    ______ ____
ROOT
ATOM      1  C   UNL     1       4.455   3.554  17.485  0.00  0.00    +0.000 C 
ATOM      2  O   UNL     1       3.120   3.639  16.934  0.00  0.00    +0.000 OA
ATOM      3  C   UNL     1       2.154   3.220  17.931  0.00  0.00    +0.000 C 
ATOM      4  C   UNL     1       2.965   2.531  19.021  0.00  0.00    +0.000 C 
ATOM      5  C   UNL     1       4.298   3.266  18.982  0.00  0.00    +0.000 C 
ENDROOT
BRANCH   1  14
ATOM      6  C   UNL     1       7.614   7.211  17.805  0.00  0.00    +0.000 A 
ATOM      7  N   UNL     1       8.201   6.761  18.936  0.00  0.00    +0.000 NA
ATOM      8  C   UNL     1       7.727   5.622  19.492  0.00  0.00    +0.000 A 
ATOM      9  N   UNL     1       6.730   4.825  19.055  0.00  0.00    +0.000 NA
ATOM     10  C   UNL     1       6.193   5.309  17.925  0.00  0.00    +0.000 A 
ATOM     11  C   UNL     1       6.564   6.460  17.249  0.00  0.00    +0.000 A 
ATOM     12  N   UNL     1       5.797   6.631  16.113  0.00  0.00    +0.000 NA
ATOM     13  C   UNL     1       4.987   5.596  16.098  0.00  0.00    +0.000 A 
ATOM     14  N   UNL     1       5.167   4.778  17.185  0.00  0.00    +0.000 N 
BRANCH   6  15
ATOM     15  N   UNL     1       8.090   8.390  17.240  0.00  0.00    +0.000 N 
ATOM     16  H   UNL     1       7.415   8.827  16.631  0.00  0.00    +0.000 HD
ATOM     17  H   UNL     1       8.592   8.978  17.898  0.00  0.00    +0.000 HD
ENDBRANCH   6  15
ENDBRANCH   1  14
BRANCH   4  18
ATOM     18  O   UNL     1       3.211   1.148  18.696  0.00  0.00    +0.000 OA
ATOM     19  H   UNL     1       2.728   0.581  19.328  0.00  0.00    +0.000 HD
ENDBRANCH   4  18
BRANCH   5  20
ATOM     20  O   UNL     1       5.336   2.453  19.527  0.00  0.00    +0.000 OA
ATOM     21  H   UNL     1       5.213   1.554  19.153  0.00  0.00    +0.000 HD
ENDBRANCH   5  20
BRANCH   3  22
ATOM     22  C   UNL     1       1.360   4.426  18.448  0.00  0.00    +0.000 C 
BRANCH  22  23
ATOM     23  O   UNL     1       1.851   5.603  17.803  0.00  0.00    +0.000 OA
BRANCH  23  24
ATOM     24  C   UNL     1       2.610   6.466  18.669  0.00  0.00    +0.000 C 
ATOM     25  C   UNL     1       2.603   7.913  18.264  0.00  0.00    +0.000 C 
ATOM     26  C   UNL     1       1.817   7.465  19.460  0.00  0.00    +0.000 C 
ENDBRANCH  23  24
ENDBRANCH  22  23
ENDBRANCH   3  22
TORSDOF 7
ENDMDL
MODEL 6
REMARK VINA RESULT:      -7.0      3.301      5.418
REMARK  Name = 
REMARK  7 active torsions:
REMARK  status: ('A' for Active; 'I' for Inactive)
REMARK    1  A    between atoms: N_1  and  C_2
REMARK    2  A    between atoms: N_10  and  C_11
REMARK    3  A    between atoms: C_13  and  C_14
REMARK    4  A    between atoms: C_14  and  O_15
REMARK    5  A    between atoms: O_15  and  C_16
REMARK    6  A    between atoms: C_19  and  O_20
REMARK    7  A    between atoms: C_21  and  O_22
REMARK                            x       y       z     vdW  Elec       q    Type
REMARK                         _______ _______ _______ _____ _____    ______ ____
ROOT
ATOM      1  C   UNL     1       3.023   5.693  19.614  0.00  0.00    +0.000 C 
ATOM      2  O   UNL     1       4.467   5.611  19.579  0.00  0.00    +0.000 OA
ATOM      3  C   UNL     1       4.869   4.316  19.065  0.00  0.00    +0.000 C 
ATOM      4  C   UNL     1       3.614   3.453  19.109  0.00  0.00    +0.000 C 
ATOM      5  C   UNL     1       2.492   4.457  18.882  0.00  0.00    +0.000 C 
ENDROOT
BRANCH   1  14
ATOM      6  C   UNL     1       1.012  10.073  19.132  0.00  0.00    +0.000 A 
ATOM      7  N   UNL     1       0.513  10.112  20.387  0.00  0.00    +0.000 NA
ATOM      8  C   UNL     1       0.715   9.041  21.189  0.00  0.00    +0.000 A 
ATOM      9  N   UNL     1       1.387   7.903  20.917  0.00  0.00    +0.000 NA
ATOM     10  C   UNL     1       1.873   7.922  19.666  0.00  0.00    +0.000 A 
ATOM     11  C   UNL     1       1.739   8.937  18.734  0.00  0.00    +0.000 A 
ATOM     12  N   UNL     1       2.387   8.612  17.558  0.00  0.00    +0.000 NA
ATOM     13  C   UNL     1       2.911   7.428  17.782  0.00  0.00    +0.000 A 
ATOM     14  N   UNL     1       2.609   6.953  19.034  0.00  0.00    +0.000 N 
BRANCH   6  15
ATOM     15  N   UNL     1       0.793  11.167  18.302  0.00  0.00    +0.000 N 
ATOM     16  H   UNL     1       1.653  11.584  17.976  0.00  0.00    +0.000 HD
ATOM     17  H   UNL     1       0.048  11.020  17.629  0.00  0.00    +0.000 HD
ENDBRANCH   6  15
ENDBRANCH   1  14
BRANCH   4  18
ATOM     18  O   UNL     1       3.427   2.865  20.411  0.00  0.00    +0.000 OA
ATOM     19  H   UNL     1       3.652   3.525  21.095  0.00  0.00    +0.000 HD
ENDBRANCH   4  18
BRANCH   5  20
ATOM     20  O   UNL     1       1.261   3.960  19.404  0.00  0.00    +0.000 OA
ATOM     21  H   UNL     1       0.682   4.739  19.547  0.00  0.00    +0.000 HD
ENDBRANCH   5  20
BRANCH   3  22
ATOM     22  C   UNL     1       5.451   4.456  17.653  0.00  0.00    +0.000 C 
BRANCH  22  23
ATOM     23  O   UNL     1       5.805   5.824  17.442  0.00  0.00    +0.000 OA
BRANCH  23  24
ATOM     24  C   UNL     1       7.226   6.052  17.379  0.00  0.00    +0.000 C 
ATOM     25  C   UNL     1       7.635   7.480  17.602  0.00  0.00    +0.000 C 
ATOM     26  C   UNL     1       7.884   6.453  18.666  0.00  0.00    +0.000 C 
ENDBRANCH  23  24
ENDBRANCH  22  23
ENDBRANCH   3  22
TORSDOF 7
ENDMDL
MODEL 7
REMARK VINA RESULT:      -7.0      2.690      4.801
REMARK  Name = 
REMARK  7 active torsions:
REMARK  status: ('A' for Active; 'I' for Inactive)
REMARK    1  A    between atoms: N_1  and  C_2
REMARK    2  A    between atoms: N_10  and  C_11
REMARK    3  A    between atoms: C_13  and  C_14
REMARK    4  A    between atoms: C_14  and  O_15
REMARK    5  A    between atoms: O_15  and  C_16
REMARK    6  A    between atoms: C_19  and  O_20
REMARK    7  A    between atoms: C_21  and  O_22
REMARK                            x       y       z     vdW  Elec       q    Type
REMARK                         _______ _______ _______ _____ _____    ______ ____
ROOT
ATOM      1  C   UNL     1       5.768   4.577  17.556  0.00  0.00    +0.000 C 
ATOM      2  O   UNL     1       6.849   5.301  18.189  0.00  0.00    +0.000 OA
ATOM      3  C   UNL     1       7.456   6.205  17.232  0.00  0.00    +0.000 C 
ATOM      4  C   UNL     1       6.938   5.763  15.868  0.00  0.00    +0.000 C 
ATOM      5  C   UNL     1       5.550   5.219  16.183  0.00  0.00    +0.000 C 
ENDROOT
BRANCH   1  14
ATOM      6  C   UNL     1       1.532   3.402  19.590  0.00  0.00    +0.000 A 
ATOM      7  N   UNL     1       1.319   2.325  18.803  0.00  0.00    +0.000 NA
ATOM      8  C   UNL     1       2.236   2.037  17.851  0.00  0.00    +0.000 A 
ATOM      9  N   UNL     1       3.390   2.679  17.575  0.00  0.00    +0.000 NA
ATOM     10  C   UNL     1       3.560   3.729  18.393  0.00  0.00    +0.000 A 
ATOM     11  C   UNL     1       2.708   4.149  19.401  0.00  0.00    +0.000 A 
ATOM     12  N   UNL     1       3.220   5.258  20.046  0.00  0.00    +0.000 NA
ATOM     13  C   UNL     1       4.365   5.494  19.445  0.00  0.00    +0.000 A 
ATOM     14  N   UNL     1       4.608   4.614  18.422  0.00  0.00    +0.000 N 
BRANCH   6  15
ATOM     15  N   UNL     1       0.582   3.708  20.559  0.00  0.00    +0.000 N 
ATOM     16  H   UNL     1       0.888   3.465  21.490  0.00  0.00    +0.000 HD
ATOM     17  H   UNL     1       0.142   4.612  20.422  0.00  0.00    +0.000 HD
ENDBRANCH   6  15
ENDBRANCH   1  14
BRANCH   4  18
ATOM     18  O   UNL     1       7.727   4.683  15.332  0.00  0.00    +0.000 OA
ATOM     19  H   UNL     1       8.668   4.945  15.332  0.00  0.00    +0.000 HD
ENDBRANCH   4  18
BRANCH   5  20
ATOM     20  O   UNL     1       5.132   4.301  15.174  0.00  0.00    +0.000 OA
ATOM     21  H   UNL     1       5.204   4.774  14.317  0.00  0.00    +0.000 HD
ENDBRANCH   5  20
BRANCH   3  22
ATOM     22  C   UNL     1       7.100   7.658  17.565  0.00  0.00    +0.000 C 
BRANCH  22  23
ATOM     23  O   UNL     1       8.307   8.422  17.610  0.00  0.00    +0.000 OA
BRANCH  23  24
ATOM     24  C   UNL     1       8.157   9.708  18.240  0.00  0.00    +0.000 C 
ATOM     25  C   UNL     1       9.202  10.018  19.274  0.00  0.00    +0.000 C 
ATOM     26  C   UNL     1       9.231  10.713  17.945  0.00  0.00    +0.000 C 
ENDBRANCH  23  24
ENDBRANCH  22  23
ENDBRANCH   3  22
TORSDOF 7
ENDMDL
MODEL 8
REMARK VINA RESULT:      -7.0      2.592      4.281
REMARK  Name = 
REMARK  7 active torsions:
REMARK  status: ('A' for Active; 'I' for Inactive)
REMARK    1  A    between atoms: N_1  and  C_2
REMARK    2  A    between atoms: N_10  and  C_11
REMARK    3  A    between atoms: C_13  and  C_14
REMARK    4  A    between atoms: C_14  and  O_15
REMARK    5  A    between atoms: O_15  and  C_16
REMARK    6  A    between atoms: C_19  and  O_20
REMARK    7  A    between atoms: C_21  and  O_22
REMARK                            x       y       z     vdW  Elec       q    Type
REMARK                         _______ _______ _______ _____ _____    ______ ____
ROOT
ATOM      1  C   UNL     1       3.788   5.534  19.122  0.00  0.00    +0.000 C 
ATOM      2  O   UNL     1       5.163   5.815  19.474  0.00  0.00    +0.000 OA
ATOM      3  C   UNL     1       6.031   4.818  18.880  0.00  0.00    +0.000 C 
ATOM      4  C   UNL     1       5.109   3.691  18.428  0.00  0.00    +0.000 C 
ATOM      5  C   UNL     1       3.819   4.418  18.073  0.00  0.00    +0.000 C 
ENDROOT
BRANCH   1  14
ATOM      6  C   UNL     1       1.062   9.538  19.085  0.00  0.00    +0.000 A 
ATOM      7  N   UNL     1       0.588   9.368  20.339  0.00  0.00    +0.000 NA
ATOM      8  C   UNL     1       0.981   8.272  21.029  0.00  0.00    +0.000 A 
ATOM      9  N   UNL     1       1.829   7.296  20.643  0.00  0.00    +0.000 NA
ATOM     10  C   UNL     1       2.281   7.521  19.400  0.00  0.00    +0.000 A 
ATOM     11  C   UNL     1       1.962   8.586  18.574  0.00  0.00    +0.000 A 
ATOM     12  N   UNL     1       2.633   8.492  17.370  0.00  0.00    +0.000 NA
ATOM     13  C   UNL     1       3.352   7.397  17.474  0.00  0.00    +0.000 A 
ATOM     14  N   UNL     1       3.158   6.757  18.672  0.00  0.00    +0.000 N 
BRANCH   6  15
ATOM     15  N   UNL     1       0.647  10.656  18.370  0.00  0.00    +0.000 N 
ATOM     16  H   UNL     1       0.574  10.476  17.379  0.00  0.00    +0.000 HD
ATOM     17  H   UNL     1      -0.106  11.166  18.820  0.00  0.00    +0.000 HD
ENDBRANCH   6  15
ENDBRANCH   1  14
BRANCH   4  18
ATOM     18  O   UNL     1       4.824   2.782  19.509  0.00  0.00    +0.000 OA
ATOM     19  H   UNL     1       4.385   1.987  19.150  0.00  0.00    +0.000 HD
ENDBRANCH   4  18
BRANCH   5  20
ATOM     20  O   UNL     1       2.707   3.527  18.143  0.00  0.00    +0.000 OA
ATOM     21  H   UNL     1       3.052   2.632  17.934  0.00  0.00    +0.000 HD
ENDBRANCH   5  20
BRANCH   3  22
ATOM     22  C   UNL     1       6.840   5.427  17.728  0.00  0.00    +0.000 C 
BRANCH  22  23
ATOM     23  O   UNL     1       7.166   4.387  16.803  0.00  0.00    +0.000 OA
BRANCH  23  24
ATOM     24  C   UNL     1       7.033   4.776  15.424  0.00  0.00    +0.000 C 
ATOM     25  C   UNL     1       6.105   3.908  14.621  0.00  0.00    +0.000 C 
ATOM     26  C   UNL     1       5.685   5.293  15.015  0.00  0.00    +0.000 C 
ENDBRANCH  23  24
ENDBRANCH  22  23
ENDBRANCH   3  22
TORSDOF 7
ENDMDL
MODEL 9
REMARK VINA RESULT:      -7.0      3.007      4.929
REMARK  Name = 
REMARK  7 active torsions:
REMARK  status: ('A' for Active; 'I' for Inactive)
REMARK    1  A    between atoms: N_1  and  C_2
REMARK    2  A    between atoms: N_10  and  C_11
REMARK    3  A    between atoms: C_13  and  C_14
REMARK    4  A    between atoms: C_14  and  O_15
REMARK    5  A    between atoms: O_15  and  C_16
REMARK    6  A    between atoms: C_19  and  O_20
REMARK    7  A    between atoms: C_21  and  O_22
REMARK                            x       y       z     vdW  Elec       q    Type
REMARK                         _______ _______ _______ _____ _____    ______ ____
ROOT
ATOM      1  C   UNL     1       3.098   5.585  19.639  0.00  0.00    +0.000 C 
ATOM      2  O   UNL     1       4.243   5.063  18.925  0.00  0.00    +0.000 OA
ATOM      3  C   UNL     1       4.026   3.663  18.615  0.00  0.00    +0.000 C 
ATOM      4  C   UNL     1       2.845   3.233  19.476  0.00  0.00    +0.000 C 
ATOM      5  C   UNL     1       2.014   4.504  19.588  0.00  0.00    +0.000 C 
ENDROOT
BRANCH   1  14
ATOM      6  C   UNL     1       1.078   9.951  19.076  0.00  0.00    +0.000 A 
ATOM      7  N   UNL     1       0.501   9.972  20.298  0.00  0.00    +0.000 NA
ATOM      8  C   UNL     1       0.662   8.894  21.099  0.00  0.00    +0.000 A 
ATOM      9  N   UNL     1       1.361   7.765  20.859  0.00  0.00    +0.000 NA
ATOM     10  C   UNL     1       1.925   7.802  19.642  0.00  0.00    +0.000 A 
ATOM     11  C   UNL     1       1.839   8.826  18.712  0.00  0.00    +0.000 A 
ATOM     12  N   UNL     1       2.564   8.520  17.577  0.00  0.00    +0.000 NA
ATOM     13  C   UNL     1       3.084   7.338  17.822  0.00  0.00    +0.000 A 
ATOM     14  N   UNL     1       2.709   6.847  19.047  0.00  0.00    +0.000 N 
BRANCH   6  15
ATOM     15  N   UNL     1       0.901  11.052  18.245  0.00  0.00    +0.000 N 
ATOM     16  H   UNL     1       0.191  11.684  18.586  0.00  0.00    +0.000 HD
ATOM     17  H   UNL     1       1.772  11.449  17.910  0.00  0.00    +0.000 HD
ENDBRANCH   6  15
ENDBRANCH   1  14
BRANCH   4  18
ATOM     18  O   UNL     1       3.270   2.862  20.802  0.00  0.00    +0.000 OA
ATOM     19  H   UNL     1       3.103   1.908  20.936  0.00  0.00    +0.000 HD
ENDBRANCH   4  18
BRANCH   5  20
ATOM     20  O   UNL     1       1.185   4.460  20.749  0.00  0.00    +0.000 OA
ATOM     21  H   UNL     1       0.393   3.932  20.507  0.00  0.00    +0.000 HD
ENDBRANCH   5  20
BRANCH   3  22
ATOM     22  C   UNL     1       3.772   3.478  17.114  0.00  0.00    +0.000 C 
BRANCH  22  23
ATOM     23  O   UNL     1       4.579   4.416  16.398  0.00  0.00    +0.000 OA
BRANCH  23  24
ATOM     24  C   UNL     1       5.791   3.850  15.867  0.00  0.00    +0.000 C 
ATOM     25  C   UNL     1       6.409   4.644  14.751  0.00  0.00    +0.000 C 
ATOM     26  C   UNL     1       7.045   4.639  16.110  0.00  0.00    +0.000 C 
ENDBRANCH  23  24
ENDBRANCH  22  23
ENDBRANCH   3  22
TORSDOF 7
ENDMDL
