MODEL 1
REMARK VINA RESULT:      -8.6      0.000      0.000
REMARK  Name = 
REMARK  9 active torsions:
REMARK  status: ('A' for Active; 'I' for Inactive)
REMARK    1  A    between atoms: C_1  and  C_2
REMARK    2  A    between atoms: C_4  and  C_5
REMARK    3  A    between atoms: C_8  and  C_9
REMARK    4  A    between atoms: C_10  and  O_11
REMARK    5  A    between atoms: O_11  and  C_12
REMARK    6  A    between atoms: C_14  and  N_15
REMARK    7  A    between atoms: N_15  and  C_16
REMARK    8  A    between atoms: C_19  and  N_20
REMARK    9  A    between atoms: C_27  and  N_28
REMARK                            x       y       z     vdW  Elec       q    Type
REMARK                         _______ _______ _______ _____ _____    ______ ____
ROOT
ATOM      1  C   UNL     1       3.663   4.805  19.775  0.00  0.00    +0.000 A 
ATOM      2  C   UNL     1       3.350   6.152  19.539  0.00  0.00    +0.000 A 
ATOM      3  C   UNL     1       2.157   6.691  20.015  0.00  0.00    +0.000 A 
ATOM      4  N   UNL     1       1.289   5.923  20.707  0.00  0.00    +0.000 NA
ATOM      5  C   UNL     1       1.553   4.604  20.857  0.00  0.00    +0.000 A 
ATOM      6  C   UNL     1       2.691   4.004  20.359  0.00  0.00    +0.000 A 
ENDROOT
BRANCH   6   7
ATOM      7  N   UNL     1       2.813   2.578  20.527  0.00  0.00    +0.000 N 
ATOM      8  O   UNL     1       2.260   1.860  19.684  0.00  0.00    +0.000 OA
ATOM      9  O   UNL     1       3.433   2.181  21.521  0.00  0.00    +0.000 OA
ENDBRANCH   6   7
BRANCH   3  10
ATOM     10  N   UNL     1       1.856   8.040  19.720  0.00  0.00    +0.000 N 
ATOM     11  H   UNL     1       2.622   8.485  19.228  0.00  0.00    +0.000 HD
BRANCH  10  12
ATOM     12  C   UNL     1       1.109   8.954  20.498  0.00  0.00    +0.000 A 
ATOM     13  C   UNL     1       0.407  10.028  19.931  0.00  0.00    +0.000 A 
ATOM     14  C   UNL     1      -0.309  10.935  20.715  0.00  0.00    +0.000 A 
ATOM     15  C   UNL     1      -0.305  10.791  22.106  0.00  0.00    +0.000 A 
ATOM     16  C   UNL     1       0.428   9.761  22.702  0.00  0.00    +0.000 A 
ATOM     17  C   UNL     1       1.135   8.857  21.900  0.00  0.00    +0.000 A 
BRANCH  15  18
ATOM     18  N   UNL     1      -1.056  11.742  22.930  0.00  0.00    +0.000 N 
ATOM     19  O   UNL     1      -2.197  11.420  23.293  0.00  0.00    +0.000 OA
ATOM     20  O   UNL     1      -0.504  12.814  23.215  0.00  0.00    +0.000 OA
ENDBRANCH  15  18
ENDBRANCH  10  12
ENDBRANCH   3  10
BRANCH   1  21
ATOM     21  O   UNL     1       4.925   4.458  19.379  0.00  0.00    +0.000 OA
BRANCH  21  29
ATOM     22  C   UNL     1       3.444   3.280  16.873  0.00  0.00    +0.000 C 
ATOM     23  C   UNL     1       4.711   4.096  16.920  0.00  0.00    +0.000 A 
ATOM     24  C   UNL     1       5.331   4.312  15.669  0.00  0.00    +0.000 A 
ATOM     25  C   UNL     1       6.569   4.950  15.559  0.00  0.00    +0.000 A 
ATOM     26  C   UNL     1       7.224   5.378  16.708  0.00  0.00    +0.000 A 
ATOM     27  C   UNL     1       6.635   5.197  17.968  0.00  0.00    +0.000 A 
ATOM     28  C   UNL     1       7.391   5.657  19.189  0.00  0.00    +0.000 C 
ATOM     29  C   UNL     1       5.361   4.582  18.076  0.00  0.00    +0.000 A 
BRANCH  25  30
ATOM     30  C   UNL     1       7.169   5.137  14.271  0.00  0.00    +0.000 C 
ATOM     31  N   UNL     1       7.666   5.282  13.232  0.00  0.00    +0.000 NA
ENDBRANCH  25  30
ENDBRANCH  21  29
ENDBRANCH   1  21
TORSDOF 7
ENDMDL
MODEL 2
REMARK VINA RESULT:      -8.4      0.497      1.006
REMARK  Name = 
REMARK  9 active torsions:
REMARK  status: ('A' for Active; 'I' for Inactive)
REMARK    1  A    between atoms: C_1  and  C_2
REMARK    2  A    between atoms: C_4  and  C_5
REMARK    3  A    between atoms: C_8  and  C_9
REMARK    4  A    between atoms: C_10  and  O_11
REMARK    5  A    between atoms: O_11  and  C_12
REMARK    6  A    between atoms: C_14  and  N_15
REMARK    7  A    between atoms: N_15  and  C_16
REMARK    8  A    between atoms: C_19  and  N_20
REMARK    9  A    between atoms: C_27  and  N_28
REMARK                            x       y       z     vdW  Elec       q    Type
REMARK                         _______ _______ _______ _____ _____    ______ ____
ROOT
ATOM      1  C   UNL     1       3.704   4.838  19.727  0.00  0.00    +0.000 A 
ATOM      2  C   UNL     1       3.413   6.179  19.432  0.00  0.00    +0.000 A 
ATOM      3  C   UNL     1       2.237   6.762  19.899  0.00  0.00    +0.000 A 
ATOM      4  N   UNL     1       1.365   6.044  20.638  0.00  0.00    +0.000 NA
ATOM      5  C   UNL     1       1.606   4.729  20.846  0.00  0.00    +0.000 A 
ATOM      6  C   UNL     1       2.725   4.084  20.361  0.00  0.00    +0.000 A 
ENDROOT
BRANCH   6   7
ATOM      7  N   UNL     1       2.823   2.665  20.593  0.00  0.00    +0.000 N 
ATOM      8  O   UNL     1       2.175   1.924  19.845  0.00  0.00    +0.000 OA
ATOM      9  O   UNL     1       3.523   2.300  21.546  0.00  0.00    +0.000 OA
ENDBRANCH   6   7
BRANCH   3  10
ATOM     10  N   UNL     1       1.957   8.102  19.545  0.00  0.00    +0.000 N 
ATOM     11  H   UNL     1       2.761   8.540  19.112  0.00  0.00    +0.000 HD
BRANCH  10  12
ATOM     12  C   UNL     1       1.140   9.029  20.231  0.00  0.00    +0.000 A 
ATOM     13  C   UNL     1       1.067   9.077  21.631  0.00  0.00    +0.000 A 
ATOM     14  C   UNL     1       0.240   9.985  22.294  0.00  0.00    +0.000 A 
ATOM     15  C   UNL     1      -0.563  10.853  21.548  0.00  0.00    +0.000 A 
ATOM     16  C   UNL     1      -0.550  10.793  20.152  0.00  0.00    +0.000 A 
ATOM     17  C   UNL     1       0.290   9.880  19.503  0.00  0.00    +0.000 A 
BRANCH  15  18
ATOM     18  N   UNL     1      -1.432  11.807  22.242  0.00  0.00    +0.000 N 
ATOM     19  O   UNL     1      -2.323  12.365  21.586  0.00  0.00    +0.000 OA
ATOM     20  O   UNL     1      -1.223  11.998  23.449  0.00  0.00    +0.000 OA
ENDBRANCH  15  18
ENDBRANCH  10  12
ENDBRANCH   3  10
BRANCH   1  21
ATOM     21  O   UNL     1       4.954   4.449  19.330  0.00  0.00    +0.000 OA
BRANCH  21  29
ATOM     22  C   UNL     1       3.525   3.188  16.833  0.00  0.00    +0.000 C 
ATOM     23  C   UNL     1       4.768   4.042  16.875  0.00  0.00    +0.000 A 
ATOM     24  C   UNL     1       5.391   4.256  15.626  0.00  0.00    +0.000 A 
ATOM     25  C   UNL     1       6.610   4.928  15.514  0.00  0.00    +0.000 A 
ATOM     26  C   UNL     1       7.244   5.393  16.661  0.00  0.00    +0.000 A 
ATOM     27  C   UNL     1       6.651   5.215  17.919  0.00  0.00    +0.000 A 
ATOM     28  C   UNL     1       7.385   5.717  19.137  0.00  0.00    +0.000 C 
ATOM     29  C   UNL     1       5.395   4.565  18.028  0.00  0.00    +0.000 A 
BRANCH  25  30
ATOM     30  C   UNL     1       7.214   5.112  14.228  0.00  0.00    +0.000 C 
ATOM     31  N   UNL     1       7.711   5.251  13.187  0.00  0.00    +0.000 NA
ENDBRANCH  25  30
ENDBRANCH  21  29
ENDBRANCH   1  21
TORSDOF 7
ENDMDL
MODEL 3
REMARK VINA RESULT:      -8.4      1.520      1.813
REMARK  Name = 
REMARK  9 active torsions:
REMARK  status: ('A' for Active; 'I' for Inactive)
REMARK    1  A    between atoms: C_1  and  C_2
REMARK    2  A    between atoms: C_4  and  C_5
REMARK    3  A    between atoms: C_8  and  C_9
REMARK    4  A    between atoms: C_10  and  O_11
REMARK    5  A    between atoms: O_11  and  C_12
REMARK    6  A    between atoms: C_14  and  N_15
REMARK    7  A    between atoms: N_15  and  C_16
REMARK    8  A    between atoms: C_19  and  N_20
REMARK    9  A    between atoms: C_27  and  N_28
REMARK                            x       y       z     vdW  Elec       q    Type
REMARK                         _______ _______ _______ _____ _____    ______ ____
ROOT
ATOM      1  C   UNL     1       3.502   5.033  19.735  0.00  0.00    +0.000 A 
ATOM      2  C   UNL     1       3.365   6.361  19.304  0.00  0.00    +0.000 A 
ATOM      3  C   UNL     1       2.296   7.137  19.748  0.00  0.00    +0.000 A 
ATOM      4  N   UNL     1       1.381   6.619  20.595  0.00  0.00    +0.000 NA
ATOM      5  C   UNL     1       1.469   5.313  20.938  0.00  0.00    +0.000 A 
ATOM      6  C   UNL     1       2.472   4.482  20.485  0.00  0.00    +0.000 A 
ENDROOT
BRANCH   6   7
ATOM      7  N   UNL     1       2.406   3.095  20.869  0.00  0.00    +0.000 N 
ATOM      8  O   UNL     1       2.668   2.821  22.046  0.00  0.00    +0.000 OA
ATOM      9  O   UNL     1       2.124   2.280  19.982  0.00  0.00    +0.000 OA
ENDBRANCH   6   7
BRANCH   3  10
ATOM     10  N   UNL     1       2.166   8.457  19.259  0.00  0.00    +0.000 N 
ATOM     11  H   UNL     1       3.016   8.988  19.413  0.00  0.00    +0.000 HD
BRANCH  10  12
ATOM     12  C   UNL     1       1.012   9.273  19.255  0.00  0.00    +0.000 A 
ATOM     13  C   UNL     1       0.299   9.564  18.083  0.00  0.00    +0.000 A 
ATOM     14  C   UNL     1      -0.827  10.389  18.092  0.00  0.00    +0.000 A 
ATOM     15  C   UNL     1      -1.243  10.967  19.295  0.00  0.00    +0.000 A 
ATOM     16  C   UNL     1      -0.523  10.737  20.470  0.00  0.00    +0.000 A 
ATOM     17  C   UNL     1       0.601   9.902  20.444  0.00  0.00    +0.000 A 
BRANCH  15  18
ATOM     18  N   UNL     1      -2.426  11.833  19.307  0.00  0.00    +0.000 N 
ATOM     19  O   UNL     1      -3.311  11.616  18.467  0.00  0.00    +0.000 OA
ATOM     20  O   UNL     1      -2.469  12.733  20.158  0.00  0.00    +0.000 OA
ENDBRANCH  15  18
ENDBRANCH  10  12
ENDBRANCH   3  10
BRANCH   1  21
ATOM     21  O   UNL     1       4.672   4.446  19.336  0.00  0.00    +0.000 OA
BRANCH  21  29
ATOM     22  C   UNL     1       3.271   3.264  16.786  0.00  0.00    +0.000 C 
ATOM     23  C   UNL     1       4.548   4.062  16.874  0.00  0.00    +0.000 A 
ATOM     24  C   UNL     1       5.221   4.255  15.647  0.00  0.00    +0.000 A 
ATOM     25  C   UNL     1       6.472   4.872  15.579  0.00  0.00    +0.000 A 
ATOM     26  C   UNL     1       7.088   5.302  16.749  0.00  0.00    +0.000 A 
ATOM     27  C   UNL     1       6.447   5.144  17.986  0.00  0.00    +0.000 A 
ATOM     28  C   UNL     1       7.162   5.605  19.231  0.00  0.00    +0.000 C 
ATOM     29  C   UNL     1       5.160   4.550  18.050  0.00  0.00    +0.000 A 
BRANCH  25  30
ATOM     30  C   UNL     1       7.125   5.036  14.314  0.00  0.00    +0.000 C 
ATOM     31  N   UNL     1       7.664   5.162  13.293  0.00  0.00    +0.000 NA
ENDBRANCH  25  30
ENDBRANCH  21  29
ENDBRANCH   1  21
TORSDOF 7
ENDMDL
MODEL 4
REMARK VINA RESULT:      -8.4      1.601      1.984
REMARK  Name = 
REMARK  9 active torsions:
REMARK  status: ('A' for Active; 'I' for Inactive)
REMARK    1  A    between atoms: C_1  and  C_2
REMARK    2  A    between atoms: C_4  and  C_5
REMARK    3  A    between atoms: C_8  and  C_9
REMARK    4  A    between atoms: C_10  and  O_11
REMARK    5  A    between atoms: O_11  and  C_12
REMARK    6  A    between atoms: C_14  and  N_15
REMARK    7  A    between atoms: N_15  and  C_16
REMARK    8  A    between atoms: C_19  and  N_20
REMARK    9  A    between atoms: C_27  and  N_28
REMARK                            x       y       z     vdW  Elec       q    Type
REMARK                         _______ _______ _______ _____ _____    ______ ____
ROOT
ATOM      1  C   UNL     1       3.514   5.114  19.732  0.00  0.00    +0.000 A 
ATOM      2  C   UNL     1       3.370   6.426  19.256  0.00  0.00    +0.000 A 
ATOM      3  C   UNL     1       2.307   7.217  19.688  0.00  0.00    +0.000 A 
ATOM      4  N   UNL     1       1.406   6.730  20.568  0.00  0.00    +0.000 NA
ATOM      5  C   UNL     1       1.499   5.437  20.956  0.00  0.00    +0.000 A 
ATOM      6  C   UNL     1       2.496   4.591  20.518  0.00  0.00    +0.000 A 
ENDROOT
BRANCH   6   7
ATOM      7  N   UNL     1       2.436   3.218  20.953  0.00  0.00    +0.000 N 
ATOM      8  O   UNL     1       2.303   2.354  20.079  0.00  0.00    +0.000 OA
ATOM      9  O   UNL     1       2.489   3.013  22.172  0.00  0.00    +0.000 OA
ENDBRANCH   6   7
BRANCH   3  10
ATOM     10  N   UNL     1       2.169   8.519  19.154  0.00  0.00    +0.000 N 
ATOM     11  H   UNL     1       3.029   9.046  19.253  0.00  0.00    +0.000 HD
BRANCH  10  12
ATOM     12  C   UNL     1       1.023   9.346  19.166  0.00  0.00    +0.000 A 
ATOM     13  C   UNL     1       0.577   9.998  20.325  0.00  0.00    +0.000 A 
ATOM     14  C   UNL     1      -0.569  10.795  20.326  0.00  0.00    +0.000 A 
ATOM     15  C   UNL     1      -1.313  10.927  19.149  0.00  0.00    +0.000 A 
ATOM     16  C   UNL     1      -0.921  10.249  17.992  0.00  0.00    +0.000 A 
ATOM     17  C   UNL     1       0.234   9.458  18.008  0.00  0.00    +0.000 A 
BRANCH  15  18
ATOM     18  N   UNL     1      -2.516  11.764  19.149  0.00  0.00    +0.000 N 
ATOM     19  O   UNL     1      -3.221  11.766  18.129  0.00  0.00    +0.000 OA
ATOM     20  O   UNL     1      -2.756  12.423  20.171  0.00  0.00    +0.000 OA
ENDBRANCH  15  18
ENDBRANCH  10  12
ENDBRANCH   3  10
BRANCH   1  21
ATOM     21  O   UNL     1       4.678   4.513  19.337  0.00  0.00    +0.000 OA
BRANCH  21  29
ATOM     22  C   UNL     1       3.257   3.329  16.799  0.00  0.00    +0.000 C 
ATOM     23  C   UNL     1       4.544   4.111  16.878  0.00  0.00    +0.000 A 
ATOM     24  C   UNL     1       5.216   4.286  15.648  0.00  0.00    +0.000 A 
ATOM     25  C   UNL     1       6.474   4.887  15.572  0.00  0.00    +0.000 A 
ATOM     26  C   UNL     1       7.099   5.319  16.737  0.00  0.00    +0.000 A 
ATOM     27  C   UNL     1       6.458   5.178  17.977  0.00  0.00    +0.000 A 
ATOM     28  C   UNL     1       7.182   5.640  19.217  0.00  0.00    +0.000 C 
ATOM     29  C   UNL     1       5.164   4.600  18.049  0.00  0.00    +0.000 A 
BRANCH  25  30
ATOM     30  C   UNL     1       7.127   5.033  14.304  0.00  0.00    +0.000 C 
ATOM     31  N   UNL     1       7.648   5.142  13.273  0.00  0.00    +0.000 NA
ENDBRANCH  25  30
ENDBRANCH  21  29
ENDBRANCH   1  21
TORSDOF 7
ENDMDL
MODEL 5
REMARK VINA RESULT:      -8.3      1.485      2.484
REMARK  Name = 
REMARK  9 active torsions:
REMARK  status: ('A' for Active; 'I' for Inactive)
REMARK    1  A    between atoms: C_1  and  C_2
REMARK    2  A    between atoms: C_4  and  C_5
REMARK    3  A    between atoms: C_8  and  C_9
REMARK    4  A    between atoms: C_10  and  O_11
REMARK    5  A    between atoms: O_11  and  C_12
REMARK    6  A    between atoms: C_14  and  N_15
REMARK    7  A    between atoms: N_15  and  C_16
REMARK    8  A    between atoms: C_19  and  N_20
REMARK    9  A    between atoms: C_27  and  N_28
REMARK                            x       y       z     vdW  Elec       q    Type
REMARK                         _______ _______ _______ _____ _____    ______ ____
ROOT
ATOM      1  C   UNL     1       3.514   4.651  19.720  0.00  0.00    +0.000 A 
ATOM      2  C   UNL     1       3.454   5.973  19.256  0.00  0.00    +0.000 A 
ATOM      3  C   UNL     1       2.421   6.814  19.663  0.00  0.00    +0.000 A 
ATOM      4  N   UNL     1       1.467   6.367  20.507  0.00  0.00    +0.000 NA
ATOM      5  C   UNL     1       1.480   5.067  20.883  0.00  0.00    +0.000 A 
ATOM      6  C   UNL     1       2.445   4.173  20.467  0.00  0.00    +0.000 A 
ENDROOT
BRANCH   6   7
ATOM      7  N   UNL     1       2.299   2.802  20.883  0.00  0.00    +0.000 N 
ATOM      8  O   UNL     1       1.715   2.035  20.108  0.00  0.00    +0.000 OA
ATOM      9  O   UNL     1       2.740   2.504  22.000  0.00  0.00    +0.000 OA
ENDBRANCH   6   7
BRANCH   3  10
ATOM     10  N   UNL     1       2.369   8.127  19.140  0.00  0.00    +0.000 N 
ATOM     11  H   UNL     1       3.272   8.581  19.206  0.00  0.00    +0.000 HD
BRANCH  10  12
ATOM     12  C   UNL     1       1.297   9.046  19.204  0.00  0.00    +0.000 A 
ATOM     13  C   UNL     1       0.816   9.561  20.417  0.00  0.00    +0.000 A 
ATOM     14  C   UNL     1      -0.258  10.451  20.464  0.00  0.00    +0.000 A 
ATOM     15  C   UNL     1      -0.896  10.821  19.276  0.00  0.00    +0.000 A 
ATOM     16  C   UNL     1      -0.472  10.284  18.057  0.00  0.00    +0.000 A 
ATOM     17  C   UNL     1       0.611   9.396  18.027  0.00  0.00    +0.000 A 
BRANCH  15  18
ATOM     18  N   UNL     1      -2.023  11.756  19.324  0.00  0.00    +0.000 N 
ATOM     19  O   UNL     1      -1.963  12.695  20.130  0.00  0.00    +0.000 OA
ATOM     20  O   UNL     1      -2.972  11.549  18.554  0.00  0.00    +0.000 OA
ENDBRANCH  15  18
ENDBRANCH  10  12
ENDBRANCH   3  10
BRANCH   1  21
ATOM     21  O   UNL     1       4.657   3.993  19.355  0.00  0.00    +0.000 OA
BRANCH  21  29
ATOM     22  C   UNL     1       7.289   5.705  19.264  0.00  0.00    +0.000 C 
ATOM     23  C   UNL     1       6.562   5.034  18.125  0.00  0.00    +0.000 A 
ATOM     24  C   UNL     1       7.120   5.252  16.846  0.00  0.00    +0.000 A 
ATOM     25  C   UNL     1       6.500   4.794  15.681  0.00  0.00    +0.000 A 
ATOM     26  C   UNL     1       5.290   4.114  15.771  0.00  0.00    +0.000 A 
ATOM     27  C   UNL     1       4.711   3.863  17.023  0.00  0.00    +0.000 A 
ATOM     28  C   UNL     1       3.388   3.141  17.071  0.00  0.00    +0.000 C 
ATOM     29  C   UNL     1       5.360   4.296  18.208  0.00  0.00    +0.000 A 
BRANCH  25  30
ATOM     30  C   UNL     1       7.094   5.049  14.402  0.00  0.00    +0.000 C 
ATOM     31  N   UNL     1       7.565   5.254  13.361  0.00  0.00    +0.000 NA
ENDBRANCH  25  30
ENDBRANCH  21  29
ENDBRANCH   1  21
TORSDOF 7
ENDMDL
MODEL 6
REMARK VINA RESULT:      -8.3      1.576      2.403
REMARK  Name = 
REMARK  9 active torsions:
REMARK  status: ('A' for Active; 'I' for Inactive)
REMARK    1  A    between atoms: C_1  and  C_2
REMARK    2  A    between atoms: C_4  and  C_5
REMARK    3  A    between atoms: C_8  and  C_9
REMARK    4  A    between atoms: C_10  and  O_11
REMARK    5  A    between atoms: O_11  and  C_12
REMARK    6  A    between atoms: C_14  and  N_15
REMARK    7  A    between atoms: N_15  and  C_16
REMARK    8  A    between atoms: C_19  and  N_20
REMARK    9  A    between atoms: C_27  and  N_28
REMARK                            x       y       z     vdW  Elec       q    Type
REMARK                         _______ _______ _______ _____ _____    ______ ____
ROOT
ATOM      1  C   UNL     1       3.578   4.620  19.727  0.00  0.00    +0.000 A 
ATOM      2  C   UNL     1       3.509   5.949  19.283  0.00  0.00    +0.000 A 
ATOM      3  C   UNL     1       2.472   6.778  19.706  0.00  0.00    +0.000 A 
ATOM      4  N   UNL     1       1.522   6.312  20.545  0.00  0.00    +0.000 NA
ATOM      5  C   UNL     1       1.543   5.006  20.900  0.00  0.00    +0.000 A 
ATOM      6  C   UNL     1       2.513   4.125  20.469  0.00  0.00    +0.000 A 
ENDROOT
BRANCH   6   7
ATOM      7  N   UNL     1       2.376   2.746  20.863  0.00  0.00    +0.000 N 
ATOM      8  O   UNL     1       1.838   1.978  20.057  0.00  0.00    +0.000 OA
ATOM      9  O   UNL     1       2.776   2.444  21.995  0.00  0.00    +0.000 OA
ENDBRANCH   6   7
BRANCH   3  10
ATOM     10  N   UNL     1       2.411   8.098  19.204  0.00  0.00    +0.000 N 
ATOM     11  H   UNL     1       3.272   8.599  19.391  0.00  0.00    +0.000 HD
BRANCH  10  12
ATOM     12  C   UNL     1       1.289   8.955  19.146  0.00  0.00    +0.000 A 
ATOM     13  C   UNL     1       0.655   9.287  17.940  0.00  0.00    +0.000 A 
ATOM     14  C   UNL     1      -0.441  10.152  17.897  0.00  0.00    +0.000 A 
ATOM     15  C   UNL     1      -0.904  10.730  19.083  0.00  0.00    +0.000 A 
ATOM     16  C   UNL     1      -0.261  10.458  20.293  0.00  0.00    +0.000 A 
ATOM     17  C   UNL     1       0.833   9.584  20.319  0.00  0.00    +0.000 A 
BRANCH  15  18
ATOM     18  N   UNL     1      -2.054  11.637  19.040  0.00  0.00    +0.000 N 
ATOM     19  O   UNL     1      -2.623  11.801  17.951  0.00  0.00    +0.000 OA
ATOM     20  O   UNL     1      -2.389  12.187  20.099  0.00  0.00    +0.000 OA
ENDBRANCH  15  18
ENDBRANCH  10  12
ENDBRANCH   3  10
BRANCH   1  21
ATOM     21  O   UNL     1       4.724   3.975  19.350  0.00  0.00    +0.000 OA
BRANCH  21  29
ATOM     22  C   UNL     1       7.325   5.731  19.240  0.00  0.00    +0.000 C 
ATOM     23  C   UNL     1       6.603   5.047  18.107  0.00  0.00    +0.000 A 
ATOM     24  C   UNL     1       7.149   5.274  16.824  0.00  0.00    +0.000 A 
ATOM     25  C   UNL     1       6.528   4.805  15.663  0.00  0.00    +0.000 A 
ATOM     26  C   UNL     1       5.331   4.104  15.761  0.00  0.00    +0.000 A 
ATOM     27  C   UNL     1       4.765   3.845  17.017  0.00  0.00    +0.000 A 
ATOM     28  C   UNL     1       3.454   3.100  17.075  0.00  0.00    +0.000 C 
ATOM     29  C   UNL     1       5.414   4.289  18.198  0.00  0.00    +0.000 A 
BRANCH  25  30
ATOM     30  C   UNL     1       7.110   5.069  14.380  0.00  0.00    +0.000 C 
ATOM     31  N   UNL     1       7.578   5.272  13.338  0.00  0.00    +0.000 NA
ENDBRANCH  25  30
ENDBRANCH  21  29
ENDBRANCH   1  21
TORSDOF 7
ENDMDL
MODEL 7
REMARK VINA RESULT:      -7.8      1.874      2.155
REMARK  Name = 
REMARK  9 active torsions:
REMARK  status: ('A' for Active; 'I' for Inactive)
REMARK    1  A    between atoms: C_1  and  C_2
REMARK    2  A    between atoms: C_4  and  C_5
REMARK    3  A    between atoms: C_8  and  C_9
REMARK    4  A    between atoms: C_10  and  O_11
REMARK    5  A    between atoms: O_11  and  C_12
REMARK    6  A    between atoms: C_14  and  N_15
REMARK    7  A    between atoms: N_15  and  C_16
REMARK    8  A    between atoms: C_19  and  N_20
REMARK    9  A    between atoms: C_27  and  N_28
REMARK                            x       y       z     vdW  Elec       q    Type
REMARK                         _______ _______ _______ _____ _____    ______ ____
ROOT
ATOM      1  C   UNL     1       3.393   4.453  19.644  0.00  0.00    +0.000 A 
ATOM      2  C   UNL     1       3.313   5.830  19.900  0.00  0.00    +0.000 A 
ATOM      3  C   UNL     1       2.143   6.382  20.416  0.00  0.00    +0.000 A 
ATOM      4  N   UNL     1       1.074   5.599  20.675  0.00  0.00    +0.000 NA
ATOM      5  C   UNL     1       1.125   4.288  20.345  0.00  0.00    +0.000 A 
ATOM      6  C   UNL     1       2.236   3.697  19.780  0.00  0.00    +0.000 A 
ENDROOT
BRANCH   6   7
ATOM      7  N   UNL     1       2.130   2.309  19.410  0.00  0.00    +0.000 N 
ATOM      8  O   UNL     1       3.127   1.599  19.588  0.00  0.00    +0.000 OA
ATOM      9  O   UNL     1       1.059   1.940  18.911  0.00  0.00    +0.000 OA
ENDBRANCH   6   7
BRANCH   3  10
ATOM     10  N   UNL     1       2.085   7.780  20.621  0.00  0.00    +0.000 N 
ATOM     11  H   UNL     1       2.233   8.012  21.596  0.00  0.00    +0.000 HD
BRANCH  10  12
ATOM     12  C   UNL     1       1.262   8.721  19.960  0.00  0.00    +0.000 A 
ATOM     13  C   UNL     1       1.451   9.075  18.616  0.00  0.00    +0.000 A 
ATOM     14  C   UNL     1       0.644  10.022  17.984  0.00  0.00    +0.000 A 
ATOM     15  C   UNL     1      -0.364  10.660  18.713  0.00  0.00    +0.000 A 
ATOM     16  C   UNL     1      -0.543  10.366  20.067  0.00  0.00    +0.000 A 
ATOM     17  C   UNL     1       0.273   9.409  20.685  0.00  0.00    +0.000 A 
BRANCH  15  18
ATOM     18  N   UNL     1      -1.212  11.654  18.050  0.00  0.00    +0.000 N 
ATOM     19  O   UNL     1      -2.131  11.243  17.327  0.00  0.00    +0.000 OA
ATOM     20  O   UNL     1      -0.960  12.850  18.254  0.00  0.00    +0.000 OA
ENDBRANCH  15  18
ENDBRANCH  10  12
ENDBRANCH   3  10
BRANCH   1  21
ATOM     21  O   UNL     1       4.644   4.035  19.280  0.00  0.00    +0.000 OA
BRANCH  21  29
ATOM     22  C   UNL     1       3.453   3.032  16.553  0.00  0.00    +0.000 C 
ATOM     23  C   UNL     1       4.669   3.892  16.789  0.00  0.00    +0.000 A 
ATOM     24  C   UNL     1       5.388   4.247  15.627  0.00  0.00    +0.000 A 
ATOM     25  C   UNL     1       6.598   4.942  15.689  0.00  0.00    +0.000 A 
ATOM     26  C   UNL     1       7.125   5.289  16.928  0.00  0.00    +0.000 A 
ATOM     27  C   UNL     1       6.434   4.969  18.106  0.00  0.00    +0.000 A 
ATOM     28  C   UNL     1       7.055   5.346  19.428  0.00  0.00    +0.000 C 
ATOM     29  C   UNL     1       5.188   4.295  18.040  0.00  0.00    +0.000 A 
BRANCH  25  30
ATOM     30  C   UNL     1       7.301   5.270  14.485  0.00  0.00    +0.000 C 
ATOM     31  N   UNL     1       7.864   5.545  13.507  0.00  0.00    +0.000 NA
ENDBRANCH  25  30
ENDBRANCH  21  29
ENDBRANCH   1  21
TORSDOF 7
ENDMDL
MODEL 8
REMARK VINA RESULT:      -7.8      1.887      2.198
REMARK  Name = 
REMARK  9 active torsions:
REMARK  status: ('A' for Active; 'I' for Inactive)
REMARK    1  A    between atoms: C_1  and  C_2
REMARK    2  A    between atoms: C_4  and  C_5
REMARK    3  A    between atoms: C_8  and  C_9
REMARK    4  A    between atoms: C_10  and  O_11
REMARK    5  A    between atoms: O_11  and  C_12
REMARK    6  A    between atoms: C_14  and  N_15
REMARK    7  A    between atoms: N_15  and  C_16
REMARK    8  A    between atoms: C_19  and  N_20
REMARK    9  A    between atoms: C_27  and  N_28
REMARK                            x       y       z     vdW  Elec       q    Type
REMARK                         _______ _______ _______ _____ _____    ______ ____
ROOT
ATOM      1  C   UNL     1       3.414   4.545  19.664  0.00  0.00    +0.000 A 
ATOM      2  C   UNL     1       3.341   5.928  19.887  0.00  0.00    +0.000 A 
ATOM      3  C   UNL     1       2.184   6.493  20.420  0.00  0.00    +0.000 A 
ATOM      4  N   UNL     1       1.123   5.717  20.727  0.00  0.00    +0.000 NA
ATOM      5  C   UNL     1       1.166   4.398  20.430  0.00  0.00    +0.000 A 
ATOM      6  C   UNL     1       2.262   3.793  19.850  0.00  0.00    +0.000 A 
ENDROOT
BRANCH   6   7
ATOM      7  N   UNL     1       2.147   2.396  19.519  0.00  0.00    +0.000 N 
ATOM      8  O   UNL     1       1.073   2.014  19.040  0.00  0.00    +0.000 OA
ATOM      9  O   UNL     1       3.123   1.677  19.772  0.00  0.00    +0.000 OA
ENDBRANCH   6   7
BRANCH   3  10
ATOM     10  N   UNL     1       2.131   7.896  20.591  0.00  0.00    +0.000 N 
ATOM     11  H   UNL     1       2.347   8.156  21.546  0.00  0.00    +0.000 HD
BRANCH  10  12
ATOM     12  C   UNL     1       1.257   8.814  19.965  0.00  0.00    +0.000 A 
ATOM     13  C   UNL     1       0.185   9.415  20.642  0.00  0.00    +0.000 A 
ATOM     14  C   UNL     1      -0.682  10.304  20.005  0.00  0.00    +0.000 A 
ATOM     15  C   UNL     1      -0.500  10.585  18.647  0.00  0.00    +0.000 A 
ATOM     16  C   UNL     1       0.527   9.962  17.934  0.00  0.00    +0.000 A 
ATOM     17  C   UNL     1       1.392   9.077  18.591  0.00  0.00    +0.000 A 
BRANCH  15  18
ATOM     18  N   UNL     1      -1.410  11.519  17.977  0.00  0.00    +0.000 N 
ATOM     19  O   UNL     1      -2.436  11.057  17.459  0.00  0.00    +0.000 OA
ATOM     20  O   UNL     1      -1.096  12.718  17.969  0.00  0.00    +0.000 OA
ENDBRANCH  15  18
ENDBRANCH  10  12
ENDBRANCH   3  10
BRANCH   1  21
ATOM     21  O   UNL     1       4.655   4.117  19.277  0.00  0.00    +0.000 OA
BRANCH  21  29
ATOM     22  C   UNL     1       3.367   3.065  16.614  0.00  0.00    +0.000 C 
ATOM     23  C   UNL     1       4.600   3.914  16.791  0.00  0.00    +0.000 A 
ATOM     24  C   UNL     1       5.286   4.232  15.598  0.00  0.00    +0.000 A 
ATOM     25  C   UNL     1       6.506   4.913  15.606  0.00  0.00    +0.000 A 
ATOM     26  C   UNL     1       7.076   5.283  16.819  0.00  0.00    +0.000 A 
ATOM     27  C   UNL     1       6.419   5.001  18.025  0.00  0.00    +0.000 A 
ATOM     28  C   UNL     1       7.085   5.401  19.318  0.00  0.00    +0.000 C 
ATOM     29  C   UNL     1       5.163   4.341  18.014  0.00  0.00    +0.000 A 
BRANCH  25  30
ATOM     30  C   UNL     1       7.175   5.203  14.373  0.00  0.00    +0.000 C 
ATOM     31  N   UNL     1       7.711   5.448  13.372  0.00  0.00    +0.000 NA
ENDBRANCH  25  30
ENDBRANCH  21  29
ENDBRANCH   1  21
TORSDOF 7
ENDMDL
MODEL 9
REMARK VINA RESULT:      -7.7      0.644      2.029
REMARK  Name = 
REMARK  9 active torsions:
REMARK  status: ('A' for Active; 'I' for Inactive)
REMARK    1  A    between atoms: C_1  and  C_2
REMARK    2  A    between atoms: C_4  and  C_5
REMARK    3  A    between atoms: C_8  and  C_9
REMARK    4  A    between atoms: C_10  and  O_11
REMARK    5  A    between atoms: O_11  and  C_12
REMARK    6  A    between atoms: C_14  and  N_15
REMARK    7  A    between atoms: N_15  and  C_16
REMARK    8  A    between atoms: C_19  and  N_20
REMARK    9  A    between atoms: C_27  and  N_28
REMARK                            x       y       z     vdW  Elec       q    Type
REMARK                         _______ _______ _______ _____ _____    ______ ____
ROOT
ATOM      1  C   UNL     1       3.677   4.519  19.767  0.00  0.00    +0.000 A 
ATOM      2  C   UNL     1       3.494   5.857  19.387  0.00  0.00    +0.000 A 
ATOM      3  C   UNL     1       2.352   6.550  19.783  0.00  0.00    +0.000 A 
ATOM      4  N   UNL     1       1.409   5.942  20.534  0.00  0.00    +0.000 NA
ATOM      5  C   UNL     1       1.548   4.627  20.824  0.00  0.00    +0.000 A 
ATOM      6  C   UNL     1       2.629   3.876  20.412  0.00  0.00    +0.000 A 
ENDROOT
BRANCH   6   7
ATOM      7  N   UNL     1       2.615   2.470  20.728  0.00  0.00    +0.000 N 
ATOM      8  O   UNL     1       3.307   2.098  21.683  0.00  0.00    +0.000 OA
ATOM      9  O   UNL     1       1.938   1.737  19.996  0.00  0.00    +0.000 OA
ENDBRANCH   6   7
BRANCH   3  10
ATOM     10  N   UNL     1       2.181   7.883  19.345  0.00  0.00    +0.000 N 
ATOM     11  H   UNL     1       3.009   8.218  18.865  0.00  0.00    +0.000 HD
BRANCH  10  12
ATOM     12  C   UNL     1       1.470   8.924  19.984  0.00  0.00    +0.000 A 
ATOM     13  C   UNL     1       1.184   8.908  21.357  0.00  0.00    +0.000 A 
ATOM     14  C   UNL     1       0.462   9.933  21.971  0.00  0.00    +0.000 A 
ATOM     15  C   UNL     1      -0.018  10.993  21.195  0.00  0.00    +0.000 A 
ATOM     16  C   UNL     1       0.207  11.010  19.816  0.00  0.00    +0.000 A 
ATOM     17  C   UNL     1       0.939   9.976  19.218  0.00  0.00    +0.000 A 
BRANCH  15  18
ATOM     18  N   UNL     1      -0.776  12.070  21.838  0.00  0.00    +0.000 N 
ATOM     19  O   UNL     1      -1.508  12.770  21.124  0.00  0.00    +0.000 OA
ATOM     20  O   UNL     1      -0.638  12.216  23.061  0.00  0.00    +0.000 OA
ENDBRANCH  15  18
ENDBRANCH  10  12
ENDBRANCH   3  10
BRANCH   1  21
ATOM     21  O   UNL     1       4.905   4.017  19.433  0.00  0.00    +0.000 OA
BRANCH  21  29
ATOM     22  C   UNL     1       7.429   5.872  19.206  0.00  0.00    +0.000 C 
ATOM     23  C   UNL     1       6.700   5.137  18.110  0.00  0.00    +0.000 A 
ATOM     24  C   UNL     1       7.197   5.358  16.806  0.00  0.00    +0.000 A 
ATOM     25  C   UNL     1       6.561   4.841  15.675  0.00  0.00    +0.000 A 
ATOM     26  C   UNL     1       5.396   4.096  15.825  0.00  0.00    +0.000 A 
ATOM     27  C   UNL     1       4.879   3.840  17.103  0.00  0.00    +0.000 A 
ATOM     28  C   UNL     1       3.602   3.045  17.216  0.00  0.00    +0.000 C 
ATOM     29  C   UNL     1       5.546   4.334  18.253  0.00  0.00    +0.000 A 
BRANCH  25  30
ATOM     30  C   UNL     1       7.091   5.101  14.370  0.00  0.00    +0.000 C 
ATOM     31  N   UNL     1       7.532   5.311  13.316  0.00  0.00    +0.000 NA
ENDBRANCH  25  30
ENDBRANCH  21  29
ENDBRANCH   1  21
TORSDOF 7
ENDMDL
