MODEL 1
REMARK VINA RESULT:      -6.8      0.000      0.000
REMARK  Name = 
REMARK  11 active torsions:
REMARK  status: ('A' for Active; 'I' for Inactive)
REMARK    1  A    between atoms: C_1  and  C_2
REMARK    2  A    between atoms: C_5  and  C_6
REMARK    3  A    between atoms: C_6  and  C_7
REMARK    4  A    between atoms: C_6  and  C_8
REMARK    5  A    between atoms: C_9  and  O_10
REMARK    6  A    between atoms: O_10  and  C_11
REMARK    7  A    between atoms: C_11  and  C_12
REMARK    8  A    between atoms: C_12  and  O_13
REMARK    9  A    between atoms: C_12  and  C_14
REMARK   10  A    between atoms: C_14  and  N_15
REMARK   11  A    between atoms: C_19  and  C_20
REMARK                            x       y       z     vdW  Elec       q    Type
REMARK                         _______ _______ _______ _____ _____    ______ ____
ROOT
ATOM      1  C   UNL     1       3.674   7.034  17.433  0.00  0.00    +0.000 C 
ENDROOT
BRANCH   1   2
ATOM      2  O   UNL     1       4.715   6.095  17.144  0.00  0.00    +0.000 OA
BRANCH   2   8
ATOM      3  C   UNL     1       5.233   3.723  13.618  0.00  0.00    +0.000 C 
ATOM      4  C   UNL     1       5.542   4.380  14.959  0.00  0.00    +0.000 C 
ATOM      5  C   UNL     1       6.903   3.943  15.504  0.00  0.00    +0.000 C 
ATOM      6  C   UNL     1       7.226   4.614  16.844  0.00  0.00    +0.000 C 
ATOM      7  C   UNL     1       7.089   6.158  16.815  0.00  0.00    +0.000 C 
ATOM      8  C   UNL     1       5.709   6.553  16.222  0.00  0.00    +0.000 C 
ATOM      9  C   UNL     1       5.522   5.907  14.840  0.00  0.00    +0.000 C 
BRANCH   7  10
ATOM     10  C   UNL     1       7.330   6.761  18.240  0.00  0.00    +0.000 C 
ATOM     11  C   UNL     1       8.006   5.759  19.187  0.00  0.00    +0.000 C 
ATOM     12  C   UNL     1       8.179   8.038  18.206  0.00  0.00    +0.000 C 
ENDBRANCH   7  10
ENDBRANCH   2   8
ENDBRANCH   1   2
BRANCH   1  13
ATOM     13  C   UNL     1       3.347   6.896  18.921  0.00  0.00    +0.000 C 
BRANCH  13  14
ATOM     14  O   UNL     1       2.145   7.650  19.181  0.00  0.00    +0.000 OA
ATOM     15  H   UNL     1       1.438   6.974  19.237  0.00  0.00    +0.000 HD
ENDBRANCH  13  14
BRANCH  13  16
ATOM     16  C   UNL     1       3.097   5.435  19.343  0.00  0.00    +0.000 C 
BRANCH  16  17
ATOM     17  N   UNL     1       1.721   4.941  19.149  0.00  0.00    +0.000 NA
ATOM     18  C   UNL     1       1.557   4.045  17.998  0.00  0.00    +0.000 C 
ATOM     19  C   UNL     1       2.166   2.652  18.178  0.00  0.00    +0.000 C 
ATOM     20  C   UNL     1       1.777   2.000  19.504  0.00  0.00    +0.000 C 
ATOM     21  C   UNL     1       1.922   2.967  20.685  0.00  0.00    +0.000 C 
ATOM     22  C   UNL     1       1.370   2.353  21.970  0.00  0.00    +0.000 C 
ATOM     23  C   UNL     1       1.216   4.297  20.372  0.00  0.00    +0.000 C 
ENDBRANCH  16  17
ENDBRANCH  13  16
ENDBRANCH   1  13
TORSDOF 7
ENDMDL
MODEL 2
REMARK VINA RESULT:      -6.8      0.812      1.547
REMARK  Name = 
REMARK  11 active torsions:
REMARK  status: ('A' for Active; 'I' for Inactive)
REMARK    1  A    between atoms: C_1  and  C_2
REMARK    2  A    between atoms: C_5  and  C_6
REMARK    3  A    between atoms: C_6  and  C_7
REMARK    4  A    between atoms: C_6  and  C_8
REMARK    5  A    between atoms: C_9  and  O_10
REMARK    6  A    between atoms: O_10  and  C_11
REMARK    7  A    between atoms: C_11  and  C_12
REMARK    8  A    between atoms: C_12  and  O_13
REMARK    9  A    between atoms: C_12  and  C_14
REMARK   10  A    between atoms: C_14  and  N_15
REMARK   11  A    between atoms: C_19  and  C_20
REMARK                            x       y       z     vdW  Elec       q    Type
REMARK                         _______ _______ _______ _____ _____    ______ ____
ROOT
ATOM      1  C   UNL     1       3.836   7.445  17.340  0.00  0.00    +0.000 C 
ENDROOT
BRANCH   1   2
ATOM      2  O   UNL     1       4.723   6.348  17.098  0.00  0.00    +0.000 OA
BRANCH   2   8
ATOM      3  C   UNL     1       5.116   3.744  13.722  0.00  0.00    +0.000 C 
ATOM      4  C   UNL     1       5.437   4.429  15.046  0.00  0.00    +0.000 C 
ATOM      5  C   UNL     1       6.703   3.858  15.688  0.00  0.00    +0.000 C 
ATOM      6  C   UNL     1       7.041   4.555  17.010  0.00  0.00    +0.000 C 
ATOM      7  C   UNL     1       7.101   6.101  16.902  0.00  0.00    +0.000 C 
ATOM      8  C   UNL     1       5.812   6.631  16.213  0.00  0.00    +0.000 C 
ATOM      9  C   UNL     1       5.615   5.939  14.855  0.00  0.00    +0.000 C 
BRANCH   7  10
ATOM     10  C   UNL     1       7.343   6.745  18.308  0.00  0.00    +0.000 C 
ATOM     11  C   UNL     1       8.031   5.776  19.278  0.00  0.00    +0.000 C 
ATOM     12  C   UNL     1       8.182   8.028  18.234  0.00  0.00    +0.000 C 
ENDBRANCH   7  10
ENDBRANCH   2   8
ENDBRANCH   1   2
BRANCH   1  13
ATOM     13  C   UNL     1       3.126   7.162  18.665  0.00  0.00    +0.000 C 
BRANCH  13  14
ATOM     14  O   UNL     1       2.021   8.082  18.780  0.00  0.00    +0.000 OA
ATOM     15  H   UNL     1       2.314   8.736  19.448  0.00  0.00    +0.000 HD
ENDBRANCH  13  14
BRANCH  13  16
ATOM     16  C   UNL     1       2.565   5.729  18.747  0.00  0.00    +0.000 C 
BRANCH  16  17
ATOM     17  N   UNL     1       3.090   4.900  19.848  0.00  0.00    +0.000 NA
ATOM     18  C   UNL     1       2.084   4.510  20.843  0.00  0.00    +0.000 C 
ATOM     19  C   UNL     1       1.080   3.459  20.363  0.00  0.00    +0.000 C 
ATOM     20  C   UNL     1       1.749   2.263  19.688  0.00  0.00    +0.000 C 
ATOM     21  C   UNL     1       2.821   2.695  18.681  0.00  0.00    +0.000 C 
ATOM     22  C   UNL     1       3.591   1.490  18.145  0.00  0.00    +0.000 C 
ATOM     23  C   UNL     1       3.780   3.708  19.327  0.00  0.00    +0.000 C 
ENDBRANCH  16  17
ENDBRANCH  13  16
ENDBRANCH   1  13
TORSDOF 7
ENDMDL
MODEL 3
REMARK VINA RESULT:      -6.5      3.878      6.344
REMARK  Name = 
REMARK  11 active torsions:
REMARK  status: ('A' for Active; 'I' for Inactive)
REMARK    1  A    between atoms: C_1  and  C_2
REMARK    2  A    between atoms: C_5  and  C_6
REMARK    3  A    between atoms: C_6  and  C_7
REMARK    4  A    between atoms: C_6  and  C_8
REMARK    5  A    between atoms: C_9  and  O_10
REMARK    6  A    between atoms: O_10  and  C_11
REMARK    7  A    between atoms: C_11  and  C_12
REMARK    8  A    between atoms: C_12  and  O_13
REMARK    9  A    between atoms: C_12  and  C_14
REMARK   10  A    between atoms: C_14  and  N_15
REMARK   11  A    between atoms: C_19  and  C_20
REMARK                            x       y       z     vdW  Elec       q    Type
REMARK                         _______ _______ _______ _____ _____    ______ ____
ROOT
ATOM      1  C   UNL     1       2.167   7.567  19.239  0.00  0.00    +0.000 C 
ENDROOT
BRANCH   1   2
ATOM      2  O   UNL     1       2.488   6.399  18.475  0.00  0.00    +0.000 OA
BRANCH   2   8
ATOM      3  C   UNL     1       6.157   5.717  16.377  0.00  0.00    +0.000 C 
ATOM      4  C   UNL     1       4.789   5.445  16.993  0.00  0.00    +0.000 C 
ATOM      5  C   UNL     1       4.304   4.025  16.695  0.00  0.00    +0.000 C 
ATOM      6  C   UNL     1       2.937   3.741  17.327  0.00  0.00    +0.000 C 
ATOM      7  C   UNL     1       2.873   4.061  18.843  0.00  0.00    +0.000 C 
ATOM      8  C   UNL     1       3.407   5.498  19.099  0.00  0.00    +0.000 C 
ATOM      9  C   UNL     1       4.818   5.651  18.511  0.00  0.00    +0.000 C 
BRANCH   7  10
ATOM     10  C   UNL     1       1.423   3.848  19.392  0.00  0.00    +0.000 C 
ATOM     11  C   UNL     1       0.769   2.580  18.827  0.00  0.00    +0.000 C 
ATOM     12  C   UNL     1       1.376   3.772  20.924  0.00  0.00    +0.000 C 
ENDBRANCH   7  10
ENDBRANCH   2   8
ENDBRANCH   1   2
BRANCH   1  13
ATOM     13  C   UNL     1       2.311   8.768  18.302  0.00  0.00    +0.000 C 
BRANCH  13  14
ATOM     14  O   UNL     1       2.759   8.279  17.021  0.00  0.00    +0.000 OA
ATOM     15  H   UNL     1       3.170   7.412  17.219  0.00  0.00    +0.000 HD
ENDBRANCH  13  14
BRANCH  13  16
ATOM     16  C   UNL     1       0.983   9.521  18.090  0.00  0.00    +0.000 C 
BRANCH  16  17
ATOM     17  N   UNL     1       0.413  10.160  19.291  0.00  0.00    +0.000 NA
ATOM     18  C   UNL     1       1.032  11.444  19.644  0.00  0.00    +0.000 C 
ATOM     19  C   UNL     1       0.683  12.603  18.706  0.00  0.00    +0.000 C 
ATOM     20  C   UNL     1      -0.816  12.716  18.433  0.00  0.00    +0.000 C 
ATOM     21  C   UNL     1      -1.446  11.357  18.104  0.00  0.00    +0.000 C 
ATOM     22  C   UNL     1      -2.966  11.465  18.001  0.00  0.00    +0.000 C 
ATOM     23  C   UNL     1      -1.045  10.316  19.161  0.00  0.00    +0.000 C 
ENDBRANCH  16  17
ENDBRANCH  13  16
ENDBRANCH   1  13
TORSDOF 7
ENDMDL
MODEL 4
REMARK VINA RESULT:      -6.4      0.905      1.118
REMARK  Name = 
REMARK  11 active torsions:
REMARK  status: ('A' for Active; 'I' for Inactive)
REMARK    1  A    between atoms: C_1  and  C_2
REMARK    2  A    between atoms: C_5  and  C_6
REMARK    3  A    between atoms: C_6  and  C_7
REMARK    4  A    between atoms: C_6  and  C_8
REMARK    5  A    between atoms: C_9  and  O_10
REMARK    6  A    between atoms: O_10  and  C_11
REMARK    7  A    between atoms: C_11  and  C_12
REMARK    8  A    between atoms: C_12  and  O_13
REMARK    9  A    between atoms: C_12  and  C_14
REMARK   10  A    between atoms: C_14  and  N_15
REMARK   11  A    between atoms: C_19  and  C_20
REMARK                            x       y       z     vdW  Elec       q    Type
REMARK                         _______ _______ _______ _____ _____    ______ ____
ROOT
ATOM      1  C   UNL     1       3.690   6.566  17.831  0.00  0.00    +0.000 C 
ENDROOT
BRANCH   1   2
ATOM      2  O   UNL     1       4.708   5.776  17.207  0.00  0.00    +0.000 OA
BRANCH   2   8
ATOM      3  C   UNL     1       5.295   3.819  13.445  0.00  0.00    +0.000 C 
ATOM      4  C   UNL     1       5.609   4.411  14.814  0.00  0.00    +0.000 C 
ATOM      5  C   UNL     1       7.068   4.178  15.212  0.00  0.00    +0.000 C 
ATOM      6  C   UNL     1       7.394   4.787  16.580  0.00  0.00    +0.000 C 
ATOM      7  C   UNL     1       6.998   6.281  16.707  0.00  0.00    +0.000 C 
ATOM      8  C   UNL     1       5.523   6.473  16.259  0.00  0.00    +0.000 C 
ATOM      9  C   UNL     1       5.322   5.916  14.841  0.00  0.00    +0.000 C 
BRANCH   7  10
ATOM     10  C   UNL     1       7.262   6.802  18.159  0.00  0.00    +0.000 C 
ATOM     11  C   UNL     1       7.870   5.719  19.061  0.00  0.00    +0.000 C 
ATOM     12  C   UNL     1       8.186   8.026  18.189  0.00  0.00    +0.000 C 
ENDBRANCH   7  10
ENDBRANCH   2   8
ENDBRANCH   1   2
BRANCH   1  13
ATOM     13  C   UNL     1       3.068   5.705  18.933  0.00  0.00    +0.000 C 
BRANCH  13  14
ATOM     14  O   UNL     1       2.708   6.576  20.025  0.00  0.00    +0.000 OA
ATOM     15  H   UNL     1       3.563   6.822  20.435  0.00  0.00    +0.000 HD
ENDBRANCH  13  14
BRANCH  13  16
ATOM     16  C   UNL     1       1.797   4.970  18.467  0.00  0.00    +0.000 C 
BRANCH  16  17
ATOM     17  N   UNL     1       1.905   3.502  18.375  0.00  0.00    +0.000 NA
ATOM     18  C   UNL     1       3.278   3.006  18.221  0.00  0.00    +0.000 C 
ATOM     19  C   UNL     1       4.146   3.118  19.477  0.00  0.00    +0.000 C 
ATOM     20  C   UNL     1       3.452   2.579  20.728  0.00  0.00    +0.000 C 
ATOM     21  C   UNL     1       2.009   3.082  20.848  0.00  0.00    +0.000 C 
ATOM     22  C   UNL     1       1.283   2.402  22.007  0.00  0.00    +0.000 C 
ATOM     23  C   UNL     1       1.256   2.853  19.527  0.00  0.00    +0.000 C 
ENDBRANCH  16  17
ENDBRANCH  13  16
ENDBRANCH   1  13
TORSDOF 7
ENDMDL
MODEL 5
REMARK VINA RESULT:      -6.4      3.791      5.952
REMARK  Name = 
REMARK  11 active torsions:
REMARK  status: ('A' for Active; 'I' for Inactive)
REMARK    1  A    between atoms: C_1  and  C_2
REMARK    2  A    between atoms: C_5  and  C_6
REMARK    3  A    between atoms: C_6  and  C_7
REMARK    4  A    between atoms: C_6  and  C_8
REMARK    5  A    between atoms: C_9  and  O_10
REMARK    6  A    between atoms: O_10  and  C_11
REMARK    7  A    between atoms: C_11  and  C_12
REMARK    8  A    between atoms: C_12  and  O_13
REMARK    9  A    between atoms: C_12  and  C_14
REMARK   10  A    between atoms: C_14  and  N_15
REMARK   11  A    between atoms: C_19  and  C_20
REMARK                            x       y       z     vdW  Elec       q    Type
REMARK                         _______ _______ _______ _____ _____    ______ ____
ROOT
ATOM      1  C   UNL     1       2.764   7.876  17.929  0.00  0.00    +0.000 C 
ENDROOT
BRANCH   1   2
ATOM      2  O   UNL     1       3.300   6.671  18.487  0.00  0.00    +0.000 OA
BRANCH   2   8
ATOM      3  C   UNL     1       1.070   3.601  20.469  0.00  0.00    +0.000 C 
ATOM      4  C   UNL     1       2.240   4.316  19.802  0.00  0.00    +0.000 C 
ATOM      5  C   UNL     1       3.518   3.475  19.844  0.00  0.00    +0.000 C 
ATOM      6  C   UNL     1       4.693   4.182  19.159  0.00  0.00    +0.000 C 
ATOM      7  C   UNL     1       4.374   4.668  17.722  0.00  0.00    +0.000 C 
ATOM      8  C   UNL     1       3.053   5.486  17.724  0.00  0.00    +0.000 C 
ATOM      9  C   UNL     1       1.918   4.656  18.343  0.00  0.00    +0.000 C 
BRANCH   7  10
ATOM     10  C   UNL     1       5.581   5.471  17.130  0.00  0.00    +0.000 C 
ATOM     11  C   UNL     1       6.902   4.697  17.240  0.00  0.00    +0.000 C 
ATOM     12  C   UNL     1       5.370   5.856  15.660  0.00  0.00    +0.000 C 
ENDBRANCH   7  10
ENDBRANCH   2   8
ENDBRANCH   1   2
BRANCH   1  13
ATOM     13  C   UNL     1       1.688   8.376  18.895  0.00  0.00    +0.000 C 
BRANCH  13  14
ATOM     14  O   UNL     1       2.078   7.991  20.229  0.00  0.00    +0.000 OA
ATOM     15  H   UNL     1       1.252   7.659  20.639  0.00  0.00    +0.000 HD
ENDBRANCH  13  14
BRANCH  13  16
ATOM     16  C   UNL     1       1.529   9.909  18.866  0.00  0.00    +0.000 C 
BRANCH  16  17
ATOM     17  N   UNL     1       0.508  10.461  19.777  0.00  0.00    +0.000 NA
ATOM     18  C   UNL     1       0.521  11.925  19.882  0.00  0.00    +0.000 C 
ATOM     19  C   UNL     1      -0.002  12.661  18.646  0.00  0.00    +0.000 C 
ATOM     20  C   UNL     1      -1.336  12.109  18.145  0.00  0.00    +0.000 C 
ATOM     21  C   UNL     1      -1.337  10.577  18.079  0.00  0.00    +0.000 C 
ATOM     22  C   UNL     1      -2.726  10.041  17.741  0.00  0.00    +0.000 C 
ATOM     23  C   UNL     1      -0.837   9.989  19.409  0.00  0.00    +0.000 C 
ENDBRANCH  16  17
ENDBRANCH  13  16
ENDBRANCH   1  13
TORSDOF 7
ENDMDL
MODEL 6
REMARK VINA RESULT:      -6.3      3.759      6.416
REMARK  Name = 
REMARK  11 active torsions:
REMARK  status: ('A' for Active; 'I' for Inactive)
REMARK    1  A    between atoms: C_1  and  C_2
REMARK    2  A    between atoms: C_5  and  C_6
REMARK    3  A    between atoms: C_6  and  C_7
REMARK    4  A    between atoms: C_6  and  C_8
REMARK    5  A    between atoms: C_9  and  O_10
REMARK    6  A    between atoms: O_10  and  C_11
REMARK    7  A    between atoms: C_11  and  C_12
REMARK    8  A    between atoms: C_12  and  O_13
REMARK    9  A    between atoms: C_12  and  C_14
REMARK   10  A    between atoms: C_14  and  N_15
REMARK   11  A    between atoms: C_19  and  C_20
REMARK                            x       y       z     vdW  Elec       q    Type
REMARK                         _______ _______ _______ _____ _____    ______ ____
ROOT
ATOM      1  C   UNL     1       2.345   7.719  19.249  0.00  0.00    +0.000 C 
ENDROOT
BRANCH   1   2
ATOM      2  O   UNL     1       2.256   6.297  19.102  0.00  0.00    +0.000 OA
BRANCH   2   8
ATOM      3  C   UNL     1       5.311   5.783  16.147  0.00  0.00    +0.000 C 
ATOM      4  C   UNL     1       4.197   5.437  17.129  0.00  0.00    +0.000 C 
ATOM      5  C   UNL     1       3.840   3.949  17.081  0.00  0.00    +0.000 C 
ATOM      6  C   UNL     1       2.733   3.593  18.078  0.00  0.00    +0.000 C 
ATOM      7  C   UNL     1       3.023   4.065  19.527  0.00  0.00    +0.000 C 
ATOM      8  C   UNL     1       3.414   5.569  19.520  0.00  0.00    +0.000 C 
ATOM      9  C   UNL     1       4.592   5.806  18.562  0.00  0.00    +0.000 C 
BRANCH   7  10
ATOM     10  C   UNL     1       1.805   3.761  20.462  0.00  0.00    +0.000 C 
ATOM     11  C   UNL     1       0.696   2.988  19.736  0.00  0.00    +0.000 C 
ATOM     12  C   UNL     1       2.204   2.969  21.713  0.00  0.00    +0.000 C 
ENDBRANCH   7  10
ENDBRANCH   2   8
ENDBRANCH   1   2
BRANCH   1  13
ATOM     13  C   UNL     1       1.299   8.127  20.288  0.00  0.00    +0.000 C 
BRANCH  13  14
ATOM     14  O   UNL     1       1.914   8.044  21.591  0.00  0.00    +0.000 OA
ATOM     15  H   UNL     1       2.304   7.146  21.621  0.00  0.00    +0.000 HD
ENDBRANCH  13  14
BRANCH  13  16
ATOM     16  C   UNL     1       0.793   9.569  20.089  0.00  0.00    +0.000 C 
BRANCH  16  17
ATOM     17  N   UNL     1       0.815  10.067  18.701  0.00  0.00    +0.000 NA
ATOM     18  C   UNL     1      -0.500  10.103  18.050  0.00  0.00    +0.000 C 
ATOM     19  C   UNL     1      -1.439  11.198  18.562  0.00  0.00    +0.000 C 
ATOM     20  C   UNL     1      -0.769  12.570  18.633  0.00  0.00    +0.000 C 
ATOM     21  C   UNL     1       0.617  12.500  19.283  0.00  0.00    +0.000 C 
ATOM     22  C   UNL     1       1.336  13.845  19.192  0.00  0.00    +0.000 C 
ATOM     23  C   UNL     1       1.456  11.391  18.628  0.00  0.00    +0.000 C 
ENDBRANCH  16  17
ENDBRANCH  13  16
ENDBRANCH   1  13
TORSDOF 7
ENDMDL
MODEL 7
REMARK VINA RESULT:      -6.3      3.857      6.233
REMARK  Name = 
REMARK  11 active torsions:
REMARK  status: ('A' for Active; 'I' for Inactive)
REMARK    1  A    between atoms: C_1  and  C_2
REMARK    2  A    between atoms: C_5  and  C_6
REMARK    3  A    between atoms: C_6  and  C_7
REMARK    4  A    between atoms: C_6  and  C_8
REMARK    5  A    between atoms: C_9  and  O_10
REMARK    6  A    between atoms: O_10  and  C_11
REMARK    7  A    between atoms: C_11  and  C_12
REMARK    8  A    between atoms: C_12  and  O_13
REMARK    9  A    between atoms: C_12  and  C_14
REMARK   10  A    between atoms: C_14  and  N_15
REMARK   11  A    between atoms: C_19  and  C_20
REMARK                            x       y       z     vdW  Elec       q    Type
REMARK                         _______ _______ _______ _____ _____    ______ ____
ROOT
ATOM      1  C   UNL     1       2.565   7.639  18.671  0.00  0.00    +0.000 C 
ENDROOT
BRANCH   1   2
ATOM      2  O   UNL     1       2.392   6.226  18.824  0.00  0.00    +0.000 OA
BRANCH   2   8
ATOM      3  C   UNL     1       5.481   5.485  15.953  0.00  0.00    +0.000 C 
ATOM      4  C   UNL     1       4.352   5.216  16.942  0.00  0.00    +0.000 C 
ATOM      5  C   UNL     1       3.985   3.732  16.994  0.00  0.00    +0.000 C 
ATOM      6  C   UNL     1       2.862   3.453  17.999  0.00  0.00    +0.000 C 
ATOM      7  C   UNL     1       3.137   4.025  19.415  0.00  0.00    +0.000 C 
ATOM      8  C   UNL     1       3.540   5.522  19.308  0.00  0.00    +0.000 C 
ATOM      9  C   UNL     1       4.732   5.683  18.351  0.00  0.00    +0.000 C 
BRANCH   7  10
ATOM     10  C   UNL     1       1.906   3.795  20.353  0.00  0.00    +0.000 C 
ATOM     11  C   UNL     1       0.768   3.049  19.643  0.00  0.00    +0.000 C 
ATOM     12  C   UNL     1       2.269   3.019  21.626  0.00  0.00    +0.000 C 
ENDBRANCH   7  10
ENDBRANCH   2   8
ENDBRANCH   1   2
BRANCH   1  13
ATOM     13  C   UNL     1       1.479   8.316  19.509  0.00  0.00    +0.000 C 
BRANCH  13  14
ATOM     14  O   UNL     1       1.822   8.144  20.900  0.00  0.00    +0.000 OA
ATOM     15  H   UNL     1       2.768   7.892  20.890  0.00  0.00    +0.000 HD
ENDBRANCH  13  14
BRANCH  13  16
ATOM     16  C   UNL     1       1.365   9.826  19.227  0.00  0.00    +0.000 C 
BRANCH  16  17
ATOM     17  N   UNL     1       0.346  10.547  20.014  0.00  0.00    +0.000 NA
ATOM     18  C   UNL     1       0.487  12.008  19.991  0.00  0.00    +0.000 C 
ATOM     19  C   UNL     1       0.111  12.669  18.663  0.00  0.00    +0.000 C 
ATOM     20  C   UNL     1      -1.235  12.189  18.121  0.00  0.00    +0.000 C 
ATOM     21  C   UNL     1      -1.374  10.664  18.189  0.00  0.00    +0.000 C 
ATOM     22  C   UNL     1      -2.783  10.221  17.804  0.00  0.00    +0.000 C 
ATOM     23  C   UNL     1      -1.012  10.160  19.596  0.00  0.00    +0.000 C 
ENDBRANCH  16  17
ENDBRANCH  13  16
ENDBRANCH   1  13
TORSDOF 7
ENDMDL
MODEL 8
REMARK VINA RESULT:      -6.3      2.171      5.689
REMARK  Name = 
REMARK  11 active torsions:
REMARK  status: ('A' for Active; 'I' for Inactive)
REMARK    1  A    between atoms: C_1  and  C_2
REMARK    2  A    between atoms: C_5  and  C_6
REMARK    3  A    between atoms: C_6  and  C_7
REMARK    4  A    between atoms: C_6  and  C_8
REMARK    5  A    between atoms: C_9  and  O_10
REMARK    6  A    between atoms: O_10  and  C_11
REMARK    7  A    between atoms: C_11  and  C_12
REMARK    8  A    between atoms: C_12  and  O_13
REMARK    9  A    between atoms: C_12  and  C_14
REMARK   10  A    between atoms: C_14  and  N_15
REMARK   11  A    between atoms: C_19  and  C_20
REMARK                            x       y       z     vdW  Elec       q    Type
REMARK                         _______ _______ _______ _____ _____    ______ ____
ROOT
ATOM      1  C   UNL     1       5.873   4.995  19.840  0.00  0.00    +0.000 C 
ENDROOT
BRANCH   1   2
ATOM      2  O   UNL     1       4.639   5.503  19.323  0.00  0.00    +0.000 OA
BRANCH   2   8
ATOM      3  C   UNL     1       3.203   1.721  17.920  0.00  0.00    +0.000 C 
ATOM      4  C   UNL     1       3.253   3.220  18.197  0.00  0.00    +0.000 C 
ATOM      5  C   UNL     1       2.058   3.951  17.581  0.00  0.00    +0.000 C 
ATOM      6  C   UNL     1       2.093   5.455  17.872  0.00  0.00    +0.000 C 
ATOM      7  C   UNL     1       2.260   5.796  19.376  0.00  0.00    +0.000 C 
ATOM      8  C   UNL     1       3.460   5.004  19.964  0.00  0.00    +0.000 C 
ATOM      9  C   UNL     1       3.283   3.501  19.703  0.00  0.00    +0.000 C 
BRANCH   7  10
ATOM     10  C   UNL     1       2.395   7.341  19.581  0.00  0.00    +0.000 C 
ATOM     11  C   UNL     1       2.029   8.128  18.315  0.00  0.00    +0.000 C 
ATOM     12  C   UNL     1       1.530   7.862  20.737  0.00  0.00    +0.000 C 
ENDBRANCH   7  10
ENDBRANCH   2   8
ENDBRANCH   1   2
BRANCH   1  13
ATOM     13  C   UNL     1       6.989   5.524  18.936  0.00  0.00    +0.000 C 
BRANCH  13  14
ATOM     14  O   UNL     1       8.172   5.688  19.745  0.00  0.00    +0.000 OA
ATOM     15  H   UNL     1       8.913   5.655  19.105  0.00  0.00    +0.000 HD
ENDBRANCH  13  14
BRANCH  13  16
ATOM     16  C   UNL     1       7.328   4.561  17.782  0.00  0.00    +0.000 C 
BRANCH  16  17
ATOM     17  N   UNL     1       7.562   5.193  16.470  0.00  0.00    +0.000 NA
ATOM     18  C   UNL     1       7.377   4.295  15.324  0.00  0.00    +0.000 C 
ATOM     19  C   UNL     1       5.922   3.926  15.027  0.00  0.00    +0.000 C 
ATOM     20  C   UNL     1       4.996   5.141  14.990  0.00  0.00    +0.000 C 
ATOM     21  C   UNL     1       5.233   6.082  16.177  0.00  0.00    +0.000 C 
ATOM     22  C   UNL     1       4.421   7.367  16.032  0.00  0.00    +0.000 C 
ATOM     23  C   UNL     1       6.732   6.399  16.312  0.00  0.00    +0.000 C 
ENDBRANCH  16  17
ENDBRANCH  13  16
ENDBRANCH   1  13
TORSDOF 7
ENDMDL
MODEL 9
REMARK VINA RESULT:      -6.3      3.937      6.282
REMARK  Name = 
REMARK  11 active torsions:
REMARK  status: ('A' for Active; 'I' for Inactive)
REMARK    1  A    between atoms: C_1  and  C_2
REMARK    2  A    between atoms: C_5  and  C_6
REMARK    3  A    between atoms: C_6  and  C_7
REMARK    4  A    between atoms: C_6  and  C_8
REMARK    5  A    between atoms: C_9  and  O_10
REMARK    6  A    between atoms: O_10  and  C_11
REMARK    7  A    between atoms: C_11  and  C_12
REMARK    8  A    between atoms: C_12  and  O_13
REMARK    9  A    between atoms: C_12  and  C_14
REMARK   10  A    between atoms: C_14  and  N_15
REMARK   11  A    between atoms: C_19  and  C_20
REMARK                            x       y       z     vdW  Elec       q    Type
REMARK                         _______ _______ _______ _____ _____    ______ ____
ROOT
ATOM      1  C   UNL     1       2.140   7.435  19.813  0.00  0.00    +0.000 C 
ENDROOT
BRANCH   1   2
ATOM      2  O   UNL     1       2.411   6.324  18.952  0.00  0.00    +0.000 OA
BRANCH   2   8
ATOM      3  C   UNL     1       6.047   5.968  16.721  0.00  0.00    +0.000 C 
ATOM      4  C   UNL     1       4.700   5.596  17.330  0.00  0.00    +0.000 C 
ATOM      5  C   UNL     1       4.242   4.205  16.888  0.00  0.00    +0.000 C 
ATOM      6  C   UNL     1       2.896   3.819  17.511  0.00  0.00    +0.000 C 
ATOM      7  C   UNL     1       2.858   3.970  19.054  0.00  0.00    +0.000 C 
ATOM      8  C   UNL     1       3.365   5.383  19.456  0.00  0.00    +0.000 C 
ATOM      9  C   UNL     1       4.758   5.636  18.861  0.00  0.00    +0.000 C 
BRANCH   7  10
ATOM     10  C   UNL     1       1.426   3.662  19.605  0.00  0.00    +0.000 C 
ATOM     11  C   UNL     1       0.734   2.537  18.823  0.00  0.00    +0.000 C 
ATOM     12  C   UNL     1       1.433   3.280  21.091  0.00  0.00    +0.000 C 
ENDBRANCH   7  10
ENDBRANCH   2   8
ENDBRANCH   1   2
BRANCH   1  13
ATOM     13  C   UNL     1       1.998   8.669  18.921  0.00  0.00    +0.000 C 
BRANCH  13  14
ATOM     14  O   UNL     1       1.855   8.216  17.559  0.00  0.00    +0.000 OA
ATOM     15  H   UNL     1       1.728   7.247  17.634  0.00  0.00    +0.000 HD
ENDBRANCH  13  14
BRANCH  13  16
ATOM     16  C   UNL     1       0.764   9.521  19.274  0.00  0.00    +0.000 C 
BRANCH  16  17
ATOM     17  N   UNL     1       1.043  10.911  19.681  0.00  0.00    +0.000 NA
ATOM     18  C   UNL     1       0.371  11.928  18.862  0.00  0.00    +0.000 C 
ATOM     19  C   UNL     1      -1.140  12.033  19.082  0.00  0.00    +0.000 C 
ATOM     20  C   UNL     1      -1.521  12.108  20.560  0.00  0.00    +0.000 C 
ATOM     21  C   UNL     1      -0.779  11.062  21.400  0.00  0.00    +0.000 C 
ATOM     22  C   UNL     1      -1.044  11.263  22.891  0.00  0.00    +0.000 C 
ATOM     23  C   UNL     1       0.728  11.116  21.105  0.00  0.00    +0.000 C 
ENDBRANCH  16  17
ENDBRANCH  13  16
ENDBRANCH   1  13
TORSDOF 7
ENDMDL
