MODEL 1
REMARK VINA RESULT:      -8.2      0.000      0.000
REMARK  Name = 
REMARK  3 active torsions:
REMARK  status: ('A' for Active; 'I' for Inactive)
REMARK    1  A    between atoms: C_4  and  C_5
REMARK    2  A    between atoms: C_8  and  C_9
REMARK    3  A    between atoms: C_14  and  C_15
REMARK                            x       y       z     vdW  Elec       q    Type
REMARK                         _______ _______ _______ _____ _____    ______ ____
ROOT
ATOM      1  C   UNL     1       2.585   4.946  20.095  0.00  0.00    +0.000 A 
ATOM      2  N   UNL     1       1.964   4.617  21.253  0.00  0.00    +0.000 NA
ATOM      3  C   UNL     1       2.247   3.411  21.756  0.00  0.00    +0.000 A 
ATOM      4  N   UNL     1       3.063   2.503  21.202  0.00  0.00    +0.000 NA
ATOM      5  C   UNL     1       3.664   2.872  20.052  0.00  0.00    +0.000 A 
ATOM      6  C   UNL     1       3.496   4.103  19.442  0.00  0.00    +0.000 A 
ENDROOT
BRANCH   6   7
ATOM      7  C   UNL     1       4.239   4.493  18.232  0.00  0.00    +0.000 A 
ATOM      8  C   UNL     1       3.909   4.236  16.914  0.00  0.00    +0.000 A 
ATOM      9  C   UNL     1       5.029   4.350  16.031  0.00  0.00    +0.000 A 
ATOM     10  C   UNL     1       5.179   3.893  14.699  0.00  0.00    +0.000 A 
ATOM     11  C   UNL     1       6.368   4.130  14.009  0.00  0.00    +0.000 A 
ATOM     12  C   UNL     1       7.387   4.855  14.612  0.00  0.00    +0.000 A 
ATOM     13  C   UNL     1       7.265   5.307  15.931  0.00  0.00    +0.000 A 
ATOM     14  C   UNL     1       6.092   5.005  16.647  0.00  0.00    +0.000 A 
ATOM     15  S   UNL     1       5.747   5.301  18.309  0.00  0.00    +0.000 S 
ENDBRANCH   6   7
BRANCH   1  19
ATOM     16  C   UNL     1       1.587   8.683  19.429  0.00  0.00    +0.000 A 
ATOM     17  C   UNL     1       2.155   8.206  18.263  0.00  0.00    +0.000 A 
ATOM     18  C   UNL     1       2.421   6.809  18.314  0.00  0.00    +0.000 A 
ATOM     19  C   UNL     1       2.199   6.271  19.569  0.00  0.00    +0.000 A 
ATOM     20  S   UNL     1       1.442   7.426  20.591  0.00  0.00    +0.000 S 
BRANCH  16  24
ATOM     21  C   UNL     1       0.284  12.684  20.244  0.00  0.00    +0.000 A 
ATOM     22  C   UNL     1       0.239  11.722  21.251  0.00  0.00    +0.000 A 
ATOM     23  C   UNL     1       0.675  10.418  20.997  0.00  0.00    +0.000 A 
ATOM     24  C   UNL     1       1.165  10.059  19.734  0.00  0.00    +0.000 A 
ATOM     25  C   UNL     1       1.209  11.043  18.733  0.00  0.00    +0.000 A 
ATOM     26  C   UNL     1       0.772  12.346  18.984  0.00  0.00    +0.000 A 
ENDBRANCH  16  24
ENDBRANCH   1  19
TORSDOF 3
ENDMDL
MODEL 2
REMARK VINA RESULT:      -8.0      1.409      7.100
REMARK  Name = 
REMARK  3 active torsions:
REMARK  status: ('A' for Active; 'I' for Inactive)
REMARK    1  A    between atoms: C_4  and  C_5
REMARK    2  A    between atoms: C_8  and  C_9
REMARK    3  A    between atoms: C_14  and  C_15
REMARK                            x       y       z     vdW  Elec       q    Type
REMARK                         _______ _______ _______ _____ _____    ______ ____
ROOT
ATOM      1  C   UNL     1       3.535   3.673  19.934  0.00  0.00    +0.000 A 
ATOM      2  N   UNL     1       3.595   2.375  20.320  0.00  0.00    +0.000 NA
ATOM      3  C   UNL     1       2.704   1.988  21.238  0.00  0.00    +0.000 A 
ATOM      4  N   UNL     1       1.787   2.773  21.819  0.00  0.00    +0.000 NA
ATOM      5  C   UNL     1       1.758   4.056  21.404  0.00  0.00    +0.000 A 
ATOM      6  C   UNL     1       2.592   4.582  20.432  0.00  0.00    +0.000 A 
ENDROOT
BRANCH   6   7
ATOM      7  C   UNL     1       2.468   5.969  19.951  0.00  0.00    +0.000 A 
ATOM      8  C   UNL     1       2.214   7.106  20.695  0.00  0.00    +0.000 A 
ATOM      9  C   UNL     1       1.723   8.189  19.900  0.00  0.00    +0.000 A 
ATOM     10  C   UNL     1       1.082   9.386  20.302  0.00  0.00    +0.000 A 
ATOM     11  C   UNL     1       0.694  10.325  19.347  0.00  0.00    +0.000 A 
ATOM     12  C   UNL     1       0.978  10.108  18.005  0.00  0.00    +0.000 A 
ATOM     13  C   UNL     1       1.600   8.928  17.584  0.00  0.00    +0.000 A 
ATOM     14  C   UNL     1       1.927   7.952  18.543  0.00  0.00    +0.000 A 
ATOM     15  S   UNL     1       2.549   6.365  18.287  0.00  0.00    +0.000 S 
ENDBRANCH   6   7
BRANCH   1  19
ATOM     16  C   UNL     1       5.778   4.438  16.806  0.00  0.00    +0.000 A 
ATOM     17  C   UNL     1       6.211   5.269  17.822  0.00  0.00    +0.000 A 
ATOM     18  C   UNL     1       5.584   4.984  19.067  0.00  0.00    +0.000 A 
ATOM     19  C   UNL     1       4.571   4.049  18.952  0.00  0.00    +0.000 A 
ATOM     20  S   UNL     1       4.568   3.361  17.377  0.00  0.00    +0.000 S 
BRANCH  16  24
ATOM     21  C   UNL     1       6.943   4.446  12.681  0.00  0.00    +0.000 A 
ATOM     22  C   UNL     1       7.662   5.200  13.605  0.00  0.00    +0.000 A 
ATOM     23  C   UNL     1       7.298   5.193  14.955  0.00  0.00    +0.000 A 
ATOM     24  C   UNL     1       6.210   4.428  15.400  0.00  0.00    +0.000 A 
ATOM     25  C   UNL     1       5.500   3.668  14.454  0.00  0.00    +0.000 A 
ATOM     26  C   UNL     1       5.862   3.677  13.105  0.00  0.00    +0.000 A 
ENDBRANCH  16  24
ENDBRANCH   1  19
TORSDOF 3
ENDMDL
MODEL 3
REMARK VINA RESULT:      -7.8      1.968      2.782
REMARK  Name = 
REMARK  3 active torsions:
REMARK  status: ('A' for Active; 'I' for Inactive)
REMARK    1  A    between atoms: C_4  and  C_5
REMARK    2  A    between atoms: C_8  and  C_9
REMARK    3  A    between atoms: C_14  and  C_15
REMARK                            x       y       z     vdW  Elec       q    Type
REMARK                         _______ _______ _______ _____ _____    ______ ____
ROOT
ATOM      1  C   UNL     1       2.096   4.128  19.035  0.00  0.00    +0.000 A 
ATOM      2  N   UNL     1       0.969   3.439  19.336  0.00  0.00    +0.000 NA
ATOM      3  C   UNL     1       0.908   2.179  18.894  0.00  0.00    +0.000 A 
ATOM      4  N   UNL     1       1.846   1.560  18.164  0.00  0.00    +0.000 NA
ATOM      5  C   UNL     1       2.953   2.280  17.889  0.00  0.00    +0.000 A 
ATOM      6  C   UNL     1       3.168   3.578  18.318  0.00  0.00    +0.000 A 
ENDROOT
BRANCH   6   7
ATOM      7  C   UNL     1       4.429   4.295  18.066  0.00  0.00    +0.000 A 
ATOM      8  C   UNL     1       5.578   4.289  18.835  0.00  0.00    +0.000 A 
ATOM      9  C   UNL     1       6.432   5.404  18.564  0.00  0.00    +0.000 A 
ATOM     10  C   UNL     1       7.518   5.914  19.316  0.00  0.00    +0.000 A 
ATOM     11  C   UNL     1       8.233   7.018  18.851  0.00  0.00    +0.000 A 
ATOM     12  C   UNL     1       7.909   7.589  17.627  0.00  0.00    +0.000 A 
ATOM     13  C   UNL     1       6.833   7.108  16.873  0.00  0.00    +0.000 A 
ATOM     14  C   UNL     1       6.070   6.040  17.379  0.00  0.00    +0.000 A 
ATOM     15  S   UNL     1       4.620   5.362  16.740  0.00  0.00    +0.000 S 
ENDBRANCH   6   7
BRANCH   1  19
ATOM     16  C   UNL     1       1.769   7.996  19.623  0.00  0.00    +0.000 A 
ATOM     17  C   UNL     1       1.746   7.398  20.868  0.00  0.00    +0.000 A 
ATOM     18  C   UNL     1       2.015   6.002  20.812  0.00  0.00    +0.000 A 
ATOM     19  C   UNL     1       2.085   5.525  19.514  0.00  0.00    +0.000 A 
ATOM     20  S   UNL     1       2.062   6.829  18.395  0.00  0.00    +0.000 S 
BRANCH  16  24
ATOM     21  C   UNL     1       1.182  12.153  18.758  0.00  0.00    +0.000 A 
ATOM     22  C   UNL     1       1.970  11.374  17.914  0.00  0.00    +0.000 A 
ATOM     23  C   UNL     1       2.156  10.014  18.181  0.00  0.00    +0.000 A 
ATOM     24  C   UNL     1       1.553   9.413  19.295  0.00  0.00    +0.000 A 
ATOM     25  C   UNL     1       0.756  10.212  20.132  0.00  0.00    +0.000 A 
ATOM     26  C   UNL     1       0.572  11.572  19.867  0.00  0.00    +0.000 A 
ENDBRANCH  16  24
ENDBRANCH   1  19
TORSDOF 3
ENDMDL
MODEL 4
REMARK VINA RESULT:      -7.8      4.272      9.704
REMARK  Name = 
REMARK  3 active torsions:
REMARK  status: ('A' for Active; 'I' for Inactive)
REMARK    1  A    between atoms: C_4  and  C_5
REMARK    2  A    between atoms: C_8  and  C_9
REMARK    3  A    between atoms: C_14  and  C_15
REMARK                            x       y       z     vdW  Elec       q    Type
REMARK                         _______ _______ _______ _____ _____    ______ ____
ROOT
ATOM      1  C   UNL     1       0.978  12.413  19.354  0.00  0.00    +0.000 A 
ATOM      2  N   UNL     1       2.209  12.981  19.339  0.00  0.00    +0.000 NA
ATOM      3  C   UNL     1       2.265  14.262  18.961  0.00  0.00    +0.000 A 
ATOM      4  N   UNL     1       1.223  15.012  18.575  0.00  0.00    +0.000 NA
ATOM      5  C   UNL     1       0.017  14.409  18.608  0.00  0.00    +0.000 A 
ATOM      6  C   UNL     1      -0.194  13.104  19.018  0.00  0.00    +0.000 A 
ENDROOT
BRANCH   6   7
ATOM      7  C   UNL     1      -1.540  12.515  19.118  0.00  0.00    +0.000 A 
ATOM      8  C   UNL     1      -2.154  11.647  18.235  0.00  0.00    +0.000 A 
ATOM      9  C   UNL     1      -3.577  11.620  18.383  0.00  0.00    +0.000 A 
ATOM     10  C   UNL     1      -4.567  11.111  17.508  0.00  0.00    +0.000 A 
ATOM     11  C   UNL     1      -5.914  11.176  17.865  0.00  0.00    +0.000 A 
ATOM     12  C   UNL     1      -6.281  11.698  19.098  0.00  0.00    +0.000 A 
ATOM     13  C   UNL     1      -5.320  12.217  19.973  0.00  0.00    +0.000 A 
ATOM     14  C   UNL     1      -3.970  12.213  19.580  0.00  0.00    +0.000 A 
ATOM     15  S   UNL     1      -2.619  12.918  20.385  0.00  0.00    +0.000 S 
ENDBRANCH   6   7
BRANCH   1  19
ATOM     16  C   UNL     1       1.521   8.554  19.822  0.00  0.00    +0.000 A 
ATOM     17  C   UNL     1       1.070   9.045  21.033  0.00  0.00    +0.000 A 
ATOM     18  C   UNL     1       0.682  10.412  20.960  0.00  0.00    +0.000 A 
ATOM     19  C   UNL     1       0.987  10.987  19.739  0.00  0.00    +0.000 A 
ATOM     20  S   UNL     1       1.518   9.789  18.628  0.00  0.00    +0.000 S 
BRANCH  16  24
ATOM     21  C   UNL     1       2.784   4.555  18.935  0.00  0.00    +0.000 A 
ATOM     22  C   UNL     1       2.980   5.568  17.999  0.00  0.00    +0.000 A 
ATOM     23  C   UNL     1       2.583   6.877  18.285  0.00  0.00    +0.000 A 
ATOM     24  C   UNL     1       1.988   7.194  19.515  0.00  0.00    +0.000 A 
ATOM     25  C   UNL     1       1.804   6.161  20.450  0.00  0.00    +0.000 A 
ATOM     26  C   UNL     1       2.198   4.851  20.163  0.00  0.00    +0.000 A 
ENDBRANCH  16  24
ENDBRANCH   1  19
TORSDOF 3
ENDMDL
MODEL 5
REMARK VINA RESULT:      -7.8      1.021      1.751
REMARK  Name = 
REMARK  3 active torsions:
REMARK  status: ('A' for Active; 'I' for Inactive)
REMARK    1  A    between atoms: C_4  and  C_5
REMARK    2  A    between atoms: C_8  and  C_9
REMARK    3  A    between atoms: C_14  and  C_15
REMARK                            x       y       z     vdW  Elec       q    Type
REMARK                         _______ _______ _______ _____ _____    ______ ____
ROOT
ATOM      1  C   UNL     1       2.668   4.545  20.213  0.00  0.00    +0.000 A 
ATOM      2  N   UNL     1       1.916   4.446  21.336  0.00  0.00    +0.000 NA
ATOM      3  C   UNL     1       2.073   3.332  22.058  0.00  0.00    +0.000 A 
ATOM      4  N   UNL     1       2.881   2.308  21.752  0.00  0.00    +0.000 NA
ATOM      5  C   UNL     1       3.614   2.448  20.628  0.00  0.00    +0.000 A 
ATOM      6  C   UNL     1       3.584   3.565  19.810  0.00  0.00    +0.000 A 
ENDROOT
BRANCH   6   7
ATOM      7  C   UNL     1       4.466   3.709  18.639  0.00  0.00    +0.000 A 
ATOM      8  C   UNL     1       5.676   4.373  18.565  0.00  0.00    +0.000 A 
ATOM      9  C   UNL     1       6.047   4.702  17.223  0.00  0.00    +0.000 A 
ATOM     10  C   UNL     1       7.026   5.610  16.753  0.00  0.00    +0.000 A 
ATOM     11  C   UNL     1       7.235   5.765  15.383  0.00  0.00    +0.000 A 
ATOM     12  C   UNL     1       6.513   4.995  14.480  0.00  0.00    +0.000 A 
ATOM     13  C   UNL     1       5.533   4.100  14.921  0.00  0.00    +0.000 A 
ATOM     14  C   UNL     1       5.277   3.997  16.301  0.00  0.00    +0.000 A 
ATOM     15  S   UNL     1       4.038   3.102  17.096  0.00  0.00    +0.000 S 
ENDBRANCH   6   7
BRANCH   1  19
ATOM     16  C   UNL     1       2.023   8.164  18.835  0.00  0.00    +0.000 A 
ATOM     17  C   UNL     1       2.591   7.438  17.805  0.00  0.00    +0.000 A 
ATOM     18  C   UNL     1       2.734   6.058  18.120  0.00  0.00    +0.000 A 
ATOM     19  C   UNL     1       2.419   5.778  19.438  0.00  0.00    +0.000 A 
ATOM     20  S   UNL     1       1.726   7.156  20.195  0.00  0.00    +0.000 S 
BRANCH  16  24
ATOM     21  C   UNL     1       1.149  12.356  19.023  0.00  0.00    +0.000 A 
ATOM     22  C   UNL     1       2.076  11.882  18.097  0.00  0.00    +0.000 A 
ATOM     23  C   UNL     1       2.357  10.515  18.020  0.00  0.00    +0.000 A 
ATOM     24  C   UNL     1       1.712   9.601  18.865  0.00  0.00    +0.000 A 
ATOM     25  C   UNL     1       0.775  10.096  19.788  0.00  0.00    +0.000 A 
ATOM     26  C   UNL     1       0.495  11.462  19.868  0.00  0.00    +0.000 A 
ENDBRANCH  16  24
ENDBRANCH   1  19
TORSDOF 3
ENDMDL
MODEL 6
REMARK VINA RESULT:      -7.7      4.014      9.317
REMARK  Name = 
REMARK  3 active torsions:
REMARK  status: ('A' for Active; 'I' for Inactive)
REMARK    1  A    between atoms: C_4  and  C_5
REMARK    2  A    between atoms: C_8  and  C_9
REMARK    3  A    between atoms: C_14  and  C_15
REMARK                            x       y       z     vdW  Elec       q    Type
REMARK                         _______ _______ _______ _____ _____    ______ ____
ROOT
ATOM      1  C   UNL     1       1.114  12.206  20.538  0.00  0.00    +0.000 A 
ATOM      2  N   UNL     1       2.243  12.765  21.037  0.00  0.00    +0.000 NA
ATOM      3  C   UNL     1       2.358  14.090  20.902  0.00  0.00    +0.000 A 
ATOM      4  N   UNL     1       1.472  14.895  20.300  0.00  0.00    +0.000 NA
ATOM      5  C   UNL     1       0.361  14.299  19.820  0.00  0.00    +0.000 A 
ATOM      6  C   UNL     1       0.092  12.945  19.927  0.00  0.00    +0.000 A 
ENDROOT
BRANCH   6   7
ATOM      7  C   UNL     1      -1.174  12.352  19.464  0.00  0.00    +0.000 A 
ATOM      8  C   UNL     1      -1.403  11.644  18.299  0.00  0.00    +0.000 A 
ATOM      9  C   UNL     1      -2.787  11.598  17.942  0.00  0.00    +0.000 A 
ATOM     10  C   UNL     1      -3.391  11.243  16.712  0.00  0.00    +0.000 A 
ATOM     11  C   UNL     1      -4.780  11.252  16.587  0.00  0.00    +0.000 A 
ATOM     12  C   UNL     1      -5.573  11.565  17.684  0.00  0.00    +0.000 A 
ATOM     13  C   UNL     1      -4.997  11.930  18.906  0.00  0.00    +0.000 A 
ATOM     14  C   UNL     1      -3.596  11.987  19.007  0.00  0.00    +0.000 A 
ATOM     15  S   UNL     1      -2.639  12.545  20.328  0.00  0.00    +0.000 S 
ENDBRANCH   6   7
BRANCH   1  19
ATOM     16  C   UNL     1       1.514   8.305  20.362  0.00  0.00    +0.000 A 
ATOM     17  C   UNL     1       1.057   8.604  21.631  0.00  0.00    +0.000 A 
ATOM     18  C   UNL     1       0.718   9.977  21.783  0.00  0.00    +0.000 A 
ATOM     19  C   UNL     1       1.066  10.736  20.680  0.00  0.00    +0.000 A 
ATOM     20  S   UNL     1       1.577   9.721  19.391  0.00  0.00    +0.000 S 
BRANCH  16  24
ATOM     21  C   UNL     1       2.656   4.464  18.840  0.00  0.00    +0.000 A 
ATOM     22  C   UNL     1       2.857   5.604  18.065  0.00  0.00    +0.000 A 
ATOM     23  C   UNL     1       2.500   6.862  18.559  0.00  0.00    +0.000 A 
ATOM     24  C   UNL     1       1.940   6.998  19.837  0.00  0.00    +0.000 A 
ATOM     25  C   UNL     1       1.750   5.838  20.607  0.00  0.00    +0.000 A 
ATOM     26  C   UNL     1       2.104   4.580  20.113  0.00  0.00    +0.000 A 
ENDBRANCH  16  24
ENDBRANCH   1  19
TORSDOF 3
ENDMDL
MODEL 7
REMARK VINA RESULT:      -7.7      4.211      9.556
REMARK  Name = 
REMARK  3 active torsions:
REMARK  status: ('A' for Active; 'I' for Inactive)
REMARK    1  A    between atoms: C_4  and  C_5
REMARK    2  A    between atoms: C_8  and  C_9
REMARK    3  A    between atoms: C_14  and  C_15
REMARK                            x       y       z     vdW  Elec       q    Type
REMARK                         _______ _______ _______ _____ _____    ______ ____
ROOT
ATOM      1  C   UNL     1       1.285  12.305  18.965  0.00  0.00    +0.000 A 
ATOM      2  N   UNL     1       2.515  12.870  19.021  0.00  0.00    +0.000 NA
ATOM      3  C   UNL     1       2.561  14.202  18.911  0.00  0.00    +0.000 A 
ATOM      4  N   UNL     1       1.507  15.009  18.727  0.00  0.00    +0.000 NA
ATOM      5  C   UNL     1       0.301  14.406  18.681  0.00  0.00    +0.000 A 
ATOM      6  C   UNL     1       0.103  13.043  18.822  0.00  0.00    +0.000 A 
ENDROOT
BRANCH   6   7
ATOM      7  C   UNL     1      -1.240  12.439  18.850  0.00  0.00    +0.000 A 
ATOM      8  C   UNL     1      -1.872  11.728  17.847  0.00  0.00    +0.000 A 
ATOM      9  C   UNL     1      -3.291  11.670  18.018  0.00  0.00    +0.000 A 
ATOM     10  C   UNL     1      -4.298  11.309  17.091  0.00  0.00    +0.000 A 
ATOM     11  C   UNL     1      -5.637  11.307  17.481  0.00  0.00    +0.000 A 
ATOM     12  C   UNL     1      -5.979  11.614  18.791  0.00  0.00    +0.000 A 
ATOM     13  C   UNL     1      -5.001  11.984  19.721  0.00  0.00    +0.000 A 
ATOM     14  C   UNL     1      -3.659  12.053  19.305  0.00  0.00    +0.000 A 
ATOM     15  S   UNL     1      -2.293  12.621  20.188  0.00  0.00    +0.000 S 
ENDBRANCH   6   7
BRANCH   1  19
ATOM     16  C   UNL     1       1.947   8.443  18.732  0.00  0.00    +0.000 A 
ATOM     17  C   UNL     1       1.271   8.662  19.917  0.00  0.00    +0.000 A 
ATOM     18  C   UNL     1       0.828  10.008  20.055  0.00  0.00    +0.000 A 
ATOM     19  C   UNL     1       1.305  10.830  19.049  0.00  0.00    +0.000 A 
ATOM     20  S   UNL     1       2.081   9.899  17.831  0.00  0.00    +0.000 S 
BRANCH  16  24
ATOM     21  C   UNL     1       3.734   4.792  17.372  0.00  0.00    +0.000 A 
ATOM     22  C   UNL     1       2.491   4.763  17.999  0.00  0.00    +0.000 A 
ATOM     23  C   UNL     1       1.894   5.950  18.434  0.00  0.00    +0.000 A 
ATOM     24  C   UNL     1       2.532   7.185  18.244  0.00  0.00    +0.000 A 
ATOM     25  C   UNL     1       3.783   7.196  17.604  0.00  0.00    +0.000 A 
ATOM     26  C   UNL     1       4.381   6.009  17.172  0.00  0.00    +0.000 A 
ENDBRANCH  16  24
ENDBRANCH   1  19
TORSDOF 3
ENDMDL
MODEL 8
REMARK VINA RESULT:      -7.6      4.268      6.760
REMARK  Name = 
REMARK  3 active torsions:
REMARK  status: ('A' for Active; 'I' for Inactive)
REMARK    1  A    between atoms: C_4  and  C_5
REMARK    2  A    between atoms: C_8  and  C_9
REMARK    3  A    between atoms: C_14  and  C_15
REMARK                            x       y       z     vdW  Elec       q    Type
REMARK                         _______ _______ _______ _____ _____    ______ ____
ROOT
ATOM      1  C   UNL     1       6.821   5.405  16.088  0.00  0.00    +0.000 A 
ATOM      2  N   UNL     1       7.471   5.329  14.901  0.00  0.00    +0.000 NA
ATOM      3  C   UNL     1       6.927   4.529  13.977  0.00  0.00    +0.000 A 
ATOM      4  N   UNL     1       5.823   3.787  14.137  0.00  0.00    +0.000 NA
ATOM      5  C   UNL     1       5.205   3.894  15.331  0.00  0.00    +0.000 A 
ATOM      6  C   UNL     1       5.632   4.714  16.361  0.00  0.00    +0.000 A 
ENDROOT
BRANCH   6   7
ATOM      7  C   UNL     1       4.877   4.863  17.617  0.00  0.00    +0.000 A 
ATOM      8  C   UNL     1       4.749   3.947  18.644  0.00  0.00    +0.000 A 
ATOM      9  C   UNL     1       3.622   4.210  19.484  0.00  0.00    +0.000 A 
ATOM     10  C   UNL     1       2.986   3.372  20.432  0.00  0.00    +0.000 A 
ATOM     11  C   UNL     1       1.896   3.845  21.163  0.00  0.00    +0.000 A 
ATOM     12  C   UNL     1       1.463   5.154  20.994  0.00  0.00    +0.000 A 
ATOM     13  C   UNL     1       2.069   5.996  20.055  0.00  0.00    +0.000 A 
ATOM     14  C   UNL     1       3.123   5.493  19.271  0.00  0.00    +0.000 A 
ATOM     15  S   UNL     1       3.934   6.252  17.953  0.00  0.00    +0.000 S 
ENDBRANCH   6   7
BRANCH   1  19
ATOM     16  C   UNL     1       8.322   8.276  18.304  0.00  0.00    +0.000 A 
ATOM     17  C   UNL     1       8.200   7.164  19.116  0.00  0.00    +0.000 A 
ATOM     18  C   UNL     1       7.812   5.999  18.397  0.00  0.00    +0.000 A 
ATOM     19  C   UNL     1       7.492   6.270  17.078  0.00  0.00    +0.000 A 
ATOM     20  S   UNL     1       7.904   7.890  16.683  0.00  0.00    +0.000 S 
BRANCH  16  24
ATOM     21  C   UNL     1       9.368  12.282  19.411  0.00  0.00    +0.000 A 
ATOM     22  C   UNL     1       9.546  11.243  20.321  0.00  0.00    +0.000 A 
ATOM     23  C   UNL     1       9.220   9.932  19.963  0.00  0.00    +0.000 A 
ATOM     24  C   UNL     1       8.715   9.640  18.688  0.00  0.00    +0.000 A 
ATOM     25  C   UNL     1       8.549  10.700  17.781  0.00  0.00    +0.000 A 
ATOM     26  C   UNL     1       8.872  12.011  18.138  0.00  0.00    +0.000 A 
ENDBRANCH  16  24
ENDBRANCH   1  19
TORSDOF 3
ENDMDL
MODEL 9
REMARK VINA RESULT:      -7.5      1.381      6.932
REMARK  Name = 
REMARK  3 active torsions:
REMARK  status: ('A' for Active; 'I' for Inactive)
REMARK    1  A    between atoms: C_4  and  C_5
REMARK    2  A    between atoms: C_8  and  C_9
REMARK    3  A    between atoms: C_14  and  C_15
REMARK                            x       y       z     vdW  Elec       q    Type
REMARK                         _______ _______ _______ _____ _____    ______ ____
ROOT
ATOM      1  C   UNL     1       3.838   3.725  19.840  0.00  0.00    +0.000 A 
ATOM      2  N   UNL     1       4.248   2.509  20.276  0.00  0.00    +0.000 NA
ATOM      3  C   UNL     1       3.565   1.984  21.299  0.00  0.00    +0.000 A 
ATOM      4  N   UNL     1       2.540   2.566  21.937  0.00  0.00    +0.000 NA
ATOM      5  C   UNL     1       2.162   3.774  21.470  0.00  0.00    +0.000 A 
ATOM      6  C   UNL     1       2.750   4.415  20.393  0.00  0.00    +0.000 A 
ENDROOT
BRANCH   6   7
ATOM      7  C   UNL     1       2.248   5.695  19.865  0.00  0.00    +0.000 A 
ATOM      8  C   UNL     1       2.398   6.204  18.588  0.00  0.00    +0.000 A 
ATOM      9  C   UNL     1       2.192   7.618  18.528  0.00  0.00    +0.000 A 
ATOM     10  C   UNL     1       2.532   8.537  17.506  0.00  0.00    +0.000 A 
ATOM     11  C   UNL     1       2.220   9.889  17.650  0.00  0.00    +0.000 A 
ATOM     12  C   UNL     1       1.533  10.326  18.776  0.00  0.00    +0.000 A 
ATOM     13  C   UNL     1       1.197   9.437  19.803  0.00  0.00    +0.000 A 
ATOM     14  C   UNL     1       1.576   8.087  19.685  0.00  0.00    +0.000 A 
ATOM     15  S   UNL     1       1.428   6.828  20.852  0.00  0.00    +0.000 S 
ENDBRANCH   6   7
BRANCH   1  19
ATOM     16  C   UNL     1       5.620   4.683  16.477  0.00  0.00    +0.000 A 
ATOM     17  C   UNL     1       5.731   5.776  17.314  0.00  0.00    +0.000 A 
ATOM     18  C   UNL     1       5.262   5.509  18.631  0.00  0.00    +0.000 A 
ATOM     19  C   UNL     1       4.657   4.268  18.738  0.00  0.00    +0.000 A 
ATOM     20  S   UNL     1       4.889   3.362  17.297  0.00  0.00    +0.000 S 
BRANCH  16  24
ATOM     21  C   UNL     1       6.855   4.342  12.386  0.00  0.00    +0.000 A 
ATOM     22  C   UNL     1       5.683   3.719  12.811  0.00  0.00    +0.000 A 
ATOM     23  C   UNL     1       5.266   3.836  14.140  0.00  0.00    +0.000 A 
ATOM     24  C   UNL     1       6.013   4.582  15.063  0.00  0.00    +0.000 A 
ATOM     25  C   UNL     1       7.188   5.209  14.616  0.00  0.00    +0.000 A 
ATOM     26  C   UNL     1       7.607   5.090  13.288  0.00  0.00    +0.000 A 
ENDBRANCH  16  24
ENDBRANCH   1  19
TORSDOF 3
ENDMDL
