MODEL 1
REMARK VINA RESULT:      -7.8      0.000      0.000
REMARK  Name = 
REMARK  6 active torsions:
REMARK  status: ('A' for Active; 'I' for Inactive)
REMARK    1  A    between atoms: C_1  and  O_2
REMARK    2  A    between atoms: O_2  and  C_3
REMARK    3  A    between atoms: C_7  and  C_8
REMARK    4  A    between atoms: C_10  and  C_11
REMARK    5  A    between atoms: C_11  and  N_12
REMARK    6  A    between atoms: C_16  and  C_18
REMARK                            x       y       z     vdW  Elec       q    Type
REMARK                         _______ _______ _______ _____ _____    ______ ____
ROOT
ATOM      1  C   UNL     1       4.808   5.520  19.060  0.00  0.00    +0.000 C 
ENDROOT
BRANCH   1   2
ATOM      2  N   UNL     1       3.399   5.379  18.652  0.00  0.00    +0.000 NA
ATOM      3  C   UNL     1       2.464   5.136  19.773  0.00  0.00    +0.000 C 
ATOM      4  C   UNL     1       2.121   6.341  20.674  0.00  0.00    +0.000 C 
ATOM      5  N   UNL     1       1.815   7.576  19.942  0.00  0.00    +0.000 N 
ATOM      6  C   UNL     1       1.132   8.570  20.653  0.00  0.00    +0.000 C 
ATOM      7  O   UNL     1       0.785   8.384  21.820  0.00  0.00    +0.000 OA
ATOM      8  C   UNL     1       2.650   7.844  18.772  0.00  0.00    +0.000 C 
ATOM      9  C   UNL     1       2.927   6.581  17.920  0.00  0.00    +0.000 C 
BRANCH   6  10
ATOM     10  C   UNL     1       0.846   9.928  19.947  0.00  0.00    +0.000 C 
ATOM     11  C   UNL     1       0.480  11.033  20.938  0.00  0.00    +0.000 C 
ATOM     12  C   UNL     1      -0.534  11.875  20.211  0.00  0.00    +0.000 C 
ATOM     13  C   UNL     1      -1.151  10.917  19.220  0.00  0.00    +0.000 C 
ATOM     14  O   UNL     1      -0.231   9.844  19.006  0.00  0.00    +0.000 OA
ENDBRANCH   6  10
ENDBRANCH   1   2
BRANCH   1  17
ATOM     15  C   UNL     1       6.435   4.746  15.978  0.00  0.00    +0.000 A 
ATOM     16  N   UNL     1       5.363   5.096  16.666  0.00  0.00    +0.000 NA
ATOM     17  C   UNL     1       5.795   5.202  17.971  0.00  0.00    +0.000 A 
ATOM     18  C   UNL     1       7.136   4.883  18.016  0.00  0.00    +0.000 A 
ATOM     19  O   UNL     1       7.559   4.595  16.747  0.00  0.00    +0.000 OA
BRANCH  15  24
ATOM     20  C   UNL     1       5.983   3.460  12.430  0.00  0.00    +0.000 A 
ATOM     21  C   UNL     1       7.042   4.120  11.801  0.00  0.00    +0.000 A 
ATOM     22  C   UNL     1       7.833   5.022  12.506  0.00  0.00    +0.000 A 
ATOM     23  C   UNL     1       7.582   5.242  13.859  0.00  0.00    +0.000 A 
ATOM     24  C   UNL     1       6.546   4.565  14.527  0.00  0.00    +0.000 A 
ATOM     25  C   UNL     1       5.725   3.696  13.789  0.00  0.00    +0.000 A 
BRANCH  20  27
ATOM     26  C   UNL     1       4.034   3.006  11.140  0.00  0.00    +0.000 C 
ATOM     27  O   UNL     1       5.309   2.596  11.611  0.00  0.00    +0.000 OA
ENDBRANCH  20  27
ENDBRANCH  15  24
ENDBRANCH   1  17
TORSDOF 5
ENDMDL
MODEL 2
REMARK VINA RESULT:      -7.7      4.946      7.645
REMARK  Name = 
REMARK  6 active torsions:
REMARK  status: ('A' for Active; 'I' for Inactive)
REMARK    1  A    between atoms: C_1  and  O_2
REMARK    2  A    between atoms: O_2  and  C_3
REMARK    3  A    between atoms: C_7  and  C_8
REMARK    4  A    between atoms: C_10  and  C_11
REMARK    5  A    between atoms: C_11  and  N_12
REMARK    6  A    between atoms: C_16  and  C_18
REMARK                            x       y       z     vdW  Elec       q    Type
REMARK                         _______ _______ _______ _____ _____    ______ ____
ROOT
ATOM      1  C   UNL     1       7.125   6.248  16.338  0.00  0.00    +0.000 C 
ENDROOT
BRANCH   1   2
ATOM      2  N   UNL     1       5.682   6.454  16.122  0.00  0.00    +0.000 NA
ATOM      3  C   UNL     1       5.010   5.344  15.413  0.00  0.00    +0.000 C 
ATOM      4  C   UNL     1       4.742   4.056  16.222  0.00  0.00    +0.000 C 
ATOM      5  N   UNL     1       4.189   4.286  17.562  0.00  0.00    +0.000 N 
ATOM      6  C   UNL     1       3.572   3.192  18.179  0.00  0.00    +0.000 C 
ATOM      7  O   UNL     1       3.477   2.112  17.597  0.00  0.00    +0.000 OA
ATOM      8  C   UNL     1       4.753   5.420  18.294  0.00  0.00    +0.000 C 
ATOM      9  C   UNL     1       4.970   6.670  17.406  0.00  0.00    +0.000 C 
BRANCH   6  10
ATOM     10  C   UNL     1       3.033   3.362  19.630  0.00  0.00    +0.000 C 
ATOM     11  C   UNL     1       2.098   2.224  20.040  0.00  0.00    +0.000 C 
ATOM     12  C   UNL     1       1.069   2.877  20.922  0.00  0.00    +0.000 C 
ATOM     13  C   UNL     1       1.057   4.314  20.457  0.00  0.00    +0.000 C 
ATOM     14  O   UNL     1       2.302   4.581  19.807  0.00  0.00    +0.000 OA
ENDBRANCH   6  10
ENDBRANCH   1   2
BRANCH   1  17
ATOM     15  C   UNL     1       8.519   8.836  18.364  0.00  0.00    +0.000 A 
ATOM     16  N   UNL     1       7.963   8.416  17.241  0.00  0.00    +0.000 NA
ATOM     17  C   UNL     1       7.703   7.078  17.450  0.00  0.00    +0.000 A 
ATOM     18  C   UNL     1       8.143   6.738  18.712  0.00  0.00    +0.000 A 
ATOM     19  O   UNL     1       8.663   7.855  19.309  0.00  0.00    +0.000 OA
BRANCH  15  24
ATOM     20  C   UNL     1       9.539  12.489  18.121  0.00  0.00    +0.000 A 
ATOM     21  C   UNL     1       9.981  12.700  19.430  0.00  0.00    +0.000 A 
ATOM     22  C   UNL     1       9.875  11.693  20.384  0.00  0.00    +0.000 A 
ATOM     23  C   UNL     1       9.349  10.456  20.019  0.00  0.00    +0.000 A 
ATOM     24  C   UNL     1       8.929  10.203  18.701  0.00  0.00    +0.000 A 
ATOM     25  C   UNL     1       8.996  11.247  17.762  0.00  0.00    +0.000 A 
BRANCH  20  27
ATOM     26  C   UNL     1      10.430  14.678  17.827  0.00  0.00    +0.000 C 
ATOM     27  O   UNL     1       9.723  13.567  17.298  0.00  0.00    +0.000 OA
ENDBRANCH  20  27
ENDBRANCH  15  24
ENDBRANCH   1  17
TORSDOF 5
ENDMDL
MODEL 3
REMARK VINA RESULT:      -7.6      4.886      7.770
REMARK  Name = 
REMARK  6 active torsions:
REMARK  status: ('A' for Active; 'I' for Inactive)
REMARK    1  A    between atoms: C_1  and  O_2
REMARK    2  A    between atoms: O_2  and  C_3
REMARK    3  A    between atoms: C_7  and  C_8
REMARK    4  A    between atoms: C_10  and  C_11
REMARK    5  A    between atoms: C_11  and  N_12
REMARK    6  A    between atoms: C_16  and  C_18
REMARK                            x       y       z     vdW  Elec       q    Type
REMARK                         _______ _______ _______ _____ _____    ______ ____
ROOT
ATOM      1  C   UNL     1       7.022   6.020  16.421  0.00  0.00    +0.000 C 
ENDROOT
BRANCH   1   2
ATOM      2  N   UNL     1       5.566   6.180  16.261  0.00  0.00    +0.000 NA
ATOM      3  C   UNL     1       4.902   5.048  15.579  0.00  0.00    +0.000 C 
ATOM      4  C   UNL     1       4.706   3.753  16.397  0.00  0.00    +0.000 C 
ATOM      5  N   UNL     1       4.199   3.967  17.757  0.00  0.00    +0.000 N 
ATOM      6  C   UNL     1       3.640   2.855  18.398  0.00  0.00    +0.000 C 
ATOM      7  O   UNL     1       3.557   1.772  17.819  0.00  0.00    +0.000 OA
ATOM      8  C   UNL     1       4.754   5.119  18.467  0.00  0.00    +0.000 C 
ATOM      9  C   UNL     1       4.897   6.374  17.572  0.00  0.00    +0.000 C 
BRANCH   6  10
ATOM     10  C   UNL     1       3.153   3.010  19.868  0.00  0.00    +0.000 C 
ATOM     11  C   UNL     1       1.909   2.170  20.159  0.00  0.00    +0.000 C 
ATOM     12  C   UNL     1       1.111   2.996  21.131  0.00  0.00    +0.000 C 
ATOM     13  C   UNL     1       1.544   4.413  20.837  0.00  0.00    +0.000 C 
ATOM     14  O   UNL     1       2.824   4.364  20.200  0.00  0.00    +0.000 OA
ENDBRANCH   6  10
ENDBRANCH   1   2
BRANCH   1  17
ATOM     15  C   UNL     1       8.436   8.751  18.234  0.00  0.00    +0.000 A 
ATOM     16  N   UNL     1       7.840   8.255  17.163  0.00  0.00    +0.000 NA
ATOM     17  C   UNL     1       7.628   6.925  17.458  0.00  0.00    +0.000 A 
ATOM     18  C   UNL     1       8.135   6.667  18.714  0.00  0.00    +0.000 A 
ATOM     19  O   UNL     1       8.651   7.828  19.223  0.00  0.00    +0.000 OA
BRANCH  15  24
ATOM     20  C   UNL     1       9.744  11.931  19.852  0.00  0.00    +0.000 A 
ATOM     21  C   UNL     1       9.267  12.876  18.939  0.00  0.00    +0.000 A 
ATOM     22  C   UNL     1       8.603  12.473  17.785  0.00  0.00    +0.000 A 
ATOM     23  C   UNL     1       8.386  11.116  17.557  0.00  0.00    +0.000 A 
ATOM     24  C   UNL     1       8.823  10.145  18.476  0.00  0.00    +0.000 A 
ATOM     25  C   UNL     1       9.537  10.565  19.611  0.00  0.00    +0.000 A 
BRANCH  20  27
ATOM     26  C   UNL     1      10.252  13.887  21.112  0.00  0.00    +0.000 C 
ATOM     27  O   UNL     1      10.362  12.482  20.941  0.00  0.00    +0.000 OA
ENDBRANCH  20  27
ENDBRANCH  15  24
ENDBRANCH   1  17
TORSDOF 5
ENDMDL
MODEL 4
REMARK VINA RESULT:      -7.4      2.669      4.820
REMARK  Name = 
REMARK  6 active torsions:
REMARK  status: ('A' for Active; 'I' for Inactive)
REMARK    1  A    between atoms: C_1  and  O_2
REMARK    2  A    between atoms: O_2  and  C_3
REMARK    3  A    between atoms: C_7  and  C_8
REMARK    4  A    between atoms: C_10  and  C_11
REMARK    5  A    between atoms: C_11  and  N_12
REMARK    6  A    between atoms: C_16  and  C_18
REMARK                            x       y       z     vdW  Elec       q    Type
REMARK                         _______ _______ _______ _____ _____    ______ ____
ROOT
ATOM      1  C   UNL     1       0.995   7.281  20.936  0.00  0.00    +0.000 C 
ENDROOT
BRANCH   1   2
ATOM      2  N   UNL     1       1.643   8.604  20.987  0.00  0.00    +0.000 NA
ATOM      3  C   UNL     1       1.181   9.547  19.945  0.00  0.00    +0.000 C 
ATOM      4  C   UNL     1      -0.212  10.182  20.143  0.00  0.00    +0.000 C 
ATOM      5  N   UNL     1      -0.466  10.674  21.502  0.00  0.00    +0.000 N 
ATOM      6  C   UNL     1      -1.518  11.587  21.649  0.00  0.00    +0.000 C 
ATOM      7  O   UNL     1      -2.160  11.969  20.671  0.00  0.00    +0.000 OA
ATOM      8  C   UNL     1       0.034   9.830  22.586  0.00  0.00    +0.000 C 
ATOM      9  C   UNL     1       1.443   9.252  22.307  0.00  0.00    +0.000 C 
BRANCH   6  10
ATOM     10  C   UNL     1      -1.876  12.085  23.080  0.00  0.00    +0.000 C 
ATOM     11  C   UNL     1      -3.344  12.493  23.202  0.00  0.00    +0.000 C 
ATOM     12  C   UNL     1      -3.337  13.654  24.159  0.00  0.00    +0.000 C 
ATOM     13  C   UNL     1      -1.952  14.237  24.007  0.00  0.00    +0.000 C 
ATOM     14  O   UNL     1      -1.097  13.219  23.480  0.00  0.00    +0.000 OA
ENDBRANCH   6  10
ENDBRANCH   1   2
BRANCH   1  17
ATOM     15  C   UNL     1       3.455   5.366  19.197  0.00  0.00    +0.000 A 
ATOM     16  N   UNL     1       2.947   6.524  19.582  0.00  0.00    +0.000 NA
ATOM     17  C   UNL     1       1.866   6.193  20.373  0.00  0.00    +0.000 A 
ATOM     18  C   UNL     1       1.756   4.819  20.414  0.00  0.00    +0.000 A 
ATOM     19  O   UNL     1       2.769   4.278  19.669  0.00  0.00    +0.000 OA
BRANCH  15  24
ATOM     20  C   UNL     1       5.836   4.278  16.442  0.00  0.00    +0.000 A 
ATOM     21  C   UNL     1       7.059   4.527  17.073  0.00  0.00    +0.000 A 
ATOM     22  C   UNL     1       7.098   5.108  18.336  0.00  0.00    +0.000 A 
ATOM     23  C   UNL     1       5.906   5.415  18.987  0.00  0.00    +0.000 A 
ATOM     24  C   UNL     1       4.660   5.143  18.392  0.00  0.00    +0.000 A 
ATOM     25  C   UNL     1       4.638   4.603  17.095  0.00  0.00    +0.000 A 
BRANCH  20  27
ATOM     26  C   UNL     1       6.621   4.435  14.199  0.00  0.00    +0.000 C 
ATOM     27  O   UNL     1       5.961   3.691  15.212  0.00  0.00    +0.000 OA
ENDBRANCH  20  27
ENDBRANCH  15  24
ENDBRANCH   1  17
TORSDOF 5
ENDMDL
MODEL 5
REMARK VINA RESULT:      -7.3      3.708      6.131
REMARK  Name = 
REMARK  6 active torsions:
REMARK  status: ('A' for Active; 'I' for Inactive)
REMARK    1  A    between atoms: C_1  and  O_2
REMARK    2  A    between atoms: O_2  and  C_3
REMARK    3  A    between atoms: C_7  and  C_8
REMARK    4  A    between atoms: C_10  and  C_11
REMARK    5  A    between atoms: C_11  and  N_12
REMARK    6  A    between atoms: C_16  and  C_18
REMARK                            x       y       z     vdW  Elec       q    Type
REMARK                         _______ _______ _______ _____ _____    ______ ____
ROOT
ATOM      1  C   UNL     1       0.986  10.439  18.343  0.00  0.00    +0.000 C 
ENDROOT
BRANCH   1   2
ATOM      2  N   UNL     1       0.225  10.970  19.487  0.00  0.00    +0.000 NA
ATOM      3  C   UNL     1       1.033  11.763  20.439  0.00  0.00    +0.000 C 
ATOM      4  C   UNL     1       1.435  13.188  19.999  0.00  0.00    +0.000 C 
ATOM      5  N   UNL     1       0.346  13.966  19.399  0.00  0.00    +0.000 N 
ATOM      6  C   UNL     1       0.528  15.353  19.342  0.00  0.00    +0.000 C 
ATOM      7  O   UNL     1       1.541  15.875  19.808  0.00  0.00    +0.000 OA
ATOM      8  C   UNL     1      -0.544  13.227  18.504  0.00  0.00    +0.000 C 
ATOM      9  C   UNL     1      -0.906  11.818  19.036  0.00  0.00    +0.000 C 
BRANCH   6  10
ATOM     10  C   UNL     1      -0.564  16.220  18.649  0.00  0.00    +0.000 C 
ATOM     11  C   UNL     1       0.035  17.307  17.757  0.00  0.00    +0.000 C 
ATOM     12  C   UNL     1      -0.907  18.472  17.892  0.00  0.00    +0.000 C 
ATOM     13  C   UNL     1      -1.543  18.264  19.246  0.00  0.00    +0.000 C 
ATOM     14  O   UNL     1      -1.421  16.881  19.588  0.00  0.00    +0.000 OA
ENDBRANCH   6  10
ENDBRANCH   1   2
BRANCH   1  17
ATOM     15  C   UNL     1       2.807   7.375  18.152  0.00  0.00    +0.000 A 
ATOM     16  N   UNL     1       2.374   8.500  17.612  0.00  0.00    +0.000 NA
ATOM     17  C   UNL     1       1.687   9.139  18.624  0.00  0.00    +0.000 A 
ATOM     18  C   UNL     1       1.720   8.341  19.748  0.00  0.00    +0.000 A 
ATOM     19  O   UNL     1       2.438   7.212  19.461  0.00  0.00    +0.000 OA
BRANCH  15  24
ATOM     20  C   UNL     1       5.416   5.629  16.009  0.00  0.00    +0.000 A 
ATOM     21  C   UNL     1       5.025   4.300  16.194  0.00  0.00    +0.000 A 
ATOM     22  C   UNL     1       3.983   3.982  17.059  0.00  0.00    +0.000 A 
ATOM     23  C   UNL     1       3.307   5.004  17.722  0.00  0.00    +0.000 A 
ATOM     24  C   UNL     1       3.655   6.353  17.528  0.00  0.00    +0.000 A 
ATOM     25  C   UNL     1       4.742   6.653  16.690  0.00  0.00    +0.000 A 
BRANCH  20  27
ATOM     26  C   UNL     1       6.744   4.679  14.275  0.00  0.00    +0.000 C 
ATOM     27  O   UNL     1       6.444   5.781  15.118  0.00  0.00    +0.000 OA
ENDBRANCH  20  27
ENDBRANCH  15  24
ENDBRANCH   1  17
TORSDOF 5
ENDMDL
MODEL 6
REMARK VINA RESULT:      -7.3      3.888      4.795
REMARK  Name = 
REMARK  6 active torsions:
REMARK  status: ('A' for Active; 'I' for Inactive)
REMARK    1  A    between atoms: C_1  and  O_2
REMARK    2  A    between atoms: O_2  and  C_3
REMARK    3  A    between atoms: C_7  and  C_8
REMARK    4  A    between atoms: C_10  and  C_11
REMARK    5  A    between atoms: C_11  and  N_12
REMARK    6  A    between atoms: C_16  and  C_18
REMARK                            x       y       z     vdW  Elec       q    Type
REMARK                         _______ _______ _______ _____ _____    ______ ____
ROOT
ATOM      1  C   UNL     1       7.174   4.695  17.360  0.00  0.00    +0.000 C 
ENDROOT
BRANCH   1   2
ATOM      2  N   UNL     1       6.292   5.601  18.117  0.00  0.00    +0.000 NA
ATOM      3  C   UNL     1       5.151   6.130  17.338  0.00  0.00    +0.000 C 
ATOM      4  C   UNL     1       3.980   5.161  17.064  0.00  0.00    +0.000 C 
ATOM      5  N   UNL     1       3.553   4.382  18.232  0.00  0.00    +0.000 N 
ATOM      6  C   UNL     1       2.284   3.794  18.161  0.00  0.00    +0.000 C 
ATOM      7  O   UNL     1       1.567   3.964  17.175  0.00  0.00    +0.000 OA
ATOM      8  C   UNL     1       4.628   3.891  19.095  0.00  0.00    +0.000 C 
ATOM      9  C   UNL     1       5.746   4.936  19.327  0.00  0.00    +0.000 C 
BRANCH   6  10
ATOM     10  C   UNL     1       1.812   2.898  19.343  0.00  0.00    +0.000 C 
ATOM     11  C   UNL     1       1.012   3.681  20.384  0.00  0.00    +0.000 C 
ATOM     12  C   UNL     1       1.380   3.052  21.700  0.00  0.00    +0.000 C 
ATOM     13  C   UNL     1       2.751   2.470  21.448  0.00  0.00    +0.000 C 
ATOM     14  O   UNL     1       2.902   2.282  20.038  0.00  0.00    +0.000 OA
ENDBRANCH   6  10
ENDBRANCH   1   2
BRANCH   1  17
ATOM     15  C   UNL     1       6.496   4.155  13.897  0.00  0.00    +0.000 A 
ATOM     16  N   UNL     1       6.401   3.798  15.165  0.00  0.00    +0.000 NA
ATOM     17  C   UNL     1       7.029   4.806  15.867  0.00  0.00    +0.000 A 
ATOM     18  C   UNL     1       7.504   5.737  14.968  0.00  0.00    +0.000 A 
ATOM     19  O   UNL     1       7.166   5.335  13.704  0.00  0.00    +0.000 OA
BRANCH  15  24
ATOM     20  C   UNL     1       4.152   3.018  11.130  0.00  0.00    +0.000 A 
ATOM     21  C   UNL     1       4.853   1.901  10.668  0.00  0.00    +0.000 A 
ATOM     22  C   UNL     1       6.097   1.577  11.199  0.00  0.00    +0.000 A 
ATOM     23  C   UNL     1       6.631   2.359  12.221  0.00  0.00    +0.000 A 
ATOM     24  C   UNL     1       5.933   3.468  12.730  0.00  0.00    +0.000 A 
ATOM     25  C   UNL     1       4.700   3.811  12.148  0.00  0.00    +0.000 A 
BRANCH  20  27
ATOM     26  C   UNL     1       2.830   4.260   9.587  0.00  0.00    +0.000 C 
ATOM     27  O   UNL     1       2.939   3.197  10.521  0.00  0.00    +0.000 OA
ENDBRANCH  20  27
ENDBRANCH  15  24
ENDBRANCH   1  17
TORSDOF 5
ENDMDL
MODEL 7
REMARK VINA RESULT:      -7.3      1.029      1.120
REMARK  Name = 
REMARK  6 active torsions:
REMARK  status: ('A' for Active; 'I' for Inactive)
REMARK    1  A    between atoms: C_1  and  O_2
REMARK    2  A    between atoms: O_2  and  C_3
REMARK    3  A    between atoms: C_7  and  C_8
REMARK    4  A    between atoms: C_10  and  C_11
REMARK    5  A    between atoms: C_11  and  N_12
REMARK    6  A    between atoms: C_16  and  C_18
REMARK                            x       y       z     vdW  Elec       q    Type
REMARK                         _______ _______ _______ _____ _____    ______ ____
ROOT
ATOM      1  C   UNL     1       4.525   6.270  18.838  0.00  0.00    +0.000 C 
ENDROOT
BRANCH   1   2
ATOM      2  N   UNL     1       3.091   6.006  18.625  0.00  0.00    +0.000 NA
ATOM      3  C   UNL     1       2.264   6.122  19.845  0.00  0.00    +0.000 C 
ATOM      4  C   UNL     1       1.962   7.547  20.355  0.00  0.00    +0.000 C 
ATOM      5  N   UNL     1       1.557   8.492  19.308  0.00  0.00    +0.000 N 
ATOM      6  C   UNL     1       0.907   9.657  19.734  0.00  0.00    +0.000 C 
ATOM      7  O   UNL     1       0.668   9.842  20.928  0.00  0.00    +0.000 OA
ATOM      8  C   UNL     1       2.280   8.383  18.041  0.00  0.00    +0.000 C 
ATOM      9  C   UNL     1       2.521   6.918  17.602  0.00  0.00    +0.000 C 
BRANCH   6  10
ATOM     10  C   UNL     1       0.521  10.726  18.671  0.00  0.00    +0.000 C 
ATOM     11  C   UNL     1       0.514  12.142  19.246  0.00  0.00    +0.000 C 
ATOM     12  C   UNL     1      -0.608  12.839  18.526  0.00  0.00    +0.000 C 
ATOM     13  C   UNL     1      -1.535  11.714  18.131  0.00  0.00    +0.000 C 
ATOM     14  O   UNL     1      -0.778  10.501  18.111  0.00  0.00    +0.000 OA
ENDBRANCH   6  10
ENDBRANCH   1   2
BRANCH   1  17
ATOM     15  C   UNL     1       6.095   4.837  15.970  0.00  0.00    +0.000 A 
ATOM     16  N   UNL     1       5.183   5.617  16.523  0.00  0.00    +0.000 NA
ATOM     17  C   UNL     1       5.430   5.548  17.878  0.00  0.00    +0.000 A 
ATOM     18  C   UNL     1       6.491   4.693  18.088  0.00  0.00    +0.000 A 
ATOM     19  O   UNL     1       6.929   4.235  16.875  0.00  0.00    +0.000 OA
BRANCH  15  24
ATOM     20  C   UNL     1       5.936   3.423  12.445  0.00  0.00    +0.000 A 
ATOM     21  C   UNL     1       7.041   4.067  11.881  0.00  0.00    +0.000 A 
ATOM     22  C   UNL     1       7.769   4.998  12.615  0.00  0.00    +0.000 A 
ATOM     23  C   UNL     1       7.408   5.264  13.934  0.00  0.00    +0.000 A 
ATOM     24  C   UNL     1       6.324   4.605  14.540  0.00  0.00    +0.000 A 
ATOM     25  C   UNL     1       5.568   3.706  13.769  0.00  0.00    +0.000 A 
BRANCH  20  27
ATOM     26  C   UNL     1       6.042   1.332  11.310  0.00  0.00    +0.000 C 
ATOM     27  O   UNL     1       5.334   2.527  11.605  0.00  0.00    +0.000 OA
ENDBRANCH  20  27
ENDBRANCH  15  24
ENDBRANCH   1  17
TORSDOF 5
ENDMDL
MODEL 8
REMARK VINA RESULT:      -7.1      3.642      6.315
REMARK  Name = 
REMARK  6 active torsions:
REMARK  status: ('A' for Active; 'I' for Inactive)
REMARK    1  A    between atoms: C_1  and  O_2
REMARK    2  A    between atoms: O_2  and  C_3
REMARK    3  A    between atoms: C_7  and  C_8
REMARK    4  A    between atoms: C_10  and  C_11
REMARK    5  A    between atoms: C_11  and  N_12
REMARK    6  A    between atoms: C_16  and  C_18
REMARK                            x       y       z     vdW  Elec       q    Type
REMARK                         _______ _______ _______ _____ _____    ______ ____
ROOT
ATOM      1  C   UNL     1       0.788  10.059  20.193  0.00  0.00    +0.000 C 
ENDROOT
BRANCH   1   2
ATOM      2  N   UNL     1       0.662  11.505  19.941  0.00  0.00    +0.000 NA
ATOM      3  C   UNL     1      -0.414  11.864  18.991  0.00  0.00    +0.000 C 
ATOM      4  C   UNL     1      -1.864  11.792  19.515  0.00  0.00    +0.000 C 
ATOM      5  N   UNL     1      -2.060  12.390  20.841  0.00  0.00    +0.000 N 
ATOM      6  C   UNL     1      -3.377  12.706  21.196  0.00  0.00    +0.000 C 
ATOM      7  O   UNL     1      -4.303  12.515  20.408  0.00  0.00    +0.000 OA
ATOM      8  C   UNL     1      -0.994  12.142  21.812  0.00  0.00    +0.000 C 
ATOM      9  C   UNL     1       0.424  12.253  21.200  0.00  0.00    +0.000 C 
BRANCH   6  10
ATOM     10  C   UNL     1      -3.649  13.275  22.619  0.00  0.00    +0.000 C 
ATOM     11  C   UNL     1      -3.491  12.215  23.709  0.00  0.00    +0.000 C 
ATOM     12  C   UNL     1      -4.533  12.568  24.736  0.00  0.00    +0.000 C 
ATOM     13  C   UNL     1      -5.583  13.306  23.942  0.00  0.00    +0.000 C 
ATOM     14  O   UNL     1      -4.969  13.814  22.754  0.00  0.00    +0.000 OA
ENDBRANCH   6  10
ENDBRANCH   1   2
BRANCH   1  17
ATOM     15  C   UNL     1       2.492   7.648  18.186  0.00  0.00    +0.000 A 
ATOM     16  N   UNL     1       1.875   8.000  19.300  0.00  0.00    +0.000 NA
ATOM     17  C   UNL     1       1.472   9.302  19.089  0.00  0.00    +0.000 A 
ATOM     18  C   UNL     1       1.893   9.693  17.835  0.00  0.00    +0.000 A 
ATOM     19  O   UNL     1       2.542   8.643  17.245  0.00  0.00    +0.000 OA
BRANCH  15  24
ATOM     20  C   UNL     1       3.012   3.901  17.825  0.00  0.00    +0.000 A 
ATOM     21  C   UNL     1       4.350   3.884  17.422  0.00  0.00    +0.000 A 
ATOM     22  C   UNL     1       5.038   5.073  17.201  0.00  0.00    +0.000 A 
ATOM     23  C   UNL     1       4.391   6.288  17.413  0.00  0.00    +0.000 A 
ATOM     24  C   UNL     1       3.056   6.336  17.853  0.00  0.00    +0.000 A 
ATOM     25  C   UNL     1       2.360   5.127  18.022  0.00  0.00    +0.000 A 
BRANCH  20  27
ATOM     26  C   UNL     1       3.361   1.626  18.438  0.00  0.00    +0.000 C 
ATOM     27  O   UNL     1       2.479   2.655  18.015  0.00  0.00    +0.000 OA
ENDBRANCH  20  27
ENDBRANCH  15  24
ENDBRANCH   1  17
TORSDOF 5
ENDMDL
MODEL 9
REMARK VINA RESULT:      -7.1      5.876      8.577
REMARK  Name = 
REMARK  6 active torsions:
REMARK  status: ('A' for Active; 'I' for Inactive)
REMARK    1  A    between atoms: C_1  and  O_2
REMARK    2  A    between atoms: O_2  and  C_3
REMARK    3  A    between atoms: C_7  and  C_8
REMARK    4  A    between atoms: C_10  and  C_11
REMARK    5  A    between atoms: C_11  and  N_12
REMARK    6  A    between atoms: C_16  and  C_18
REMARK                            x       y       z     vdW  Elec       q    Type
REMARK                         _______ _______ _______ _____ _____    ______ ____
ROOT
ATOM      1  C   UNL     1       7.830   6.983  18.327  0.00  0.00    +0.000 C 
ENDROOT
BRANCH   1   2
ATOM      2  N   UNL     1       7.101   6.426  17.174  0.00  0.00    +0.000 NA
ATOM      3  C   UNL     1       7.218   4.958  17.033  0.00  0.00    +0.000 C 
ATOM      4  C   UNL     1       6.400   4.092  18.015  0.00  0.00    +0.000 C 
ATOM      5  N   UNL     1       5.012   4.531  18.199  0.00  0.00    +0.000 N 
ATOM      6  C   UNL     1       4.128   3.595  18.748  0.00  0.00    +0.000 C 
ATOM      7  O   UNL     1       4.508   2.457  19.024  0.00  0.00    +0.000 OA
ATOM      8  C   UNL     1       4.809   5.979  18.268  0.00  0.00    +0.000 C 
ATOM      9  C   UNL     1       5.657   6.762  17.236  0.00  0.00    +0.000 C 
BRANCH   6  10
ATOM     10  C   UNL     1       2.661   4.033  19.031  0.00  0.00    +0.000 C 
ATOM     11  C   UNL     1       2.304   3.946  20.515  0.00  0.00    +0.000 C 
ATOM     12  C   UNL     1       0.859   3.531  20.535  0.00  0.00    +0.000 C 
ATOM     13  C   UNL     1       0.677   2.801  19.226  0.00  0.00    +0.000 C 
ATOM     14  O   UNL     1       1.702   3.234  18.328  0.00  0.00    +0.000 OA
ENDBRANCH   6  10
ENDBRANCH   1   2
BRANCH   1  17
ATOM     15  C   UNL     1       9.110  10.293  18.713  0.00  0.00    +0.000 A 
ATOM     16  N   UNL     1       9.102   9.010  19.028  0.00  0.00    +0.000 NA
ATOM     17  C   UNL     1       8.159   8.444  18.195  0.00  0.00    +0.000 A 
ATOM     18  C   UNL     1       7.613   9.439  17.412  0.00  0.00    +0.000 A 
ATOM     19  O   UNL     1       8.215  10.626  17.729  0.00  0.00    +0.000 OA
BRANCH  15  24
ATOM     20  C   UNL     1      10.455  13.227  20.720  0.00  0.00    +0.000 A 
ATOM     21  C   UNL     1      11.634  13.478  20.013  0.00  0.00    +0.000 A 
ATOM     22  C   UNL     1      12.014  12.658  18.956  0.00  0.00    +0.000 A 
ATOM     23  C   UNL     1      11.193  11.596  18.583  0.00  0.00    +0.000 A 
ATOM     24  C   UNL     1       9.983  11.341  19.253  0.00  0.00    +0.000 A 
ATOM     25  C   UNL     1       9.639  12.148  20.351  0.00  0.00    +0.000 A 
BRANCH  20  27
ATOM     26  C   UNL     1      10.527  15.488  21.466  0.00  0.00    +0.000 C 
ATOM     27  O   UNL     1      10.210  14.128  21.721  0.00  0.00    +0.000 OA
ENDBRANCH  20  27
ENDBRANCH  15  24
ENDBRANCH   1  17
TORSDOF 5
ENDMDL
