MODEL 1
REMARK VINA RESULT:      -6.7      0.000      0.000
REMARK  Name = 
REMARK  2 active torsions:
REMARK  status: ('A' for Active; 'I' for Inactive)
REMARK    1  A    between atoms: C_1  and  C_2
REMARK    2  A    between atoms: C_6  and  C_7
REMARK                            x       y       z     vdW  Elec       q    Type
REMARK                         _______ _______ _______ _____ _____    ______ ____
ROOT
ATOM      1  C   UNL     1       5.522   2.666  11.817  0.00  0.00    +0.000 C 
ATOM      2  C   UNL     1       6.311   3.653  12.621  0.00  0.00    +0.000 A 
ATOM      3  C   UNL     1       7.331   4.409  12.049  0.00  0.00    +0.000 A 
ATOM      4  C   UNL     1       8.011   5.310  12.852  0.00  0.00    +0.000 A 
ATOM      5  N   UNL     1       7.747   5.499  14.165  0.00  0.00    +0.000 NA
ATOM      6  C   UNL     1       6.764   4.755  14.729  0.00  0.00    +0.000 A 
ATOM      7  C   UNL     1       6.027   3.836  13.978  0.00  0.00    +0.000 A 
ENDROOT
BRANCH   6   8
ATOM      8  C   UNL     1       6.525   4.981  16.164  0.00  0.00    +0.000 A 
ATOM      9  C   UNL     1       5.408   5.681  16.647  0.00  0.00    +0.000 A 
ATOM     10  C   UNL     1       5.234   5.887  18.015  0.00  0.00    +0.000 A 
ATOM     11  C   UNL     1       6.185   5.381  18.880  0.00  0.00    +0.000 A 
ATOM     12  N   UNL     1       7.269   4.692  18.475  0.00  0.00    +0.000 NA
ATOM     13  C   UNL     1       7.405   4.503  17.134  0.00  0.00    +0.000 A 
ENDBRANCH   6   8
TORSDOF 1
ENDMDL
MODEL 2
REMARK VINA RESULT:      -6.4      0.854      1.039
REMARK  Name = 
REMARK  2 active torsions:
REMARK  status: ('A' for Active; 'I' for Inactive)
REMARK    1  A    between atoms: C_1  and  C_2
REMARK    2  A    between atoms: C_6  and  C_7
REMARK                            x       y       z     vdW  Elec       q    Type
REMARK                         _______ _______ _______ _____ _____    ______ ____
ROOT
ATOM      1  C   UNL     1       5.451   2.675  11.844  0.00  0.00    +0.000 C 
ATOM      2  C   UNL     1       6.265   3.657  12.630  0.00  0.00    +0.000 A 
ATOM      3  C   UNL     1       7.279   4.404  12.038  0.00  0.00    +0.000 A 
ATOM      4  C   UNL     1       7.982   5.300  12.826  0.00  0.00    +0.000 A 
ATOM      5  N   UNL     1       7.747   5.492  14.144  0.00  0.00    +0.000 NA
ATOM      6  C   UNL     1       6.769   4.756  14.728  0.00  0.00    +0.000 A 
ATOM      7  C   UNL     1       6.009   3.843  13.993  0.00  0.00    +0.000 A 
ENDROOT
BRANCH   6   8
ATOM      8  C   UNL     1       6.561   4.985  16.168  0.00  0.00    +0.000 A 
ATOM      9  C   UNL     1       7.275   5.950  16.895  0.00  0.00    +0.000 A 
ATOM     10  C   UNL     1       7.056   6.118  18.262  0.00  0.00    +0.000 A 
ATOM     11  C   UNL     1       6.116   5.314  18.878  0.00  0.00    +0.000 A 
ATOM     12  N   UNL     1       5.393   4.382  18.228  0.00  0.00    +0.000 NA
ATOM     13  C   UNL     1       5.626   4.249  16.895  0.00  0.00    +0.000 A 
ENDBRANCH   6   8
TORSDOF 1
ENDMDL
MODEL 3
REMARK VINA RESULT:      -6.3      3.208      4.487
REMARK  Name = 
REMARK  2 active torsions:
REMARK  status: ('A' for Active; 'I' for Inactive)
REMARK    1  A    between atoms: C_1  and  C_2
REMARK    2  A    between atoms: C_6  and  C_7
REMARK                            x       y       z     vdW  Elec       q    Type
REMARK                         _______ _______ _______ _____ _____    ______ ____
ROOT
ATOM      1  C   UNL     1       6.307   4.087  14.356  0.00  0.00    +0.000 C 
ATOM      2  C   UNL     1       6.151   4.171  15.844  0.00  0.00    +0.000 A 
ATOM      3  C   UNL     1       7.194   4.589  16.664  0.00  0.00    +0.000 A 
ATOM      4  C   UNL     1       6.972   4.652  18.030  0.00  0.00    +0.000 A 
ATOM      5  N   UNL     1       5.800   4.326  18.620  0.00  0.00    +0.000 NA
ATOM      6  C   UNL     1       4.785   3.904  17.826  0.00  0.00    +0.000 A 
ATOM      7  C   UNL     1       4.931   3.828  16.438  0.00  0.00    +0.000 A 
ENDROOT
BRANCH   6   8
ATOM      8  C   UNL     1       3.534   3.542  18.513  0.00  0.00    +0.000 A 
ATOM      9  C   UNL     1       2.342   3.265  17.825  0.00  0.00    +0.000 A 
ATOM     10  C   UNL     1       1.177   2.945  18.520  0.00  0.00    +0.000 A 
ATOM     11  C   UNL     1       1.228   2.903  19.901  0.00  0.00    +0.000 A 
ATOM     12  N   UNL     1       2.345   3.148  20.612  0.00  0.00    +0.000 NA
ATOM     13  C   UNL     1       3.466   3.450  19.903  0.00  0.00    +0.000 A 
ENDBRANCH   6   8
TORSDOF 1
ENDMDL
MODEL 4
REMARK VINA RESULT:      -6.2      2.902      4.424
REMARK  Name = 
REMARK  2 active torsions:
REMARK  status: ('A' for Active; 'I' for Inactive)
REMARK    1  A    between atoms: C_1  and  C_2
REMARK    2  A    between atoms: C_6  and  C_7
REMARK                            x       y       z     vdW  Elec       q    Type
REMARK                         _______ _______ _______ _____ _____    ______ ____
ROOT
ATOM      1  C   UNL     1       5.600   4.388  14.507  0.00  0.00    +0.000 C 
ATOM      2  C   UNL     1       5.906   4.420  15.973  0.00  0.00    +0.000 A 
ATOM      3  C   UNL     1       7.201   4.619  16.443  0.00  0.00    +0.000 A 
ATOM      4  C   UNL     1       7.406   4.647  17.813  0.00  0.00    +0.000 A 
ATOM      5  N   UNL     1       6.423   4.488  18.727  0.00  0.00    +0.000 NA
ATOM      6  C   UNL     1       5.162   4.280  18.273  0.00  0.00    +0.000 A 
ATOM      7  C   UNL     1       4.877   4.253  16.906  0.00  0.00    +0.000 A 
ENDROOT
BRANCH   6   8
ATOM      8  C   UNL     1       4.127   4.094  19.304  0.00  0.00    +0.000 A 
ATOM      9  C   UNL     1       3.884   2.857  19.923  0.00  0.00    +0.000 A 
ATOM     10  C   UNL     1       2.879   2.726  20.880  0.00  0.00    +0.000 A 
ATOM     11  C   UNL     1       2.134   3.843  21.206  0.00  0.00    +0.000 A 
ATOM     12  N   UNL     1       2.331   5.056  20.654  0.00  0.00    +0.000 NA
ATOM     13  C   UNL     1       3.324   5.152  19.729  0.00  0.00    +0.000 A 
ENDBRANCH   6   8
TORSDOF 1
ENDMDL
MODEL 5
REMARK VINA RESULT:      -6.2      3.157      4.357
REMARK  Name = 
REMARK  2 active torsions:
REMARK  status: ('A' for Active; 'I' for Inactive)
REMARK    1  A    between atoms: C_1  and  C_2
REMARK    2  A    between atoms: C_6  and  C_7
REMARK                            x       y       z     vdW  Elec       q    Type
REMARK                         _______ _______ _______ _____ _____    ______ ____
ROOT
ATOM      1  C   UNL     1       6.811   4.685  14.211  0.00  0.00    +0.000 C 
ATOM      2  C   UNL     1       6.485   4.529  15.665  0.00  0.00    +0.000 A 
ATOM      3  C   UNL     1       7.421   4.803  16.657  0.00  0.00    +0.000 A 
ATOM      4  C   UNL     1       7.043   4.646  17.980  0.00  0.00    +0.000 A 
ATOM      5  N   UNL     1       5.816   4.236  18.371  0.00  0.00    +0.000 NA
ATOM      6  C   UNL     1       4.904   3.954  17.407  0.00  0.00    +0.000 A 
ATOM      7  C   UNL     1       5.209   4.102  16.052  0.00  0.00    +0.000 A 
ENDROOT
BRANCH   6   8
ATOM      8  C   UNL     1       3.587   3.493  17.878  0.00  0.00    +0.000 A 
ATOM      9  C   UNL     1       2.440   4.303  17.840  0.00  0.00    +0.000 A 
ATOM     10  C   UNL     1       1.219   3.829  18.315  0.00  0.00    +0.000 A 
ATOM     11  C   UNL     1       1.166   2.543  18.820  0.00  0.00    +0.000 A 
ATOM     12  N   UNL     1       2.230   1.719  18.870  0.00  0.00    +0.000 NA
ATOM     13  C   UNL     1       3.405   2.209  18.392  0.00  0.00    +0.000 A 
ENDBRANCH   6   8
TORSDOF 1
ENDMDL
MODEL 6
REMARK VINA RESULT:      -6.2      3.573      4.815
REMARK  Name = 
REMARK  2 active torsions:
REMARK  status: ('A' for Active; 'I' for Inactive)
REMARK    1  A    between atoms: C_1  and  C_2
REMARK    2  A    between atoms: C_6  and  C_7
REMARK                            x       y       z     vdW  Elec       q    Type
REMARK                         _______ _______ _______ _____ _____    ______ ____
ROOT
ATOM      1  C   UNL     1       6.115   3.916  14.743  0.00  0.00    +0.000 C 
ATOM      2  C   UNL     1       5.340   4.725  15.738  0.00  0.00    +0.000 A 
ATOM      3  C   UNL     1       5.537   6.095  15.876  0.00  0.00    +0.000 A 
ATOM      4  C   UNL     1       4.775   6.778  16.810  0.00  0.00    +0.000 A 
ATOM      5  N   UNL     1       3.851   6.192  17.604  0.00  0.00    +0.000 NA
ATOM      6  C   UNL     1       3.666   4.855  17.483  0.00  0.00    +0.000 A 
ATOM      7  C   UNL     1       4.387   4.102  16.553  0.00  0.00    +0.000 A 
ENDROOT
BRANCH   6   8
ATOM      8  C   UNL     1       2.663   4.257  18.379  0.00  0.00    +0.000 A 
ATOM      9  C   UNL     1       1.942   3.098  18.049  0.00  0.00    +0.000 A 
ATOM     10  C   UNL     1       0.988   2.580  18.924  0.00  0.00    +0.000 A 
ATOM     11  C   UNL     1       0.774   3.233  20.122  0.00  0.00    +0.000 A 
ATOM     12  N   UNL     1       1.443   4.340  20.497  0.00  0.00    +0.000 NA
ATOM     13  C   UNL     1       2.373   4.816  19.624  0.00  0.00    +0.000 A 
ENDBRANCH   6   8
TORSDOF 1
ENDMDL
MODEL 7
REMARK VINA RESULT:      -6.2      3.435      4.715
REMARK  Name = 
REMARK  2 active torsions:
REMARK  status: ('A' for Active; 'I' for Inactive)
REMARK    1  A    between atoms: C_1  and  C_2
REMARK    2  A    between atoms: C_6  and  C_7
REMARK                            x       y       z     vdW  Elec       q    Type
REMARK                         _______ _______ _______ _____ _____    ______ ____
ROOT
ATOM      1  C   UNL     1       5.943   3.986  14.738  0.00  0.00    +0.000 C 
ATOM      2  C   UNL     1       5.219   4.724  15.823  0.00  0.00    +0.000 A 
ATOM      3  C   UNL     1       5.281   6.110  15.927  0.00  0.00    +0.000 A 
ATOM      4  C   UNL     1       4.577   6.724  16.950  0.00  0.00    +0.000 A 
ATOM      5  N   UNL     1       3.834   6.057  17.862  0.00  0.00    +0.000 NA
ATOM      6  C   UNL     1       3.783   4.705  17.772  0.00  0.00    +0.000 A 
ATOM      7  C   UNL     1       4.455   4.018  16.759  0.00  0.00    +0.000 A 
ENDROOT
BRANCH   6   8
ATOM      8  C   UNL     1       2.977   4.019  18.796  0.00  0.00    +0.000 A 
ATOM      9  C   UNL     1       1.573   3.992  18.766  0.00  0.00    +0.000 A 
ATOM     10  C   UNL     1       0.852   3.345  19.769  0.00  0.00    +0.000 A 
ATOM     11  C   UNL     1       1.554   2.729  20.787  0.00  0.00    +0.000 A 
ATOM     12  N   UNL     1       2.899   2.713  20.861  0.00  0.00    +0.000 NA
ATOM     13  C   UNL     1       3.573   3.347  19.863  0.00  0.00    +0.000 A 
ENDBRANCH   6   8
TORSDOF 1
ENDMDL
MODEL 8
REMARK VINA RESULT:      -6.2      3.310      4.674
REMARK  Name = 
REMARK  2 active torsions:
REMARK  status: ('A' for Active; 'I' for Inactive)
REMARK    1  A    between atoms: C_1  and  C_2
REMARK    2  A    between atoms: C_6  and  C_7
REMARK                            x       y       z     vdW  Elec       q    Type
REMARK                         _______ _______ _______ _____ _____    ______ ____
ROOT
ATOM      1  C   UNL     1       6.888   4.610  14.491  0.00  0.00    +0.000 C 
ATOM      2  C   UNL     1       6.512   4.490  15.936  0.00  0.00    +0.000 A 
ATOM      3  C   UNL     1       7.409   4.803  16.952  0.00  0.00    +0.000 A 
ATOM      4  C   UNL     1       6.987   4.677  18.265  0.00  0.00    +0.000 A 
ATOM      5  N   UNL     1       5.751   4.262  18.624  0.00  0.00    +0.000 NA
ATOM      6  C   UNL     1       4.878   3.942  17.637  0.00  0.00    +0.000 A 
ATOM      7  C   UNL     1       5.229   4.057  16.290  0.00  0.00    +0.000 A 
ENDROOT
BRANCH   6   8
ATOM      8  C   UNL     1       3.550   3.477  18.074  0.00  0.00    +0.000 A 
ATOM      9  C   UNL     1       3.374   2.547  19.111  0.00  0.00    +0.000 A 
ATOM     10  C   UNL     1       2.097   2.122  19.476  0.00  0.00    +0.000 A 
ATOM     11  C   UNL     1       1.013   2.645  18.796  0.00  0.00    +0.000 A 
ATOM     12  N   UNL     1       1.122   3.548  17.803  0.00  0.00    +0.000 NA
ATOM     13  C   UNL     1       2.381   3.946  17.476  0.00  0.00    +0.000 A 
ENDBRANCH   6   8
TORSDOF 1
ENDMDL
MODEL 9
REMARK VINA RESULT:      -6.1      3.658      4.981
REMARK  Name = 
REMARK  2 active torsions:
REMARK  status: ('A' for Active; 'I' for Inactive)
REMARK    1  A    between atoms: C_1  and  C_2
REMARK    2  A    between atoms: C_6  and  C_7
REMARK                            x       y       z     vdW  Elec       q    Type
REMARK                         _______ _______ _______ _____ _____    ______ ____
ROOT
ATOM      1  C   UNL     1       5.999   3.915  14.952  0.00  0.00    +0.000 C 
ATOM      2  C   UNL     1       5.211   4.738  15.924  0.00  0.00    +0.000 A 
ATOM      3  C   UNL     1       5.364   6.119  16.003  0.00  0.00    +0.000 A 
ATOM      4  C   UNL     1       4.594   6.814  16.920  0.00  0.00    +0.000 A 
ATOM      5  N   UNL     1       3.701   6.232  17.752  0.00  0.00    +0.000 NA
ATOM      6  C   UNL     1       3.559   4.885  17.689  0.00  0.00    +0.000 A 
ATOM      7  C   UNL     1       4.292   4.119  16.779  0.00  0.00    +0.000 A 
ENDROOT
BRANCH   6   8
ATOM      8  C   UNL     1       2.590   4.293  18.625  0.00  0.00    +0.000 A 
ATOM      9  C   UNL     1       2.467   4.712  19.960  0.00  0.00    +0.000 A 
ATOM     10  C   UNL     1       1.547   4.107  20.814  0.00  0.00    +0.000 A 
ATOM     11  C   UNL     1       0.757   3.090  20.313  0.00  0.00    +0.000 A 
ATOM     12  N   UNL     1       0.822   2.656  19.040  0.00  0.00    +0.000 NA
ATOM     13  C   UNL     1       1.726   3.272  18.230  0.00  0.00    +0.000 A 
ENDBRANCH   6   8
TORSDOF 1
ENDMDL
