MODEL 1
REMARK VINA RESULT:      -8.0      0.000      0.000
REMARK  Name = 
REMARK  7 active torsions:
REMARK  status: ('A' for Active; 'I' for Inactive)
REMARK    1  A    between atoms: C_1  and  N_2
REMARK    2  A    between atoms: N_2  and  C_3
REMARK    3  A    between atoms: N_2  and  C_17
REMARK    4  A    between atoms: C_3  and  C_4
REMARK    5  A    between atoms: N_6  and  C_7
REMARK    6  A    between atoms: C_11  and  C_12
REMARK    7  A    between atoms: C_17  and  C_18
REMARK                            x       y       z     vdW  Elec       q    Type
REMARK                         _______ _______ _______ _____ _____    ______ ____
ROOT
ATOM      1  C   UNL     1       6.143   4.789  18.629  0.00  0.00    +0.000 C 
ATOM      2  O   UNL     1       5.750   5.514  19.547  0.00  0.00    +0.000 OA
ATOM      3  N   UNL     1       5.431   3.732  18.074  0.00  0.00    +0.000 N 
ATOM      4  H   UNL     1       5.943   3.094  17.475  0.00  0.00    +0.000 HD
ENDROOT
BRANCH   3   5
ATOM      5  C   UNL     1       4.094   3.402  18.386  0.00  0.00    +0.000 A 
ATOM      6  C   UNL     1       3.121   3.225  17.401  0.00  0.00    +0.000 A 
ATOM      7  C   UNL     1       1.802   2.922  17.735  0.00  0.00    +0.000 A 
ATOM      8  C   UNL     1       1.435   2.793  19.072  0.00  0.00    +0.000 A 
ATOM      9  C   UNL     1       2.393   2.949  20.085  0.00  0.00    +0.000 A 
ATOM     10  C   UNL     1       3.730   3.231  19.729  0.00  0.00    +0.000 A 
BRANCH   9  11
ATOM     11  C   UNL     1       1.991   2.838  21.534  0.00  0.00    +0.000 C 
ATOM     12  F   UNL     1       2.312   3.936  22.277  0.00  0.00    +0.000 F 
ATOM     13  F   UNL     1       0.651   2.662  21.693  0.00  0.00    +0.000 F 
ATOM     14  F   UNL     1       2.583   1.784  22.160  0.00  0.00    +0.000 F 
ENDBRANCH   9  11
ENDBRANCH   3   5
BRANCH   1  15
ATOM     15  C   UNL     1       7.532   5.015  18.032  0.00  0.00    +0.000 C 
BRANCH  15  17
ATOM     16  C   UNL     1       7.645   7.283  17.283  0.00  0.00    +0.000 C 
ATOM     17  N   UNL     1       7.499   5.888  16.833  0.00  0.00    +0.000 NA
BRANCH  17  18
ATOM     18  C   UNL     1       6.232   5.727  16.073  0.00  0.00    +0.000 C 
BRANCH  18  19
ATOM     19  C   UNL     1       6.444   5.127  14.694  0.00  0.00    +0.000 A 
ATOM     20  C   UNL     1       5.617   4.086  14.242  0.00  0.00    +0.000 A 
ATOM     21  C   UNL     1       5.857   3.471  13.013  0.00  0.00    +0.000 A 
ATOM     22  C   UNL     1       6.919   3.895  12.219  0.00  0.00    +0.000 A 
ATOM     23  C   UNL     1       7.724   4.954  12.637  0.00  0.00    +0.000 A 
ATOM     24  C   UNL     1       7.483   5.574  13.866  0.00  0.00    +0.000 A 
ENDBRANCH  18  19
ENDBRANCH  17  18
ENDBRANCH  15  17
ENDBRANCH   1  15
TORSDOF 6
ENDMDL
MODEL 2
REMARK VINA RESULT:      -7.9      1.255      1.795
REMARK  Name = 
REMARK  7 active torsions:
REMARK  status: ('A' for Active; 'I' for Inactive)
REMARK    1  A    between atoms: C_1  and  N_2
REMARK    2  A    between atoms: N_2  and  C_3
REMARK    3  A    between atoms: N_2  and  C_17
REMARK    4  A    between atoms: C_3  and  C_4
REMARK    5  A    between atoms: N_6  and  C_7
REMARK    6  A    between atoms: C_11  and  C_12
REMARK    7  A    between atoms: C_17  and  C_18
REMARK                            x       y       z     vdW  Elec       q    Type
REMARK                         _______ _______ _______ _____ _____    ______ ____
ROOT
ATOM      1  C   UNL     1       6.397   4.830  18.529  0.00  0.00    +0.000 C 
ATOM      2  O   UNL     1       6.763   4.958  19.700  0.00  0.00    +0.000 OA
ATOM      3  N   UNL     1       5.078   4.720  18.103  0.00  0.00    +0.000 N 
ATOM      4  H   UNL     1       4.924   4.415  17.149  0.00  0.00    +0.000 HD
ENDROOT
BRANCH   3   5
ATOM      5  C   UNL     1       3.943   4.866  18.931  0.00  0.00    +0.000 A 
ATOM      6  C   UNL     1       3.291   6.090  19.093  0.00  0.00    +0.000 A 
ATOM      7  C   UNL     1       2.187   6.215  19.935  0.00  0.00    +0.000 A 
ATOM      8  C   UNL     1       1.717   5.107  20.634  0.00  0.00    +0.000 A 
ATOM      9  C   UNL     1       2.340   3.859  20.481  0.00  0.00    +0.000 A 
ATOM     10  C   UNL     1       3.443   3.743  19.606  0.00  0.00    +0.000 A 
BRANCH   9  11
ATOM     11  C   UNL     1       1.850   2.665  21.260  0.00  0.00    +0.000 C 
ATOM     12  F   UNL     1       2.797   2.115  22.073  0.00  0.00    +0.000 F 
ATOM     13  F   UNL     1       0.797   2.964  22.068  0.00  0.00    +0.000 F 
ATOM     14  F   UNL     1       1.427   1.654  20.452  0.00  0.00    +0.000 F 
ENDBRANCH   9  11
ENDBRANCH   3   5
BRANCH   1  15
ATOM     15  C   UNL     1       7.442   4.757  17.415  0.00  0.00    +0.000 C 
BRANCH  15  17
ATOM     16  C   UNL     1       7.397   7.147  17.375  0.00  0.00    +0.000 C 
ATOM     17  N   UNL     1       7.406   5.944  16.526  0.00  0.00    +0.000 NA
BRANCH  17  18
ATOM     18  C   UNL     1       6.211   5.932  15.644  0.00  0.00    +0.000 C 
BRANCH  18  19
ATOM     19  C   UNL     1       6.404   5.085  14.398  0.00  0.00    +0.000 A 
ATOM     20  C   UNL     1       7.509   5.304  13.559  0.00  0.00    +0.000 A 
ATOM     21  C   UNL     1       7.648   4.590  12.369  0.00  0.00    +0.000 A 
ATOM     22  C   UNL     1       6.694   3.643  12.009  0.00  0.00    +0.000 A 
ATOM     23  C   UNL     1       5.613   3.386  12.852  0.00  0.00    +0.000 A 
ATOM     24  C   UNL     1       5.472   4.098  14.047  0.00  0.00    +0.000 A 
ENDBRANCH  18  19
ENDBRANCH  17  18
ENDBRANCH  15  17
ENDBRANCH   1  15
TORSDOF 6
ENDMDL
MODEL 3
REMARK VINA RESULT:      -7.9      1.385      1.759
REMARK  Name = 
REMARK  7 active torsions:
REMARK  status: ('A' for Active; 'I' for Inactive)
REMARK    1  A    between atoms: C_1  and  N_2
REMARK    2  A    between atoms: N_2  and  C_3
REMARK    3  A    between atoms: N_2  and  C_17
REMARK    4  A    between atoms: C_3  and  C_4
REMARK    5  A    between atoms: N_6  and  C_7
REMARK    6  A    between atoms: C_11  and  C_12
REMARK    7  A    between atoms: C_17  and  C_18
REMARK                            x       y       z     vdW  Elec       q    Type
REMARK                         _______ _______ _______ _____ _____    ______ ____
ROOT
ATOM      1  C   UNL     1       6.418   4.899  18.730  0.00  0.00    +0.000 C 
ATOM      2  O   UNL     1       6.691   5.174  19.901  0.00  0.00    +0.000 OA
ATOM      3  N   UNL     1       5.139   4.688  18.227  0.00  0.00    +0.000 N 
ATOM      4  H   UNL     1       5.068   4.270  17.306  0.00  0.00    +0.000 HD
ENDROOT
BRANCH   3   5
ATOM      5  C   UNL     1       3.942   4.882  18.950  0.00  0.00    +0.000 A 
ATOM      6  C   UNL     1       3.506   6.149  19.344  0.00  0.00    +0.000 A 
ATOM      7  C   UNL     1       2.332   6.313  20.077  0.00  0.00    +0.000 A 
ATOM      8  C   UNL     1       1.572   5.202  20.431  0.00  0.00    +0.000 A 
ATOM      9  C   UNL     1       1.974   3.918  20.036  0.00  0.00    +0.000 A 
ATOM     10  C   UNL     1       3.153   3.769  19.273  0.00  0.00    +0.000 A 
BRANCH   9  11
ATOM     11  C   UNL     1       1.166   2.711  20.444  0.00  0.00    +0.000 C 
ATOM     12  F   UNL     1       1.718   1.525  20.054  0.00  0.00    +0.000 F 
ATOM     13  F   UNL     1       1.007   2.619  21.792  0.00  0.00    +0.000 F 
ATOM     14  F   UNL     1      -0.090   2.723  19.918  0.00  0.00    +0.000 F 
ENDBRANCH   9  11
ENDBRANCH   3   5
BRANCH   1  15
ATOM     15  C   UNL     1       7.546   4.742  17.710  0.00  0.00    +0.000 C 
BRANCH  15  17
ATOM     16  C   UNL     1       7.548   7.079  17.208  0.00  0.00    +0.000 C 
ATOM     17  N   UNL     1       7.460   5.735  16.612  0.00  0.00    +0.000 NA
BRANCH  17  18
ATOM     18  C   UNL     1       6.194   5.598  15.846  0.00  0.00    +0.000 C 
BRANCH  18  19
ATOM     19  C   UNL     1       6.400   4.996  14.467  0.00  0.00    +0.000 A 
ATOM     20  C   UNL     1       5.521   4.013  13.987  0.00  0.00    +0.000 A 
ATOM     21  C   UNL     1       5.752   3.393  12.758  0.00  0.00    +0.000 A 
ATOM     22  C   UNL     1       6.856   3.756  11.992  0.00  0.00    +0.000 A 
ATOM     23  C   UNL     1       7.715   4.759  12.438  0.00  0.00    +0.000 A 
ATOM     24  C   UNL     1       7.485   5.384  13.667  0.00  0.00    +0.000 A 
ENDBRANCH  18  19
ENDBRANCH  17  18
ENDBRANCH  15  17
ENDBRANCH   1  15
TORSDOF 6
ENDMDL
MODEL 4
REMARK VINA RESULT:      -7.8      1.445      2.035
REMARK  Name = 
REMARK  7 active torsions:
REMARK  status: ('A' for Active; 'I' for Inactive)
REMARK    1  A    between atoms: C_1  and  N_2
REMARK    2  A    between atoms: N_2  and  C_3
REMARK    3  A    between atoms: N_2  and  C_17
REMARK    4  A    between atoms: C_3  and  C_4
REMARK    5  A    between atoms: N_6  and  C_7
REMARK    6  A    between atoms: C_11  and  C_12
REMARK    7  A    between atoms: C_17  and  C_18
REMARK                            x       y       z     vdW  Elec       q    Type
REMARK                         _______ _______ _______ _____ _____    ______ ____
ROOT
ATOM      1  C   UNL     1       6.313   4.747  18.365  0.00  0.00    +0.000 C 
ATOM      2  O   UNL     1       6.656   4.804  19.549  0.00  0.00    +0.000 OA
ATOM      3  N   UNL     1       5.001   4.747  17.905  0.00  0.00    +0.000 N 
ATOM      4  H   UNL     1       4.852   4.491  16.936  0.00  0.00    +0.000 HD
ENDROOT
BRANCH   3   5
ATOM      5  C   UNL     1       3.858   4.941  18.711  0.00  0.00    +0.000 A 
ATOM      6  C   UNL     1       3.465   6.206  19.154  0.00  0.00    +0.000 A 
ATOM      7  C   UNL     1       2.346   6.370  19.969  0.00  0.00    +0.000 A 
ATOM      8  C   UNL     1       1.600   5.261  20.357  0.00  0.00    +0.000 A 
ATOM      9  C   UNL     1       1.960   3.979  19.916  0.00  0.00    +0.000 A 
ATOM     10  C   UNL     1       3.081   3.831  19.071  0.00  0.00    +0.000 A 
BRANCH   9  11
ATOM     11  C   UNL     1       1.169   2.774  20.361  0.00  0.00    +0.000 C 
ATOM     12  F   UNL     1      -0.045   2.660  19.749  0.00  0.00    +0.000 F 
ATOM     13  F   UNL     1       1.818   1.603  20.116  0.00  0.00    +0.000 F 
ATOM     14  F   UNL     1       0.909   2.785  21.697  0.00  0.00    +0.000 F 
ENDBRANCH   9  11
ENDBRANCH   3   5
BRANCH   1  15
ATOM     15  C   UNL     1       7.379   4.643  17.275  0.00  0.00    +0.000 C 
BRANCH  15  17
ATOM     16  C   UNL     1       7.467   7.032  17.292  0.00  0.00    +0.000 C 
ATOM     17  N   UNL     1       7.429   5.850  16.414  0.00  0.00    +0.000 NA
BRANCH  17  18
ATOM     18  C   UNL     1       6.256   5.925  15.506  0.00  0.00    +0.000 C 
BRANCH  18  19
ATOM     19  C   UNL     1       6.394   5.030  14.288  0.00  0.00    +0.000 A 
ATOM     20  C   UNL     1       7.466   5.206  13.399  0.00  0.00    +0.000 A 
ATOM     21  C   UNL     1       7.553   4.445  12.232  0.00  0.00    +0.000 A 
ATOM     22  C   UNL     1       6.577   3.494  11.947  0.00  0.00    +0.000 A 
ATOM     23  C   UNL     1       5.528   3.281  12.840  0.00  0.00    +0.000 A 
ATOM     24  C   UNL     1       5.440   4.039  14.011  0.00  0.00    +0.000 A 
ENDBRANCH  18  19
ENDBRANCH  17  18
ENDBRANCH  15  17
ENDBRANCH   1  15
TORSDOF 6
ENDMDL
MODEL 5
REMARK VINA RESULT:      -7.8      4.517      6.416
REMARK  Name = 
REMARK  7 active torsions:
REMARK  status: ('A' for Active; 'I' for Inactive)
REMARK    1  A    between atoms: C_1  and  N_2
REMARK    2  A    between atoms: N_2  and  C_3
REMARK    3  A    between atoms: N_2  and  C_17
REMARK    4  A    between atoms: C_3  and  C_4
REMARK    5  A    between atoms: N_6  and  C_7
REMARK    6  A    between atoms: C_11  and  C_12
REMARK    7  A    between atoms: C_17  and  C_18
REMARK                            x       y       z     vdW  Elec       q    Type
REMARK                         _______ _______ _______ _____ _____    ______ ____
ROOT
ATOM      1  C   UNL     1       3.015   6.289  18.023  0.00  0.00    +0.000 C 
ATOM      2  O   UNL     1       1.965   5.700  17.752  0.00  0.00    +0.000 OA
ATOM      3  N   UNL     1       3.112   7.595  18.487  0.00  0.00    +0.000 N 
ATOM      4  H   UNL     1       4.030   8.023  18.474  0.00  0.00    +0.000 HD
ENDROOT
BRANCH   3   5
ATOM      5  C   UNL     1       2.017   8.412  18.845  0.00  0.00    +0.000 A 
ATOM      6  C   UNL     1       1.354   9.218  17.916  0.00  0.00    +0.000 A 
ATOM      7  C   UNL     1       0.290  10.034  18.298  0.00  0.00    +0.000 A 
ATOM      8  C   UNL     1      -0.128  10.056  19.625  0.00  0.00    +0.000 A 
ATOM      9  C   UNL     1       0.506   9.246  20.578  0.00  0.00    +0.000 A 
ATOM     10  C   UNL     1       1.567   8.407  20.172  0.00  0.00    +0.000 A 
BRANCH   9  11
ATOM     11  C   UNL     1       0.073   9.292  22.022  0.00  0.00    +0.000 C 
ATOM     12  F   UNL     1      -0.445  10.496  22.401  0.00  0.00    +0.000 F 
ATOM     13  F   UNL     1      -0.885   8.370  22.310  0.00  0.00    +0.000 F 
ATOM     14  F   UNL     1       1.100   9.046  22.882  0.00  0.00    +0.000 F 
ENDBRANCH   9  11
ENDBRANCH   3   5
BRANCH   1  15
ATOM     15  C   UNL     1       4.352   5.573  17.827  0.00  0.00    +0.000 C 
BRANCH  15  17
ATOM     16  C   UNL     1       6.374   5.432  19.094  0.00  0.00    +0.000 C 
ATOM     17  N   UNL     1       4.938   5.106  19.106  0.00  0.00    +0.000 NA
BRANCH  17  18
ATOM     18  C   UNL     1       4.748   3.645  19.295  0.00  0.00    +0.000 C 
BRANCH  18  19
ATOM     19  C   UNL     1       3.297   3.264  19.535  0.00  0.00    +0.000 A 
ATOM     20  C   UNL     1       2.620   2.446  18.618  0.00  0.00    +0.000 A 
ATOM     21  C   UNL     1       1.264   2.162  18.786  0.00  0.00    +0.000 A 
ATOM     22  C   UNL     1       0.574   2.683  19.876  0.00  0.00    +0.000 A 
ATOM     23  C   UNL     1       1.243   3.465  20.817  0.00  0.00    +0.000 A 
ATOM     24  C   UNL     1       2.602   3.748  20.653  0.00  0.00    +0.000 A 
ENDBRANCH  18  19
ENDBRANCH  17  18
ENDBRANCH  15  17
ENDBRANCH   1  15
TORSDOF 6
ENDMDL
MODEL 6
REMARK VINA RESULT:      -7.7      1.147      1.514
REMARK  Name = 
REMARK  7 active torsions:
REMARK  status: ('A' for Active; 'I' for Inactive)
REMARK    1  A    between atoms: C_1  and  N_2
REMARK    2  A    between atoms: N_2  and  C_3
REMARK    3  A    between atoms: N_2  and  C_17
REMARK    4  A    between atoms: C_3  and  C_4
REMARK    5  A    between atoms: N_6  and  C_7
REMARK    6  A    between atoms: C_11  and  C_12
REMARK    7  A    between atoms: C_17  and  C_18
REMARK                            x       y       z     vdW  Elec       q    Type
REMARK                         _______ _______ _______ _____ _____    ______ ____
ROOT
ATOM      1  C   UNL     1       6.365   4.323  18.167  0.00  0.00    +0.000 C 
ATOM      2  O   UNL     1       6.320   4.730  19.331  0.00  0.00    +0.000 OA
ATOM      3  N   UNL     1       5.383   3.568  17.537  0.00  0.00    +0.000 N 
ATOM      4  H   UNL     1       5.631   3.127  16.659  0.00  0.00    +0.000 HD
ENDROOT
BRANCH   3   5
ATOM      5  C   UNL     1       4.120   3.257  18.089  0.00  0.00    +0.000 A 
ATOM      6  C   UNL     1       3.420   2.099  17.743  0.00  0.00    +0.000 A 
ATOM      7  C   UNL     1       2.165   1.826  18.283  0.00  0.00    +0.000 A 
ATOM      8  C   UNL     1       1.587   2.715  19.185  0.00  0.00    +0.000 A 
ATOM      9  C   UNL     1       2.272   3.879  19.565  0.00  0.00    +0.000 A 
ATOM     10  C   UNL     1       3.553   4.130  19.028  0.00  0.00    +0.000 A 
BRANCH   9  11
ATOM     11  C   UNL     1       1.634   4.857  20.520  0.00  0.00    +0.000 C 
ATOM     12  F   UNL     1       0.289   4.682  20.665  0.00  0.00    +0.000 F 
ATOM     13  F   UNL     1       2.155   4.781  21.774  0.00  0.00    +0.000 F 
ATOM     14  F   UNL     1       1.796   6.150  20.125  0.00  0.00    +0.000 F 
ENDBRANCH   9  11
ENDBRANCH   3   5
BRANCH   1  15
ATOM     15  C   UNL     1       7.594   4.626  17.310  0.00  0.00    +0.000 C 
BRANCH  15  17
ATOM     16  C   UNL     1       7.389   7.008  17.348  0.00  0.00    +0.000 C 
ATOM     17  N   UNL     1       7.411   5.831  16.463  0.00  0.00    +0.000 NA
BRANCH  17  18
ATOM     18  C   UNL     1       6.154   5.760  15.675  0.00  0.00    +0.000 C 
BRANCH  18  19
ATOM     19  C   UNL     1       6.330   5.049  14.345  0.00  0.00    +0.000 A 
ATOM     20  C   UNL     1       5.405   4.075  13.936  0.00  0.00    +0.000 A 
ATOM     21  C   UNL     1       5.605   3.356  12.758  0.00  0.00    +0.000 A 
ATOM     22  C   UNL     1       6.726   3.607  11.971  0.00  0.00    +0.000 A 
ATOM     23  C   UNL     1       7.633   4.598  12.344  0.00  0.00    +0.000 A 
ATOM     24  C   UNL     1       7.433   5.323  13.522  0.00  0.00    +0.000 A 
ENDBRANCH  18  19
ENDBRANCH  17  18
ENDBRANCH  15  17
ENDBRANCH   1  15
TORSDOF 6
ENDMDL
MODEL 7
REMARK VINA RESULT:      -7.7      4.105      6.959
REMARK  Name = 
REMARK  7 active torsions:
REMARK  status: ('A' for Active; 'I' for Inactive)
REMARK    1  A    between atoms: C_1  and  N_2
REMARK    2  A    between atoms: N_2  and  C_3
REMARK    3  A    between atoms: N_2  and  C_17
REMARK    4  A    between atoms: C_3  and  C_4
REMARK    5  A    between atoms: N_6  and  C_7
REMARK    6  A    between atoms: C_11  and  C_12
REMARK    7  A    between atoms: C_17  and  C_18
REMARK                            x       y       z     vdW  Elec       q    Type
REMARK                         _______ _______ _______ _____ _____    ______ ____
ROOT
ATOM      1  C   UNL     1       4.094   2.785  18.917  0.00  0.00    +0.000 C 
ATOM      2  O   UNL     1       3.885   2.423  17.756  0.00  0.00    +0.000 OA
ATOM      3  N   UNL     1       5.051   3.712  19.314  0.00  0.00    +0.000 N 
ATOM      4  H   UNL     1       5.258   3.766  20.305  0.00  0.00    +0.000 HD
ENDROOT
BRANCH   3   5
ATOM      5  C   UNL     1       5.849   4.480  18.438  0.00  0.00    +0.000 A 
ATOM      6  C   UNL     1       6.678   5.507  18.893  0.00  0.00    +0.000 A 
ATOM      7  C   UNL     1       7.439   6.267  18.006  0.00  0.00    +0.000 A 
ATOM      8  C   UNL     1       7.378   6.009  16.639  0.00  0.00    +0.000 A 
ATOM      9  C   UNL     1       6.566   4.974  16.152  0.00  0.00    +0.000 A 
ATOM     10  C   UNL     1       5.820   4.197  17.065  0.00  0.00    +0.000 A 
BRANCH   9  11
ATOM     11  C   UNL     1       6.477   4.713  14.669  0.00  0.00    +0.000 C 
ATOM     12  F   UNL     1       6.505   3.388  14.344  0.00  0.00    +0.000 F 
ATOM     13  F   UNL     1       5.334   5.205  14.119  0.00  0.00    +0.000 F 
ATOM     14  F   UNL     1       7.501   5.284  13.978  0.00  0.00    +0.000 F 
ENDBRANCH   9  11
ENDBRANCH   3   5
BRANCH   1  15
ATOM     15  C   UNL     1       3.274   2.177  20.055  0.00  0.00    +0.000 C 
BRANCH  15  17
ATOM     16  C   UNL     1       1.694   2.495  21.820  0.00  0.00    +0.000 C 
ATOM     17  N   UNL     1       2.427   3.181  20.744  0.00  0.00    +0.000 NA
BRANCH  17  18
ATOM     18  C   UNL     1       1.473   3.828  19.807  0.00  0.00    +0.000 C 
BRANCH  18  19
ATOM     19  C   UNL     1       1.815   5.281  19.525  0.00  0.00    +0.000 A 
ATOM     20  C   UNL     1       1.659   6.251  20.528  0.00  0.00    +0.000 A 
ATOM     21  C   UNL     1       1.888   7.599  20.254  0.00  0.00    +0.000 A 
ATOM     22  C   UNL     1       2.285   7.992  18.978  0.00  0.00    +0.000 A 
ATOM     23  C   UNL     1       2.482   7.036  17.983  0.00  0.00    +0.000 A 
ATOM     24  C   UNL     1       2.256   5.684  18.257  0.00  0.00    +0.000 A 
ENDBRANCH  18  19
ENDBRANCH  17  18
ENDBRANCH  15  17
ENDBRANCH   1  15
TORSDOF 6
ENDMDL
MODEL 8
REMARK VINA RESULT:      -7.7      6.189      7.904
REMARK  Name = 
REMARK  7 active torsions:
REMARK  status: ('A' for Active; 'I' for Inactive)
REMARK    1  A    between atoms: C_1  and  N_2
REMARK    2  A    between atoms: N_2  and  C_3
REMARK    3  A    between atoms: N_2  and  C_17
REMARK    4  A    between atoms: C_3  and  C_4
REMARK    5  A    between atoms: N_6  and  C_7
REMARK    6  A    between atoms: C_11  and  C_12
REMARK    7  A    between atoms: C_17  and  C_18
REMARK                            x       y       z     vdW  Elec       q    Type
REMARK                         _______ _______ _______ _____ _____    ______ ____
ROOT
ATOM      1  C   UNL     1       2.347   8.158  18.425  0.00  0.00    +0.000 C 
ATOM      2  O   UNL     1       2.098   7.824  19.586  0.00  0.00    +0.000 OA
ATOM      3  N   UNL     1       1.619   9.074  17.675  0.00  0.00    +0.000 N 
ATOM      4  H   UNL     1       1.802   9.104  16.678  0.00  0.00    +0.000 HD
ENDROOT
BRANCH   3   5
ATOM      5  C   UNL     1       0.556   9.863  18.167  0.00  0.00    +0.000 A 
ATOM      6  C   UNL     1       0.744  10.839  19.148  0.00  0.00    +0.000 A 
ATOM      7  C   UNL     1      -0.325  11.588  19.635  0.00  0.00    +0.000 A 
ATOM      8  C   UNL     1      -1.609  11.369  19.144  0.00  0.00    +0.000 A 
ATOM      9  C   UNL     1      -1.829  10.408  18.147  0.00  0.00    +0.000 A 
ATOM     10  C   UNL     1      -0.732   9.673  17.646  0.00  0.00    +0.000 A 
BRANCH   9  11
ATOM     11  C   UNL     1      -3.224  10.150  17.635  0.00  0.00    +0.000 C 
ATOM     12  F   UNL     1      -3.323  10.184  16.275  0.00  0.00    +0.000 F 
ATOM     13  F   UNL     1      -3.702   8.932  18.011  0.00  0.00    +0.000 F 
ATOM     14  F   UNL     1      -4.124  11.063  18.093  0.00  0.00    +0.000 F 
ENDBRANCH   9  11
ENDBRANCH   3   5
BRANCH   1  15
ATOM     15  C   UNL     1       3.531   7.523  17.695  0.00  0.00    +0.000 C 
BRANCH  15  17
ATOM     16  C   UNL     1       5.327   5.962  17.920  0.00  0.00    +0.000 C 
ATOM     17  N   UNL     1       3.922   6.216  18.279  0.00  0.00    +0.000 NA
BRANCH  17  18
ATOM     18  C   UNL     1       3.060   5.114  17.780  0.00  0.00    +0.000 C 
BRANCH  18  19
ATOM     19  C   UNL     1       2.360   4.360  18.898  0.00  0.00    +0.000 A 
ATOM     20  C   UNL     1       2.742   4.562  20.234  0.00  0.00    +0.000 A 
ATOM     21  C   UNL     1       2.164   3.812  21.258  0.00  0.00    +0.000 A 
ATOM     22  C   UNL     1       1.192   2.861  20.961  0.00  0.00    +0.000 A 
ATOM     23  C   UNL     1       0.774   2.678  19.644  0.00  0.00    +0.000 A 
ATOM     24  C   UNL     1       1.349   3.430  18.616  0.00  0.00    +0.000 A 
ENDBRANCH  18  19
ENDBRANCH  17  18
ENDBRANCH  15  17
ENDBRANCH   1  15
TORSDOF 6
ENDMDL
MODEL 9
REMARK VINA RESULT:      -7.7      4.208      7.378
REMARK  Name = 
REMARK  7 active torsions:
REMARK  status: ('A' for Active; 'I' for Inactive)
REMARK    1  A    between atoms: C_1  and  N_2
REMARK    2  A    between atoms: N_2  and  C_3
REMARK    3  A    between atoms: N_2  and  C_17
REMARK    4  A    between atoms: C_3  and  C_4
REMARK    5  A    between atoms: N_6  and  C_7
REMARK    6  A    between atoms: C_11  and  C_12
REMARK    7  A    between atoms: C_17  and  C_18
REMARK                            x       y       z     vdW  Elec       q    Type
REMARK                         _______ _______ _______ _____ _____    ______ ____
ROOT
ATOM      1  C   UNL     1       5.750   6.205  16.326  0.00  0.00    +0.000 C 
ATOM      2  O   UNL     1       5.063   6.979  15.654  0.00  0.00    +0.000 OA
ATOM      3  N   UNL     1       6.476   5.130  15.827  0.00  0.00    +0.000 N 
ATOM      4  H   UNL     1       6.827   4.457  16.499  0.00  0.00    +0.000 HD
ENDROOT
BRANCH   3   5
ATOM      5  C   UNL     1       6.645   4.830  14.457  0.00  0.00    +0.000 A 
ATOM      6  C   UNL     1       7.782   5.216  13.744  0.00  0.00    +0.000 A 
ATOM      7  C   UNL     1       7.915   4.930  12.387  0.00  0.00    +0.000 A 
ATOM      8  C   UNL     1       6.902   4.249  11.717  0.00  0.00    +0.000 A 
ATOM      9  C   UNL     1       5.755   3.833  12.408  0.00  0.00    +0.000 A 
ATOM     10  C   UNL     1       5.645   4.109  13.789  0.00  0.00    +0.000 A 
BRANCH   9  11
ATOM     11  C   UNL     1       4.644   3.121  11.677  0.00  0.00    +0.000 C 
ATOM     12  F   UNL     1       3.526   2.928  12.435  0.00  0.00    +0.000 F 
ATOM     13  F   UNL     1       4.229   3.796  10.570  0.00  0.00    +0.000 F 
ATOM     14  F   UNL     1       5.015   1.885  11.245  0.00  0.00    +0.000 F 
ENDBRANCH   9  11
ENDBRANCH   3   5
BRANCH   1  15
ATOM     15  C   UNL     1       5.825   6.386  17.842  0.00  0.00    +0.000 C 
BRANCH  15  17
ATOM     16  C   UNL     1       5.533   4.224  18.818  0.00  0.00    +0.000 C 
ATOM     17  N   UNL     1       4.868   5.513  18.565  0.00  0.00    +0.000 NA
BRANCH  17  18
ATOM     18  C   UNL     1       3.622   5.301  17.784  0.00  0.00    +0.000 C 
BRANCH  18  19
ATOM     19  C   UNL     1       2.586   4.484  18.536  0.00  0.00    +0.000 A 
ATOM     20  C   UNL     1       2.055   3.317  17.963  0.00  0.00    +0.000 A 
ATOM     21  C   UNL     1       1.041   2.608  18.608  0.00  0.00    +0.000 A 
ATOM     22  C   UNL     1       0.555   3.050  19.836  0.00  0.00    +0.000 A 
ATOM     23  C   UNL     1       1.101   4.184  20.435  0.00  0.00    +0.000 A 
ATOM     24  C   UNL     1       2.119   4.894  19.793  0.00  0.00    +0.000 A 
ENDBRANCH  18  19
ENDBRANCH  17  18
ENDBRANCH  15  17
ENDBRANCH   1  15
TORSDOF 6
ENDMDL
