MODEL 1
REMARK VINA RESULT:      -8.8      0.000      0.000
REMARK  Name = 
REMARK  5 active torsions:
REMARK  status: ('A' for Active; 'I' for Inactive)
REMARK    1  A    between atoms: C_1  and  N_2
REMARK    2  A    between atoms: C_6  and  C_7
REMARK    3  A    between atoms: C_7  and  N_8
REMARK    4  A    between atoms: C_10  and  C_11
REMARK    5  A    between atoms: C_11  and  C_12
REMARK                            x       y       z     vdW  Elec       q    Type
REMARK                         _______ _______ _______ _____ _____    ______ ____
ROOT
ATOM      1  N   UNL     1       5.242   5.169  18.892  0.00  0.00    +0.000 N 
ATOM      2  N   UNL     1       4.397   6.159  18.427  0.00  0.00    +0.000 NA
ATOM      3  C   UNL     1       3.132   5.900  18.264  0.00  0.00    +0.000 A 
ATOM      4  C   UNL     1       2.549   4.559  18.501  0.00  0.00    +0.000 A 
ATOM      5  C   UNL     1       1.213   4.236  18.230  0.00  0.00    +0.000 A 
ATOM      6  C   UNL     1       0.737   2.943  18.473  0.00  0.00    +0.000 A 
ATOM      7  C   UNL     1       1.589   1.970  18.991  0.00  0.00    +0.000 A 
ATOM      8  C   UNL     1       2.915   2.291  19.276  0.00  0.00    +0.000 A 
ATOM      9  C   UNL     1       3.392   3.586  19.026  0.00  0.00    +0.000 A 
ATOM     10  C   UNL     1       4.797   3.920  19.320  0.00  0.00    +0.000 A 
ATOM     11  O   UNL     1       5.502   3.095  19.905  0.00  0.00    +0.000 OA
ENDROOT
BRANCH   1  12
ATOM     12  C   UNL     1       6.631   5.575  19.148  0.00  0.00    +0.000 C 
BRANCH  12  18
ATOM     13  C   UNL     1       7.746   7.956  17.580  0.00  0.00    +0.000 C 
ATOM     14  N   UNL     1       7.552   6.651  16.982  0.00  0.00    +0.000 NA
ATOM     15  C   UNL     1       6.331   6.540  16.194  0.00  0.00    +0.000 C 
ATOM     16  C   UNL     1       6.297   5.057  15.865  0.00  0.00    +0.000 C 
ATOM     17  C   UNL     1       7.154   4.381  16.936  0.00  0.00    +0.000 C 
ATOM     18  C   UNL     1       7.563   5.497  17.904  0.00  0.00    +0.000 C 
ENDBRANCH  12  18
ENDBRANCH   1  12
BRANCH   3  19
ATOM     19  C   UNL     1       2.221   7.064  17.881  0.00  0.00    +0.000 C 
BRANCH  19  20
ATOM     20  C   UNL     1       1.846   8.006  19.002  0.00  0.00    +0.000 A 
ATOM     21  C   UNL     1       1.797   7.558  20.332  0.00  0.00    +0.000 A 
ATOM     22  C   UNL     1       1.297   8.385  21.347  0.00  0.00    +0.000 A 
ATOM     23  C   UNL     1       0.851   9.665  21.039  0.00  0.00    +0.000 A 
ATOM     24  F   UNL     1       0.336  10.438  22.006  0.00  0.00    +0.000 F 
ATOM     25  C   UNL     1       0.917  10.130  19.733  0.00  0.00    +0.000 A 
ATOM     26  F   UNL     1       0.483  11.361  19.429  0.00  0.00    +0.000 F 
ATOM     27  C   UNL     1       1.409   9.311  18.717  0.00  0.00    +0.000 A 
ENDBRANCH  19  20
ENDBRANCH   3  19
TORSDOF 4
ENDMDL
MODEL 2
REMARK VINA RESULT:      -8.7      3.421      6.638
REMARK  Name = 
REMARK  5 active torsions:
REMARK  status: ('A' for Active; 'I' for Inactive)
REMARK    1  A    between atoms: C_1  and  N_2
REMARK    2  A    between atoms: C_6  and  C_7
REMARK    3  A    between atoms: C_7  and  N_8
REMARK    4  A    between atoms: C_10  and  C_11
REMARK    5  A    between atoms: C_11  and  C_12
REMARK                            x       y       z     vdW  Elec       q    Type
REMARK                         _______ _______ _______ _____ _____    ______ ____
ROOT
ATOM      1  N   UNL     1       2.099   6.322  19.902  0.00  0.00    +0.000 N 
ATOM      2  N   UNL     1       2.828   6.368  18.728  0.00  0.00    +0.000 NA
ATOM      3  C   UNL     1       2.908   7.486  18.064  0.00  0.00    +0.000 A 
ATOM      4  C   UNL     1       2.202   8.719  18.480  0.00  0.00    +0.000 A 
ATOM      5  C   UNL     1       2.193   9.899  17.723  0.00  0.00    +0.000 A 
ATOM      6  C   UNL     1       1.494  11.022  18.178  0.00  0.00    +0.000 A 
ATOM      7  C   UNL     1       0.808  10.976  19.389  0.00  0.00    +0.000 A 
ATOM      8  C   UNL     1       0.827   9.810  20.153  0.00  0.00    +0.000 A 
ATOM      9  C   UNL     1       1.523   8.682  19.692  0.00  0.00    +0.000 A 
ATOM     10  C   UNL     1       1.533   7.448  20.496  0.00  0.00    +0.000 A 
ATOM     11  O   UNL     1       1.041   7.461  21.627  0.00  0.00    +0.000 OA
ENDROOT
BRANCH   1  12
ATOM     12  C   UNL     1       2.147   5.053  20.640  0.00  0.00    +0.000 C 
BRANCH  12  18
ATOM     13  C   UNL     1       1.728   2.269  21.842  0.00  0.00    +0.000 C 
ATOM     14  N   UNL     1       1.512   2.553  20.438  0.00  0.00    +0.000 NA
ATOM     15  C   UNL     1       2.620   2.155  19.580  0.00  0.00    +0.000 C 
ATOM     16  C   UNL     1       2.208   2.734  18.236  0.00  0.00    +0.000 C 
ATOM     17  C   UNL     1       1.227   3.861  18.562  0.00  0.00    +0.000 C 
ATOM     18  C   UNL     1       1.193   3.953  20.091  0.00  0.00    +0.000 C 
ENDBRANCH  12  18
ENDBRANCH   1  12
BRANCH   3  19
ATOM     19  C   UNL     1       3.836   7.516  16.852  0.00  0.00    +0.000 C 
BRANCH  19  20
ATOM     20  C   UNL     1       5.072   6.650  16.943  0.00  0.00    +0.000 A 
ATOM     21  C   UNL     1       5.073   5.343  16.429  0.00  0.00    +0.000 A 
ATOM     22  C   UNL     1       6.159   4.488  16.655  0.00  0.00    +0.000 A 
ATOM     23  C   UNL     1       7.253   4.936  17.386  0.00  0.00    +0.000 A 
ATOM     24  F   UNL     1       8.273   4.102  17.633  0.00  0.00    +0.000 F 
ATOM     25  C   UNL     1       7.276   6.234  17.878  0.00  0.00    +0.000 A 
ATOM     26  F   UNL     1       8.324   6.670  18.589  0.00  0.00    +0.000 F 
ATOM     27  C   UNL     1       6.196   7.090  17.662  0.00  0.00    +0.000 A 
ENDBRANCH  19  20
ENDBRANCH   3  19
TORSDOF 4
ENDMDL
MODEL 3
REMARK VINA RESULT:      -8.6      3.350      5.708
REMARK  Name = 
REMARK  5 active torsions:
REMARK  status: ('A' for Active; 'I' for Inactive)
REMARK    1  A    between atoms: C_1  and  N_2
REMARK    2  A    between atoms: C_6  and  C_7
REMARK    3  A    between atoms: C_7  and  N_8
REMARK    4  A    between atoms: C_10  and  C_11
REMARK    5  A    between atoms: C_11  and  C_12
REMARK                            x       y       z     vdW  Elec       q    Type
REMARK                         _______ _______ _______ _____ _____    ______ ____
ROOT
ATOM      1  N   UNL     1       3.034   7.688  18.281  0.00  0.00    +0.000 N 
ATOM      2  N   UNL     1       2.769   6.722  19.234  0.00  0.00    +0.000 NA
ATOM      3  C   UNL     1       1.885   6.958  20.160  0.00  0.00    +0.000 A 
ATOM      4  C   UNL     1       1.176   8.253  20.283  0.00  0.00    +0.000 A 
ATOM      5  C   UNL     1       0.301   8.560  21.333  0.00  0.00    +0.000 A 
ATOM      6  C   UNL     1      -0.326   9.810  21.385  0.00  0.00    +0.000 A 
ATOM      7  C   UNL     1      -0.088  10.754  20.389  0.00  0.00    +0.000 A 
ATOM      8  C   UNL     1       0.770  10.447  19.334  0.00  0.00    +0.000 A 
ATOM      9  C   UNL     1       1.402   9.196  19.287  0.00  0.00    +0.000 A 
ATOM     10  C   UNL     1       2.317   8.877  18.176  0.00  0.00    +0.000 A 
ATOM     11  O   UNL     1       2.412   9.664  17.230  0.00  0.00    +0.000 OA
ENDROOT
BRANCH   1  12
ATOM     12  C   UNL     1       3.967   7.301  17.213  0.00  0.00    +0.000 C 
BRANCH  12  18
ATOM     13  C   UNL     1       7.025   7.295  17.315  0.00  0.00    +0.000 C 
ATOM     14  N   UNL     1       6.252   6.100  17.042  0.00  0.00    +0.000 NA
ATOM     15  C   UNL     1       6.171   5.763  15.626  0.00  0.00    +0.000 C 
ATOM     16  C   UNL     1       5.171   4.619  15.627  0.00  0.00    +0.000 C 
ATOM     17  C   UNL     1       4.365   4.782  16.917  0.00  0.00    +0.000 C 
ATOM     18  C   UNL     1       4.868   6.081  17.558  0.00  0.00    +0.000 C 
ENDBRANCH  12  18
ENDBRANCH   1  12
BRANCH   3  19
ATOM     19  C   UNL     1       1.531   5.809  21.101  0.00  0.00    +0.000 C 
BRANCH  19  20
ATOM     20  C   UNL     1       1.834   4.419  20.591  0.00  0.00    +0.000 A 
ATOM     21  C   UNL     1       3.109   3.853  20.759  0.00  0.00    +0.000 A 
ATOM     22  C   UNL     1       3.437   2.636  20.149  0.00  0.00    +0.000 A 
ATOM     23  C   UNL     1       2.492   1.974  19.373  0.00  0.00    +0.000 A 
ATOM     24  F   UNL     1       2.823   0.829  18.759  0.00  0.00    +0.000 F 
ATOM     25  C   UNL     1       1.220   2.509  19.219  0.00  0.00    +0.000 A 
ATOM     26  F   UNL     1       0.307   1.879  18.468  0.00  0.00    +0.000 F 
ATOM     27  C   UNL     1       0.888   3.723  19.819  0.00  0.00    +0.000 A 
ENDBRANCH  19  20
ENDBRANCH   3  19
TORSDOF 4
ENDMDL
MODEL 4
REMARK VINA RESULT:      -8.3      4.269      7.667
REMARK  Name = 
REMARK  5 active torsions:
REMARK  status: ('A' for Active; 'I' for Inactive)
REMARK    1  A    between atoms: C_1  and  N_2
REMARK    2  A    between atoms: C_6  and  C_7
REMARK    3  A    between atoms: C_7  and  N_8
REMARK    4  A    between atoms: C_10  and  C_11
REMARK    5  A    between atoms: C_11  and  C_12
REMARK                            x       y       z     vdW  Elec       q    Type
REMARK                         _______ _______ _______ _____ _____    ______ ____
ROOT
ATOM      1  N   UNL     1       4.199   3.880  18.031  0.00  0.00    +0.000 N 
ATOM      2  N   UNL     1       4.192   4.444  16.769  0.00  0.00    +0.000 NA
ATOM      3  C   UNL     1       5.122   5.293  16.439  0.00  0.00    +0.000 A 
ATOM      4  C   UNL     1       6.176   5.737  17.380  0.00  0.00    +0.000 A 
ATOM      5  C   UNL     1       7.120   6.726  17.075  0.00  0.00    +0.000 A 
ATOM      6  C   UNL     1       8.081   7.098  18.021  0.00  0.00    +0.000 A 
ATOM      7  C   UNL     1       8.108   6.484  19.270  0.00  0.00    +0.000 A 
ATOM      8  C   UNL     1       7.180   5.488  19.573  0.00  0.00    +0.000 A 
ATOM      9  C   UNL     1       6.213   5.120  18.625  0.00  0.00    +0.000 A 
ATOM     10  C   UNL     1       5.227   4.075  18.951  0.00  0.00    +0.000 A 
ATOM     11  O   UNL     1       5.346   3.442  20.003  0.00  0.00    +0.000 OA
ENDROOT
BRANCH   1  12
ATOM     12  C   UNL     1       3.177   2.855  18.285  0.00  0.00    +0.000 C 
BRANCH  12  18
ATOM     13  C   UNL     1       2.500   5.699  19.192  0.00  0.00    +0.000 C 
ATOM     14  N   UNL     1       1.633   4.568  19.459  0.00  0.00    +0.000 NA
ATOM     15  C   UNL     1       1.763   4.032  20.808  0.00  0.00    +0.000 C 
ATOM     16  C   UNL     1       0.908   2.778  20.736  0.00  0.00    +0.000 C 
ATOM     17  C   UNL     1       0.840   2.414  19.252  0.00  0.00    +0.000 C 
ATOM     18  C   UNL     1       1.749   3.420  18.537  0.00  0.00    +0.000 C 
ENDBRANCH  12  18
ENDBRANCH   1  12
BRANCH   3  19
ATOM     19  C   UNL     1       5.147   5.778  14.991  0.00  0.00    +0.000 C 
BRANCH  19  20
ATOM     20  C   UNL     1       5.845   4.873  14.002  0.00  0.00    +0.000 A 
ATOM     21  C   UNL     1       7.194   5.076  13.669  0.00  0.00    +0.000 A 
ATOM     22  C   UNL     1       7.794   4.342  12.638  0.00  0.00    +0.000 A 
ATOM     23  C   UNL     1       7.052   3.396  11.940  0.00  0.00    +0.000 A 
ATOM     24  F   UNL     1       7.619   2.724  10.928  0.00  0.00    +0.000 F 
ATOM     25  C   UNL     1       5.725   3.167  12.275  0.00  0.00    +0.000 A 
ATOM     26  F   UNL     1       5.003   2.261  11.602  0.00  0.00    +0.000 F 
ATOM     27  C   UNL     1       5.119   3.898  13.297  0.00  0.00    +0.000 A 
ENDBRANCH  19  20
ENDBRANCH   3  19
TORSDOF 4
ENDMDL
MODEL 5
REMARK VINA RESULT:      -8.3      0.583      1.285
REMARK  Name = 
REMARK  5 active torsions:
REMARK  status: ('A' for Active; 'I' for Inactive)
REMARK    1  A    between atoms: C_1  and  N_2
REMARK    2  A    between atoms: C_6  and  C_7
REMARK    3  A    between atoms: C_7  and  N_8
REMARK    4  A    between atoms: C_10  and  C_11
REMARK    5  A    between atoms: C_11  and  C_12
REMARK                            x       y       z     vdW  Elec       q    Type
REMARK                         _______ _______ _______ _____ _____    ______ ____
ROOT
ATOM      1  N   UNL     1       5.274   5.279  18.878  0.00  0.00    +0.000 N 
ATOM      2  N   UNL     1       4.495   6.256  18.287  0.00  0.00    +0.000 NA
ATOM      3  C   UNL     1       3.241   6.013  18.035  0.00  0.00    +0.000 A 
ATOM      4  C   UNL     1       2.607   4.701  18.303  0.00  0.00    +0.000 A 
ATOM      5  C   UNL     1       1.289   4.390  17.942  0.00  0.00    +0.000 A 
ATOM      6  C   UNL     1       0.763   3.124  18.222  0.00  0.00    +0.000 A 
ATOM      7  C   UNL     1       1.545   2.168  18.866  0.00  0.00    +0.000 A 
ATOM      8  C   UNL     1       2.851   2.478  19.240  0.00  0.00    +0.000 A 
ATOM      9  C   UNL     1       3.379   3.746  18.953  0.00  0.00    +0.000 A 
ATOM     10  C   UNL     1       4.764   4.068  19.341  0.00  0.00    +0.000 A 
ATOM     11  O   UNL     1       5.399   3.266  20.031  0.00  0.00    +0.000 OA
ENDROOT
BRANCH   1  12
ATOM     12  C   UNL     1       6.648   5.672  19.223  0.00  0.00    +0.000 C 
BRANCH  12  18
ATOM     13  C   UNL     1       7.721   8.000  17.551  0.00  0.00    +0.000 C 
ATOM     14  N   UNL     1       7.643   6.645  17.042  0.00  0.00    +0.000 NA
ATOM     15  C   UNL     1       6.484   6.402  16.192  0.00  0.00    +0.000 C 
ATOM     16  C   UNL     1       6.559   4.899  15.974  0.00  0.00    +0.000 C 
ATOM     17  C   UNL     1       7.382   4.358  17.143  0.00  0.00    +0.000 C 
ATOM     18  C   UNL     1       7.662   5.563  18.047  0.00  0.00    +0.000 C 
ENDBRANCH  12  18
ENDBRANCH   1  12
BRANCH   3  19
ATOM     19  C   UNL     1       2.394   7.169  17.510  0.00  0.00    +0.000 C 
BRANCH  19  20
ATOM     20  C   UNL     1       1.798   8.082  18.558  0.00  0.00    +0.000 A 
ATOM     21  C   UNL     1       1.354   9.371  18.221  0.00  0.00    +0.000 A 
ATOM     22  C   UNL     1       0.953  10.271  19.216  0.00  0.00    +0.000 A 
ATOM     23  C   UNL     1       0.985   9.886  20.552  0.00  0.00    +0.000 A 
ATOM     24  F   UNL     1       0.637  10.764  21.503  0.00  0.00    +0.000 F 
ATOM     25  C   UNL     1       1.397   8.607  20.897  0.00  0.00    +0.000 A 
ATOM     26  F   UNL     1       1.436   8.231  22.182  0.00  0.00    +0.000 F 
ATOM     27  C   UNL     1       1.804   7.706  19.912  0.00  0.00    +0.000 A 
ENDBRANCH  19  20
ENDBRANCH   3  19
TORSDOF 4
ENDMDL
MODEL 6
REMARK VINA RESULT:      -8.3      3.589      6.775
REMARK  Name = 
REMARK  5 active torsions:
REMARK  status: ('A' for Active; 'I' for Inactive)
REMARK    1  A    between atoms: C_1  and  N_2
REMARK    2  A    between atoms: C_6  and  C_7
REMARK    3  A    between atoms: C_7  and  N_8
REMARK    4  A    between atoms: C_10  and  C_11
REMARK    5  A    between atoms: C_11  and  C_12
REMARK                            x       y       z     vdW  Elec       q    Type
REMARK                         _______ _______ _______ _____ _____    ______ ____
ROOT
ATOM      1  N   UNL     1       1.921   6.470  20.073  0.00  0.00    +0.000 N 
ATOM      2  N   UNL     1       2.658   6.483  18.904  0.00  0.00    +0.000 NA
ATOM      3  C   UNL     1       2.775   7.591  18.230  0.00  0.00    +0.000 A 
ATOM      4  C   UNL     1       2.101   8.848  18.627  0.00  0.00    +0.000 A 
ATOM      5  C   UNL     1       2.131  10.020  17.859  0.00  0.00    +0.000 A 
ATOM      6  C   UNL     1       1.461  11.167  18.298  0.00  0.00    +0.000 A 
ATOM      7  C   UNL     1       0.765  11.153  19.504  0.00  0.00    +0.000 A 
ATOM      8  C   UNL     1       0.745   9.995  20.279  0.00  0.00    +0.000 A 
ATOM      9  C   UNL     1       1.412   8.843  19.835  0.00  0.00    +0.000 A 
ATOM     10  C   UNL     1       1.382   7.617  20.652  0.00  0.00    +0.000 A 
ATOM     11  O   UNL     1       0.882   7.656  21.778  0.00  0.00    +0.000 OA
ENDROOT
BRANCH   1  12
ATOM     12  C   UNL     1       1.927   5.207  20.825  0.00  0.00    +0.000 C 
BRANCH  12  18
ATOM     13  C   UNL     1       1.607   2.364  21.913  0.00  0.00    +0.000 C 
ATOM     14  N   UNL     1       1.507   2.675  20.501  0.00  0.00    +0.000 NA
ATOM     15  C   UNL     1       2.720   2.386  19.747  0.00  0.00    +0.000 C 
ATOM     16  C   UNL     1       2.397   2.975  18.384  0.00  0.00    +0.000 C 
ATOM     17  C   UNL     1       1.306   4.016  18.637  0.00  0.00    +0.000 C 
ATOM     18  C   UNL     1       1.118   4.058  20.158  0.00  0.00    +0.000 C 
ENDBRANCH  12  18
ENDBRANCH   1  12
BRANCH   3  19
ATOM     19  C   UNL     1       3.712   7.583  17.025  0.00  0.00    +0.000 C 
BRANCH  19  20
ATOM     20  C   UNL     1       4.870   6.613  17.093  0.00  0.00    +0.000 A 
ATOM     21  C   UNL     1       6.111   7.009  17.618  0.00  0.00    +0.000 A 
ATOM     22  C   UNL     1       7.224   6.163  17.534  0.00  0.00    +0.000 A 
ATOM     23  C   UNL     1       7.102   4.915  16.933  0.00  0.00    +0.000 A 
ATOM     24  F   UNL     1       8.180   4.126  16.820  0.00  0.00    +0.000 F 
ATOM     25  C   UNL     1       5.876   4.501  16.433  0.00  0.00    +0.000 A 
ATOM     26  F   UNL     1       5.753   3.302  15.848  0.00  0.00    +0.000 F 
ATOM     27  C   UNL     1       4.764   5.339  16.508  0.00  0.00    +0.000 A 
ENDBRANCH  19  20
ENDBRANCH   3  19
TORSDOF 4
ENDMDL
MODEL 7
REMARK VINA RESULT:      -8.3      1.443      2.360
REMARK  Name = 
REMARK  5 active torsions:
REMARK  status: ('A' for Active; 'I' for Inactive)
REMARK    1  A    between atoms: C_1  and  N_2
REMARK    2  A    between atoms: C_6  and  C_7
REMARK    3  A    between atoms: C_7  and  N_8
REMARK    4  A    between atoms: C_10  and  C_11
REMARK    5  A    between atoms: C_11  and  C_12
REMARK                            x       y       z     vdW  Elec       q    Type
REMARK                         _______ _______ _______ _____ _____    ______ ____
ROOT
ATOM      1  N   UNL     1       3.904   5.562  17.235  0.00  0.00    +0.000 N 
ATOM      2  N   UNL     1       3.524   6.602  18.063  0.00  0.00    +0.000 NA
ATOM      3  C   UNL     1       2.817   6.351  19.128  0.00  0.00    +0.000 A 
ATOM      4  C   UNL     1       2.342   4.992  19.475  0.00  0.00    +0.000 A 
ATOM      5  C   UNL     1       1.494   4.720  20.557  0.00  0.00    +0.000 A 
ATOM      6  C   UNL     1       1.081   3.409  20.816  0.00  0.00    +0.000 A 
ATOM      7  C   UNL     1       1.515   2.365  20.003  0.00  0.00    +0.000 A 
ATOM      8  C   UNL     1       2.370   2.628  18.934  0.00  0.00    +0.000 A 
ATOM      9  C   UNL     1       2.779   3.944  18.672  0.00  0.00    +0.000 A 
ATOM     10  C   UNL     1       3.675   4.221  17.536  0.00  0.00    +0.000 A 
ATOM     11  O   UNL     1       4.163   3.277  16.909  0.00  0.00    +0.000 OA
ENDROOT
BRANCH   1  12
ATOM     12  C   UNL     1       4.787   5.919  16.116  0.00  0.00    +0.000 C 
BRANCH  12  18
ATOM     13  C   UNL     1       7.388   5.336  14.612  0.00  0.00    +0.000 C 
ATOM     14  N   UNL     1       7.350   5.579  16.040  0.00  0.00    +0.000 NA
ATOM     15  C   UNL     1       7.394   4.365  16.845  0.00  0.00    +0.000 C 
ATOM     16  C   UNL     1       7.151   4.902  18.246  0.00  0.00    +0.000 C 
ATOM     17  C   UNL     1       6.442   6.243  18.051  0.00  0.00    +0.000 C 
ATOM     18  C   UNL     1       6.212   6.375  16.542  0.00  0.00    +0.000 C 
ENDBRANCH  12  18
ENDBRANCH   1  12
BRANCH   3  19
ATOM     19  C   UNL     1       2.544   7.514  20.078  0.00  0.00    +0.000 C 
BRANCH  19  20
ATOM     20  C   UNL     1       1.462   8.479  19.648  0.00  0.00    +0.000 A 
ATOM     21  C   UNL     1       1.356   8.891  18.310  0.00  0.00    +0.000 A 
ATOM     22  C   UNL     1       0.460   9.903  17.943  0.00  0.00    +0.000 A 
ATOM     23  C   UNL     1      -0.341  10.502  18.908  0.00  0.00    +0.000 A 
ATOM     24  F   UNL     1      -1.168  11.497  18.559  0.00  0.00    +0.000 F 
ATOM     25  C   UNL     1      -0.265  10.087  20.230  0.00  0.00    +0.000 A 
ATOM     26  F   UNL     1      -1.030  10.664  21.166  0.00  0.00    +0.000 F 
ATOM     27  C   UNL     1       0.629   9.084  20.605  0.00  0.00    +0.000 A 
ENDBRANCH  19  20
ENDBRANCH   3  19
TORSDOF 4
ENDMDL
MODEL 8
REMARK VINA RESULT:      -7.9      3.752      6.678
REMARK  Name = 
REMARK  5 active torsions:
REMARK  status: ('A' for Active; 'I' for Inactive)
REMARK    1  A    between atoms: C_1  and  N_2
REMARK    2  A    between atoms: C_6  and  C_7
REMARK    3  A    between atoms: C_7  and  N_8
REMARK    4  A    between atoms: C_10  and  C_11
REMARK    5  A    between atoms: C_11  and  C_12
REMARK                            x       y       z     vdW  Elec       q    Type
REMARK                         _______ _______ _______ _____ _____    ______ ____
ROOT
ATOM      1  N   UNL     1       1.802   8.422  19.694  0.00  0.00    +0.000 N 
ATOM      2  N   UNL     1       2.581   8.250  18.565  0.00  0.00    +0.000 NA
ATOM      3  C   UNL     1       3.023   7.062  18.264  0.00  0.00    +0.000 A 
ATOM      4  C   UNL     1       2.776   5.874  19.113  0.00  0.00    +0.000 A 
ATOM      5  C   UNL     1       3.331   4.612  18.859  0.00  0.00    +0.000 A 
ATOM      6  C   UNL     1       3.057   3.539  19.713  0.00  0.00    +0.000 A 
ATOM      7  C   UNL     1       2.227   3.716  20.817  0.00  0.00    +0.000 A 
ATOM      8  C   UNL     1       1.661   4.966  21.065  0.00  0.00    +0.000 A 
ATOM      9  C   UNL     1       1.941   6.043  20.211  0.00  0.00    +0.000 A 
ATOM     10  C   UNL     1       1.349   7.365  20.481  0.00  0.00    +0.000 A 
ATOM     11  O   UNL     1       0.509   7.478  21.377  0.00  0.00    +0.000 OA
ENDROOT
BRANCH   1  12
ATOM     12  C   UNL     1       1.259   9.772  19.902  0.00  0.00    +0.000 C 
BRANCH  12  18
ATOM     13  C   UNL     1       1.548  12.765  19.334  0.00  0.00    +0.000 C 
ATOM     14  N   UNL     1       0.537  11.945  18.698  0.00  0.00    +0.000 NA
ATOM     15  C   UNL     1      -0.782  12.058  19.308  0.00  0.00    +0.000 C 
ATOM     16  C   UNL     1      -1.563  10.976  18.581  0.00  0.00    +0.000 C 
ATOM     17  C   UNL     1      -0.513   9.996  18.058  0.00  0.00    +0.000 C 
ATOM     18  C   UNL     1       0.831  10.501  18.596  0.00  0.00    +0.000 C 
ENDBRANCH  12  18
ENDBRANCH   1  12
BRANCH   3  19
ATOM     19  C   UNL     1       3.761   6.904  16.937  0.00  0.00    +0.000 C 
BRANCH  19  20
ATOM     20  C   UNL     1       5.102   6.209  17.005  0.00  0.00    +0.000 A 
ATOM     21  C   UNL     1       5.326   5.010  16.309  0.00  0.00    +0.000 A 
ATOM     22  C   UNL     1       6.509   4.284  16.499  0.00  0.00    +0.000 A 
ATOM     23  C   UNL     1       7.477   4.756  17.378  0.00  0.00    +0.000 A 
ATOM     24  F   UNL     1       8.590   4.038  17.586  0.00  0.00    +0.000 F 
ATOM     25  C   UNL     1       7.280   5.953  18.053  0.00  0.00    +0.000 A 
ATOM     26  F   UNL     1       8.206   6.410  18.906  0.00  0.00    +0.000 F 
ATOM     27  C   UNL     1       6.102   6.678  17.873  0.00  0.00    +0.000 A 
ENDBRANCH  19  20
ENDBRANCH   3  19
TORSDOF 4
ENDMDL
MODEL 9
REMARK VINA RESULT:      -7.8      1.810      4.623
REMARK  Name = 
REMARK  5 active torsions:
REMARK  status: ('A' for Active; 'I' for Inactive)
REMARK    1  A    between atoms: C_1  and  N_2
REMARK    2  A    between atoms: C_6  and  C_7
REMARK    3  A    between atoms: C_7  and  N_8
REMARK    4  A    between atoms: C_10  and  C_11
REMARK    5  A    between atoms: C_11  and  C_12
REMARK                            x       y       z     vdW  Elec       q    Type
REMARK                         _______ _______ _______ _____ _____    ______ ____
ROOT
ATOM      1  N   UNL     1       3.775   4.684  19.263  0.00  0.00    +0.000 N 
ATOM      2  N   UNL     1       3.477   6.000  18.963  0.00  0.00    +0.000 NA
ATOM      3  C   UNL     1       3.872   6.507  17.831  0.00  0.00    +0.000 A 
ATOM      4  C   UNL     1       4.687   5.750  16.853  0.00  0.00    +0.000 A 
ATOM      5  C   UNL     1       5.208   6.312  15.679  0.00  0.00    +0.000 A 
ATOM      6  C   UNL     1       5.977   5.534  14.808  0.00  0.00    +0.000 A 
ATOM      7  C   UNL     1       6.225   4.194  15.099  0.00  0.00    +0.000 A 
ATOM      8  C   UNL     1       5.696   3.627  16.257  0.00  0.00    +0.000 A 
ATOM      9  C   UNL     1       4.930   4.410  17.133  0.00  0.00    +0.000 A 
ATOM     10  C   UNL     1       4.380   3.811  18.362  0.00  0.00    +0.000 A 
ATOM     11  O   UNL     1       4.488   2.596  18.540  0.00  0.00    +0.000 OA
ENDROOT
BRANCH   1  12
ATOM     12  C   UNL     1       3.203   4.162  20.512  0.00  0.00    +0.000 C 
BRANCH  12  18
ATOM     13  C   UNL     1       1.565   2.148  22.133  0.00  0.00    +0.000 C 
ATOM     14  N   UNL     1       1.094   2.709  20.883  0.00  0.00    +0.000 NA
ATOM     15  C   UNL     1       1.279   1.829  19.736  0.00  0.00    +0.000 C 
ATOM     16  C   UNL     1       0.888   2.730  18.576  0.00  0.00    +0.000 C 
ATOM     17  C   UNL     1       1.065   4.159  19.091  0.00  0.00    +0.000 C 
ATOM     18  C   UNL     1       1.653   4.022  20.500  0.00  0.00    +0.000 C 
ENDBRANCH  12  18
ENDBRANCH   1  12
BRANCH   3  19
ATOM     19  C   UNL     1       3.398   7.918  17.490  0.00  0.00    +0.000 C 
BRANCH  19  20
ATOM     20  C   UNL     1       2.243   8.444  18.312  0.00  0.00    +0.000 A 
ATOM     21  C   UNL     1       1.426   9.477  17.824  0.00  0.00    +0.000 A 
ATOM     22  C   UNL     1       0.460  10.072  18.646  0.00  0.00    +0.000 A 
ATOM     23  C   UNL     1       0.300   9.632  19.956  0.00  0.00    +0.000 A 
ATOM     24  F   UNL     1      -0.598  10.231  20.750  0.00  0.00    +0.000 F 
ATOM     25  C   UNL     1       1.083   8.595  20.442  0.00  0.00    +0.000 A 
ATOM     26  F   UNL     1       0.938   8.171  21.704  0.00  0.00    +0.000 F 
ATOM     27  C   UNL     1       2.051   8.002  19.632  0.00  0.00    +0.000 A 
ENDBRANCH  19  20
ENDBRANCH   3  19
TORSDOF 4
ENDMDL
