MODEL 1
REMARK VINA RESULT:      -7.7      0.000      0.000
REMARK  Name = 
REMARK  6 active torsions:
REMARK  status: ('A' for Active; 'I' for Inactive)
REMARK    1  A    between atoms: C_1  and  C_2
REMARK    2  A    between atoms: C_2  and  C_3
REMARK    3  A    between atoms: C_2  and  C_4
REMARK    4  A    between atoms: C_2  and  C_5
REMARK    5  A    between atoms: C_9  and  C_10
REMARK    6  A    between atoms: C_16  and  C_17
REMARK                            x       y       z     vdW  Elec       q    Type
REMARK                         _______ _______ _______ _____ _____    ______ ____
ROOT
ATOM      1  C   UNL     1       3.517   6.443  18.127  0.00  0.00    +0.000 C 
ATOM      2  CA  UNL     1       2.727   7.305  18.789  0.00  0.00    +0.000 A 
ATOM      3  N   UNL     1       2.297   7.097  20.077  0.00  0.00    +0.000 N 
ATOM      4  C   UNL     1       1.446   7.919  20.771  0.00  0.00    +0.000 A 
ATOM      5  O   UNL     1       1.076   7.658  21.911  0.00  0.00    +0.000 OA
ATOM      6  CA  UNL     1       0.996   9.145  20.025  0.00  0.00    +0.000 A 
ATOM      7  C   UNL     1       0.132   9.980  20.632  0.00  0.00    +0.000 C 
ATOM      8  N   UNL     1       1.472   9.378  18.756  0.00  0.00    +0.000 N 
ATOM      9  C   UNL     1       2.301   8.544  18.060  0.00  0.00    +0.000 A 
ATOM     10  O   UNL     1       2.664   8.814  16.918  0.00  0.00    +0.000 OA
ATOM     11  H   UNL     1       2.635   6.269  20.563  0.00  0.00    +0.000 HD
ATOM     12  H   UNL     1       1.199  10.222  18.265  0.00  0.00    +0.000 HD
ENDROOT
BRANCH   1  17
ATOM     13  C   UNL     1       5.428   4.889  18.668  0.00  0.00    +0.000 A 
ATOM     14  N   UNL     1       5.409   3.671  19.324  0.00  0.00    +0.000 N 
ATOM     15  C   UNL     1       4.113   3.359  19.618  0.00  0.00    +0.000 A 
ATOM     16  N   UNL     1       3.292   4.295  19.211  0.00  0.00    +0.000 NA
ATOM     17  C   UNL     1       4.093   5.253  18.645  0.00  0.00    +0.000 A 
ATOM     18  H   UNL     1       6.204   3.080  19.524  0.00  0.00    +0.000 HD
BRANCH  13  20
ATOM     19  C   UNL     1       6.366   6.823  17.336  0.00  0.00    +0.000 C 
ATOM     20  C   UNL     1       6.686   5.501  18.071  0.00  0.00    +0.000 C 
ATOM     21  C   UNL     1       7.339   4.563  17.041  0.00  0.00    +0.000 C 
ATOM     22  C   UNL     1       7.694   5.783  19.206  0.00  0.00    +0.000 C 
ENDBRANCH  13  20
ENDBRANCH   1  17
BRANCH   7  23
ATOM     23  C   UNL     1      -0.406  11.165  20.061  0.00  0.00    +0.000 A 
ATOM     24  C   UNL     1       0.084  12.486  20.174  0.00  0.00    +0.000 A 
ATOM     25  C   UNL     1      -0.777  13.270  19.437  0.00  0.00    +0.000 A 
ATOM     26  O   UNL     1      -1.757  12.509  18.881  0.00  0.00    +0.000 OA
ATOM     27  C   UNL     1      -1.529  11.226  19.269  0.00  0.00    +0.000 A 
ENDBRANCH   7  23
TORSDOF 3
ENDMDL
MODEL 2
REMARK VINA RESULT:      -7.7      0.523      1.108
REMARK  Name = 
REMARK  6 active torsions:
REMARK  status: ('A' for Active; 'I' for Inactive)
REMARK    1  A    between atoms: C_1  and  C_2
REMARK    2  A    between atoms: C_2  and  C_3
REMARK    3  A    between atoms: C_2  and  C_4
REMARK    4  A    between atoms: C_2  and  C_5
REMARK    5  A    between atoms: C_9  and  C_10
REMARK    6  A    between atoms: C_16  and  C_17
REMARK                            x       y       z     vdW  Elec       q    Type
REMARK                         _______ _______ _______ _____ _____    ______ ____
ROOT
ATOM      1  C   UNL     1       3.372   6.579  18.080  0.00  0.00    +0.000 C 
ATOM      2  CA  UNL     1       2.615   7.431  18.792  0.00  0.00    +0.000 A 
ATOM      3  N   UNL     1       2.242   7.200  20.093  0.00  0.00    +0.000 N 
ATOM      4  C   UNL     1       1.425   8.011  20.840  0.00  0.00    +0.000 A 
ATOM      5  O   UNL     1       1.105   7.729  21.991  0.00  0.00    +0.000 OA
ATOM      6  CA  UNL     1       0.948   9.252  20.138  0.00  0.00    +0.000 A 
ATOM      7  C   UNL     1       0.114  10.078  20.799  0.00  0.00    +0.000 C 
ATOM      8  N   UNL     1       1.368   9.508  18.853  0.00  0.00    +0.000 N 
ATOM      9  C   UNL     1       2.162   8.685  18.106  0.00  0.00    +0.000 A 
ATOM     10  O   UNL     1       2.475   8.976  16.955  0.00  0.00    +0.000 OA
ATOM     11  H   UNL     1       2.598   6.361  20.548  0.00  0.00    +0.000 HD
ATOM     12  H   UNL     1       1.076  10.362  18.391  0.00  0.00    +0.000 HD
ENDROOT
BRANCH   1  17
ATOM     13  C   UNL     1       5.230   4.885  18.275  0.00  0.00    +0.000 A 
ATOM     14  N   UNL     1       5.283   3.726  19.027  0.00  0.00    +0.000 N 
ATOM     15  C   UNL     1       4.085   3.566  19.661  0.00  0.00    +0.000 A 
ATOM     16  N   UNL     1       3.263   4.548  19.384  0.00  0.00    +0.000 NA
ATOM     17  C   UNL     1       3.965   5.378  18.549  0.00  0.00    +0.000 A 
ATOM     18  H   UNL     1       6.054   3.074  19.079  0.00  0.00    +0.000 HD
BRANCH  13  20
ATOM     19  C   UNL     1       7.641   4.539  17.596  0.00  0.00    +0.000 C 
ATOM     20  C   UNL     1       6.337   5.324  17.329  0.00  0.00    +0.000 C 
ATOM     21  C   UNL     1       6.669   6.817  17.500  0.00  0.00    +0.000 C 
ATOM     22  C   UNL     1       5.882   5.073  15.874  0.00  0.00    +0.000 C 
ENDBRANCH  13  20
ENDBRANCH   1  17
BRANCH   7  23
ATOM     23  C   UNL     1      -0.444  11.275  20.274  0.00  0.00    +0.000 A 
ATOM     24  C   UNL     1       0.032  12.597  20.426  0.00  0.00    +0.000 A 
ATOM     25  C   UNL     1      -0.846  13.395  19.727  0.00  0.00    +0.000 A 
ATOM     26  O   UNL     1      -1.824  12.642  19.156  0.00  0.00    +0.000 OA
ATOM     27  C   UNL     1      -1.577  11.350  19.497  0.00  0.00    +0.000 A 
ENDBRANCH   7  23
TORSDOF 3
ENDMDL
MODEL 3
REMARK VINA RESULT:      -7.7      0.695      1.032
REMARK  Name = 
REMARK  6 active torsions:
REMARK  status: ('A' for Active; 'I' for Inactive)
REMARK    1  A    between atoms: C_1  and  C_2
REMARK    2  A    between atoms: C_2  and  C_3
REMARK    3  A    between atoms: C_2  and  C_4
REMARK    4  A    between atoms: C_2  and  C_5
REMARK    5  A    between atoms: C_9  and  C_10
REMARK    6  A    between atoms: C_16  and  C_17
REMARK                            x       y       z     vdW  Elec       q    Type
REMARK                         _______ _______ _______ _____ _____    ______ ____
ROOT
ATOM      1  C   UNL     1       3.389   6.635  18.048  0.00  0.00    +0.000 C 
ATOM      2  CA  UNL     1       2.624   7.462  18.780  0.00  0.00    +0.000 A 
ATOM      3  N   UNL     1       2.250   7.196  20.074  0.00  0.00    +0.000 N 
ATOM      4  C   UNL     1       1.426   7.981  20.839  0.00  0.00    +0.000 A 
ATOM      5  O   UNL     1       1.106   7.668  21.982  0.00  0.00    +0.000 OA
ATOM      6  CA  UNL     1       0.938   9.235  20.167  0.00  0.00    +0.000 A 
ATOM      7  C   UNL     1       0.095  10.037  20.847  0.00  0.00    +0.000 C 
ATOM      8  N   UNL     1       1.358   9.526  18.890  0.00  0.00    +0.000 N 
ATOM      9  C   UNL     1       2.160   8.728  18.124  0.00  0.00    +0.000 A 
ATOM     10  O   UNL     1       2.472   9.051  16.981  0.00  0.00    +0.000 OA
ATOM     11  H   UNL     1       2.614   6.349  20.509  0.00  0.00    +0.000 HD
ATOM     12  H   UNL     1       1.059  10.388  18.448  0.00  0.00    +0.000 HD
ENDROOT
BRANCH   1  17
ATOM     13  C   UNL     1       5.251   4.939  18.181  0.00  0.00    +0.000 A 
ATOM     14  N   UNL     1       5.320   3.770  18.917  0.00  0.00    +0.000 N 
ATOM     15  C   UNL     1       4.137   3.602  19.574  0.00  0.00    +0.000 A 
ATOM     16  N   UNL     1       3.309   4.587  19.328  0.00  0.00    +0.000 NA
ATOM     17  C   UNL     1       3.993   5.428  18.488  0.00  0.00    +0.000 A 
ATOM     18  H   UNL     1       6.092   3.118  18.943  0.00  0.00    +0.000 HD
BRANCH  13  20
ATOM     19  C   UNL     1       6.686   6.881  17.431  0.00  0.00    +0.000 C 
ATOM     20  C   UNL     1       6.337   5.391  17.216  0.00  0.00    +0.000 C 
ATOM     21  C   UNL     1       5.892   5.241  15.751  0.00  0.00    +0.000 C 
ATOM     22  C   UNL     1       7.601   4.534  17.449  0.00  0.00    +0.000 C 
ENDBRANCH  13  20
ENDBRANCH   1  17
BRANCH   7  23
ATOM     23  C   UNL     1      -0.472  11.242  20.350  0.00  0.00    +0.000 A 
ATOM     24  C   UNL     1      -1.645  11.397  19.578  0.00  0.00    +0.000 A 
ATOM     25  C   UNL     1      -1.773  12.751  19.359  0.00  0.00    +0.000 A 
ATOM     26  O   UNL     1      -0.754  13.429  19.952  0.00  0.00    +0.000 OA
ATOM     27  C   UNL     1       0.040  12.503  20.551  0.00  0.00    +0.000 A 
ENDBRANCH   7  23
TORSDOF 3
ENDMDL
MODEL 4
REMARK VINA RESULT:      -7.5      1.335      2.670
REMARK  Name = 
REMARK  6 active torsions:
REMARK  status: ('A' for Active; 'I' for Inactive)
REMARK    1  A    between atoms: C_1  and  C_2
REMARK    2  A    between atoms: C_2  and  C_3
REMARK    3  A    between atoms: C_2  and  C_4
REMARK    4  A    between atoms: C_2  and  C_5
REMARK    5  A    between atoms: C_9  and  C_10
REMARK    6  A    between atoms: C_16  and  C_17
REMARK                            x       y       z     vdW  Elec       q    Type
REMARK                         _______ _______ _______ _____ _____    ______ ____
ROOT
ATOM      1  C   UNL     1       3.241   6.676  18.197  0.00  0.00    +0.000 C 
ATOM      2  CA  UNL     1       2.502   7.559  18.890  0.00  0.00    +0.000 A 
ATOM      3  N   UNL     1       2.187   7.402  20.217  0.00  0.00    +0.000 N 
ATOM      4  C   UNL     1       1.391   8.245  20.949  0.00  0.00    +0.000 A 
ATOM      5  O   UNL     1       1.124   8.029  22.127  0.00  0.00    +0.000 OA
ATOM      6  CA  UNL     1       0.864   9.436  20.195  0.00  0.00    +0.000 A 
ATOM      7  C   UNL     1       0.046  10.289  20.841  0.00  0.00    +0.000 C 
ATOM      8  N   UNL     1       1.226   9.620  18.881  0.00  0.00    +0.000 N 
ATOM      9  C   UNL     1       2.000   8.763  18.151  0.00  0.00    +0.000 A 
ATOM     10  O   UNL     1       2.260   8.989  16.972  0.00  0.00    +0.000 OA
ATOM     11  H   UNL     1       2.576   6.596  20.705  0.00  0.00    +0.000 HD
ATOM     12  H   UNL     1       0.901  10.439  18.382  0.00  0.00    +0.000 HD
ENDROOT
BRANCH   1  17
ATOM     13  C   UNL     1       3.318   4.263  18.927  0.00  0.00    +0.000 A 
ATOM     14  N   UNL     1       4.391   3.520  19.384  0.00  0.00    +0.000 N 
ATOM     15  C   UNL     1       5.483   4.334  19.453  0.00  0.00    +0.000 A 
ATOM     16  N   UNL     1       5.198   5.551  19.058  0.00  0.00    +0.000 NA
ATOM     17  C   UNL     1       3.873   5.513  18.711  0.00  0.00    +0.000 A 
ATOM     18  H   UNL     1       4.377   2.548  19.664  0.00  0.00    +0.000 HD
BRANCH  13  20
ATOM     19  C   UNL     1       1.063   4.163  20.066  0.00  0.00    +0.000 C 
ATOM     20  C   UNL     1       1.898   3.724  18.843  0.00  0.00    +0.000 C 
ATOM     21  C   UNL     1       1.876   2.186  18.814  0.00  0.00    +0.000 C 
ATOM     22  C   UNL     1       1.234   4.262  17.556  0.00  0.00    +0.000 C 
ENDBRANCH  13  20
ENDBRANCH   1  17
BRANCH   7  23
ATOM     23  C   UNL     1      -0.552  11.445  20.271  0.00  0.00    +0.000 A 
ATOM     24  C   UNL     1      -0.123  12.787  20.374  0.00  0.00    +0.000 A 
ATOM     25  C   UNL     1      -1.028  13.527  19.644  0.00  0.00    +0.000 A 
ATOM     26  O   UNL     1      -1.976  12.719  19.100  0.00  0.00    +0.000 OA
ATOM     27  C   UNL     1      -1.685  11.449  19.490  0.00  0.00    +0.000 A 
ENDBRANCH   7  23
TORSDOF 3
ENDMDL
MODEL 5
REMARK VINA RESULT:      -7.3      1.850      2.500
REMARK  Name = 
REMARK  6 active torsions:
REMARK  status: ('A' for Active; 'I' for Inactive)
REMARK    1  A    between atoms: C_1  and  C_2
REMARK    2  A    between atoms: C_2  and  C_3
REMARK    3  A    between atoms: C_2  and  C_4
REMARK    4  A    between atoms: C_2  and  C_5
REMARK    5  A    between atoms: C_9  and  C_10
REMARK    6  A    between atoms: C_16  and  C_17
REMARK                            x       y       z     vdW  Elec       q    Type
REMARK                         _______ _______ _______ _____ _____    ______ ____
ROOT
ATOM      1  C   UNL     1       2.428   6.085  19.109  0.00  0.00    +0.000 C 
ATOM      2  CA  UNL     1       2.014   7.292  19.529  0.00  0.00    +0.000 A 
ATOM      3  N   UNL     1       1.538   7.527  20.796  0.00  0.00    +0.000 N 
ATOM      4  C   UNL     1       1.052   8.727  21.250  0.00  0.00    +0.000 A 
ATOM      5  O   UNL     1       0.612   8.861  22.388  0.00  0.00    +0.000 OA
ATOM      6  CA  UNL     1       1.088   9.849  20.249  0.00  0.00    +0.000 A 
ATOM      7  C   UNL     1       0.595  11.047  20.615  0.00  0.00    +0.000 C 
ATOM      8  N   UNL     1       1.616   9.624  18.999  0.00  0.00    +0.000 N 
ATOM      9  C   UNL     1       2.076   8.421  18.544  0.00  0.00    +0.000 A 
ATOM     10  O   UNL     1       2.513   8.297  17.402  0.00  0.00    +0.000 OA
ATOM     11  H   UNL     1       1.545   6.753  21.457  0.00  0.00    +0.000 HD
ATOM     12  H   UNL     1       1.674  10.387  18.335  0.00  0.00    +0.000 HD
ENDROOT
BRANCH   1  17
ATOM     13  C   UNL     1       3.000   3.661  19.507  0.00  0.00    +0.000 A 
ATOM     14  N   UNL     1       2.902   2.917  20.669  0.00  0.00    +0.000 N 
ATOM     15  C   UNL     1       2.358   3.705  21.642  0.00  0.00    +0.000 A 
ATOM     16  N   UNL     1       2.110   4.912  21.197  0.00  0.00    +0.000 NA
ATOM     17  C   UNL     1       2.522   4.903  19.890  0.00  0.00    +0.000 A 
ATOM     18  H   UNL     1       3.147   1.944  20.785  0.00  0.00    +0.000 HD
BRANCH  13  20
ATOM     19  C   UNL     1       4.750   3.741  17.685  0.00  0.00    +0.000 C 
ATOM     20  C   UNL     1       3.442   3.081  18.173  0.00  0.00    +0.000 C 
ATOM     21  C   UNL     1       2.387   3.313  17.077  0.00  0.00    +0.000 C 
ATOM     22  C   UNL     1       3.670   1.562  18.338  0.00  0.00    +0.000 C 
ENDBRANCH  13  20
ENDBRANCH   1  17
BRANCH   7  23
ATOM     23  C   UNL     1       0.534  12.200  19.786  0.00  0.00    +0.000 A 
ATOM     24  C   UNL     1       1.539  13.169  19.568  0.00  0.00    +0.000 A 
ATOM     25  C   UNL     1       1.000  14.075  18.682  0.00  0.00    +0.000 A 
ATOM     26  O   UNL     1      -0.267  13.717  18.344  0.00  0.00    +0.000 OA
ATOM     27  C   UNL     1      -0.549  12.574  19.025  0.00  0.00    +0.000 A 
ENDBRANCH   7  23
TORSDOF 3
ENDMDL
MODEL 6
REMARK VINA RESULT:      -7.3      2.211      7.790
REMARK  Name = 
REMARK  6 active torsions:
REMARK  status: ('A' for Active; 'I' for Inactive)
REMARK    1  A    between atoms: C_1  and  C_2
REMARK    2  A    between atoms: C_2  and  C_3
REMARK    3  A    between atoms: C_2  and  C_4
REMARK    4  A    between atoms: C_2  and  C_5
REMARK    5  A    between atoms: C_9  and  C_10
REMARK    6  A    between atoms: C_16  and  C_17
REMARK                            x       y       z     vdW  Elec       q    Type
REMARK                         _______ _______ _______ _____ _____    ______ ____
ROOT
ATOM      1  C   UNL     1       1.478   9.152  19.449  0.00  0.00    +0.000 C 
ATOM      2  CA  UNL     1       2.142   8.007  19.218  0.00  0.00    +0.000 A 
ATOM      3  N   UNL     1       2.160   6.955  20.100  0.00  0.00    +0.000 N 
ATOM      4  C   UNL     1       2.868   5.792  19.933  0.00  0.00    +0.000 A 
ATOM      5  O   UNL     1       2.864   4.901  20.777  0.00  0.00    +0.000 OA
ATOM      6  CA  UNL     1       3.653   5.704  18.653  0.00  0.00    +0.000 A 
ATOM      7  C   UNL     1       4.401   4.604  18.438  0.00  0.00    +0.000 C 
ATOM      8  N   UNL     1       3.590   6.736  17.747  0.00  0.00    +0.000 N 
ATOM      9  C   UNL     1       2.902   7.903  17.930  0.00  0.00    +0.000 A 
ATOM     10  O   UNL     1       2.914   8.788  17.078  0.00  0.00    +0.000 OA
ATOM     11  H   UNL     1       1.602   7.036  20.948  0.00  0.00    +0.000 HD
ATOM     12  H   UNL     1       4.090   6.664  16.868  0.00  0.00    +0.000 HD
ENDROOT
BRANCH   1  17
ATOM     13  C   UNL     1      -0.452  10.284  20.614  0.00  0.00    +0.000 A 
ATOM     14  N   UNL     1      -0.901  10.133  21.913  0.00  0.00    +0.000 N 
ATOM     15  C   UNL     1      -0.067   9.269  22.562  0.00  0.00    +0.000 A 
ATOM     16  N   UNL     1       0.883   8.836  21.769  0.00  0.00    +0.000 NA
ATOM     17  C   UNL     1       0.642   9.437  20.561  0.00  0.00    +0.000 A 
ATOM     18  H   UNL     1      -1.685  10.607  22.340  0.00  0.00    +0.000 HD
BRANCH  13  20
ATOM     19  C   UNL     1       0.025  12.222  19.062  0.00  0.00    +0.000 C 
ATOM     20  C   UNL     1      -1.055  11.271  19.626  0.00  0.00    +0.000 C 
ATOM     21  C   UNL     1      -2.128  12.152  20.288  0.00  0.00    +0.000 C 
ATOM     22  C   UNL     1      -1.697  10.485  18.462  0.00  0.00    +0.000 C 
ENDBRANCH  13  20
ENDBRANCH   1  17
BRANCH   7  23
ATOM     23  C   UNL     1       5.215   4.375  17.296  0.00  0.00    +0.000 A 
ATOM     24  C   UNL     1       4.817   3.907  16.023  0.00  0.00    +0.000 A 
ATOM     25  C   UNL     1       5.966   3.861  15.264  0.00  0.00    +0.000 A 
ATOM     26  O   UNL     1       7.036   4.276  15.993  0.00  0.00    +0.000 OA
ATOM     27  C   UNL     1       6.574   4.583  17.234  0.00  0.00    +0.000 A 
ENDBRANCH   7  23
TORSDOF 3
ENDMDL
MODEL 7
REMARK VINA RESULT:      -7.3      1.895      2.543
REMARK  Name = 
REMARK  6 active torsions:
REMARK  status: ('A' for Active; 'I' for Inactive)
REMARK    1  A    between atoms: C_1  and  C_2
REMARK    2  A    between atoms: C_2  and  C_3
REMARK    3  A    between atoms: C_2  and  C_4
REMARK    4  A    between atoms: C_2  and  C_5
REMARK    5  A    between atoms: C_9  and  C_10
REMARK    6  A    between atoms: C_16  and  C_17
REMARK                            x       y       z     vdW  Elec       q    Type
REMARK                         _______ _______ _______ _____ _____    ______ ____
ROOT
ATOM      1  C   UNL     1       2.354   6.136  19.113  0.00  0.00    +0.000 C 
ATOM      2  CA  UNL     1       1.970   7.345  19.556  0.00  0.00    +0.000 A 
ATOM      3  N   UNL     1       1.566   7.582  20.846  0.00  0.00    +0.000 N 
ATOM      4  C   UNL     1       1.112   8.784  21.327  0.00  0.00    +0.000 A 
ATOM      5  O   UNL     1       0.736   8.920  22.488  0.00  0.00    +0.000 OA
ATOM      6  CA  UNL     1       1.100   9.906  20.326  0.00  0.00    +0.000 A 
ATOM      7  C   UNL     1       0.633  11.107  20.719  0.00  0.00    +0.000 C 
ATOM      8  N   UNL     1       1.557   9.680  19.049  0.00  0.00    +0.000 N 
ATOM      9  C   UNL     1       1.985   8.474  18.569  0.00  0.00    +0.000 A 
ATOM     10  O   UNL     1       2.359   8.350  17.405  0.00  0.00    +0.000 OA
ATOM     11  H   UNL     1       1.605   6.807  21.506  0.00  0.00    +0.000 HD
ATOM     12  H   UNL     1       1.583  10.443  18.383  0.00  0.00    +0.000 HD
ENDROOT
BRANCH   1  17
ATOM     13  C   UNL     1       3.002   3.730  19.498  0.00  0.00    +0.000 A 
ATOM     14  N   UNL     1       2.926   2.976  20.655  0.00  0.00    +0.000 N 
ATOM     15  C   UNL     1       2.355   3.740  21.631  0.00  0.00    +0.000 A 
ATOM     16  N   UNL     1       2.070   4.941  21.193  0.00  0.00    +0.000 NA
ATOM     17  C   UNL     1       2.484   4.953  19.886  0.00  0.00    +0.000 A 
ATOM     18  H   UNL     1       3.202   2.010  20.766  0.00  0.00    +0.000 HD
BRANCH  13  20
ATOM     19  C   UNL     1       2.416   3.431  17.056  0.00  0.00    +0.000 C 
ATOM     20  C   UNL     1       3.465   3.171  18.160  0.00  0.00    +0.000 C 
ATOM     21  C   UNL     1       3.680   1.649  18.226  0.00  0.00    +0.000 C 
ATOM     22  C   UNL     1       4.795   3.851  17.767  0.00  0.00    +0.000 C 
ENDBRANCH  13  20
ENDBRANCH   1  17
BRANCH   7  23
ATOM     23  C   UNL     1       0.534  12.261  19.895  0.00  0.00    +0.000 A 
ATOM     24  C   UNL     1      -0.565  12.678  19.111  0.00  0.00    +0.000 A 
ATOM     25  C   UNL     1      -0.171  13.852  18.508  0.00  0.00    +0.000 A 
ATOM     26  O   UNL     1       1.096  14.177  18.879  0.00  0.00    +0.000 OA
ATOM     27  C   UNL     1       1.524  13.200  19.721  0.00  0.00    +0.000 A 
ENDBRANCH   7  23
TORSDOF 3
ENDMDL
MODEL 8
REMARK VINA RESULT:      -7.2      2.299      7.731
REMARK  Name = 
REMARK  6 active torsions:
REMARK  status: ('A' for Active; 'I' for Inactive)
REMARK    1  A    between atoms: C_1  and  C_2
REMARK    2  A    between atoms: C_2  and  C_3
REMARK    3  A    between atoms: C_2  and  C_4
REMARK    4  A    between atoms: C_2  and  C_5
REMARK    5  A    between atoms: C_9  and  C_10
REMARK    6  A    between atoms: C_16  and  C_17
REMARK                            x       y       z     vdW  Elec       q    Type
REMARK                         _______ _______ _______ _____ _____    ______ ____
ROOT
ATOM      1  C   UNL     1       1.022   9.727  19.996  0.00  0.00    +0.000 C 
ATOM      2  CA  UNL     1       1.648   8.605  19.603  0.00  0.00    +0.000 A 
ATOM      3  N   UNL     1       1.776   7.495  20.401  0.00  0.00    +0.000 N 
ATOM      4  C   UNL     1       2.454   6.351  20.065  0.00  0.00    +0.000 A 
ATOM      5  O   UNL     1       2.556   5.404  20.839  0.00  0.00    +0.000 OA
ATOM      6  CA  UNL     1       3.069   6.356  18.692  0.00  0.00    +0.000 A 
ATOM      7  C   UNL     1       3.780   5.278  18.308  0.00  0.00    +0.000 C 
ATOM      8  N   UNL     1       2.892   7.448  17.875  0.00  0.00    +0.000 N 
ATOM      9  C   UNL     1       2.236   8.594  18.224  0.00  0.00    +0.000 A 
ATOM     10  O   UNL     1       2.141   9.536  17.442  0.00  0.00    +0.000 OA
ATOM     11  H   UNL     1       1.331   7.514  21.317  0.00  0.00    +0.000 HD
ATOM     12  H   UNL     1       3.275   7.439  16.937  0.00  0.00    +0.000 HD
ENDROOT
BRANCH   1  17
ATOM     13  C   UNL     1      -0.669  10.840  21.500  0.00  0.00    +0.000 A 
ATOM     14  N   UNL     1      -0.989  10.560  22.816  0.00  0.00    +0.000 N 
ATOM     15  C   UNL     1      -0.169   9.563  23.258  0.00  0.00    +0.000 A 
ATOM     16  N   UNL     1       0.651   9.165  22.316  0.00  0.00    +0.000 NA
ATOM     17  C   UNL     1       0.336   9.929  21.222  0.00  0.00    +0.000 A 
ATOM     18  H   UNL     1      -1.680  11.032  23.383  0.00  0.00    +0.000 HD
BRANCH  13  20
ATOM     19  C   UNL     1      -1.816  11.495  19.344  0.00  0.00    +0.000 C 
ATOM     20  C   UNL     1      -1.286  11.984  20.711  0.00  0.00    +0.000 C 
ATOM     21  C   UNL     1      -0.258  13.093  20.423  0.00  0.00    +0.000 C 
ATOM     22  C   UNL     1      -2.456  12.581  21.524  0.00  0.00    +0.000 C 
ENDBRANCH  13  20
ENDBRANCH   1  17
BRANCH   7  23
ATOM     23  C   UNL     1       4.441   5.133  17.058  0.00  0.00    +0.000 A 
ATOM     24  C   UNL     1       5.123   6.122  16.314  0.00  0.00    +0.000 A 
ATOM     25  C   UNL     1       5.593   5.485  15.186  0.00  0.00    +0.000 A 
ATOM     26  O   UNL     1       5.242   4.171  15.199  0.00  0.00    +0.000 OA
ATOM     27  C   UNL     1       4.534   3.962  16.341  0.00  0.00    +0.000 A 
ENDBRANCH   7  23
TORSDOF 3
ENDMDL
MODEL 9
REMARK VINA RESULT:      -7.2      2.219      7.779
REMARK  Name = 
REMARK  6 active torsions:
REMARK  status: ('A' for Active; 'I' for Inactive)
REMARK    1  A    between atoms: C_1  and  C_2
REMARK    2  A    between atoms: C_2  and  C_3
REMARK    3  A    between atoms: C_2  and  C_4
REMARK    4  A    between atoms: C_2  and  C_5
REMARK    5  A    between atoms: C_9  and  C_10
REMARK    6  A    between atoms: C_16  and  C_17
REMARK                            x       y       z     vdW  Elec       q    Type
REMARK                         _______ _______ _______ _____ _____    ______ ____
ROOT
ATOM      1  C   UNL     1       1.257   9.352  19.820  0.00  0.00    +0.000 C 
ATOM      2  CA  UNL     1       1.866   8.174  19.601  0.00  0.00    +0.000 A 
ATOM      3  N   UNL     1       1.835   7.132  20.495  0.00  0.00    +0.000 N 
ATOM      4  C   UNL     1       2.487   5.935  20.341  0.00  0.00    +0.000 A 
ATOM      5  O   UNL     1       2.442   5.056  21.196  0.00  0.00    +0.000 OA
ATOM      6  CA  UNL     1       3.264   5.794  19.061  0.00  0.00    +0.000 A 
ATOM      7  C   UNL     1       3.958   4.658  18.858  0.00  0.00    +0.000 C 
ATOM      8  N   UNL     1       3.248   6.818  18.143  0.00  0.00    +0.000 N 
ATOM      9  C   UNL     1       2.617   8.018  18.313  0.00  0.00    +0.000 A 
ATOM     10  O   UNL     1       2.669   8.892  17.451  0.00  0.00    +0.000 OA
ATOM     11  H   UNL     1       1.283   7.250  21.343  0.00  0.00    +0.000 HD
ATOM     12  H   UNL     1       3.742   6.711  17.265  0.00  0.00    +0.000 HD
ENDROOT
BRANCH   1  17
ATOM     13  C   UNL     1      -0.607  10.595  20.976  0.00  0.00    +0.000 A 
ATOM     14  N   UNL     1      -1.063  10.479  22.277  0.00  0.00    +0.000 N 
ATOM     15  C   UNL     1      -0.278   9.574  22.931  0.00  0.00    +0.000 A 
ATOM     16  N   UNL     1       0.646   9.084  22.141  0.00  0.00    +0.000 NA
ATOM     17  C   UNL     1       0.439   9.690  20.929  0.00  0.00    +0.000 A 
ATOM     18  H   UNL     1      -1.820  10.998  22.700  0.00  0.00    +0.000 HD
BRANCH  13  20
ATOM     19  C   UNL     1      -2.337  12.398  20.585  0.00  0.00    +0.000 C 
ATOM     20  C   UNL     1      -1.155  11.607  19.981  0.00  0.00    +0.000 C 
ATOM     21  C   UNL     1      -1.678  10.923  18.706  0.00  0.00    +0.000 C 
ATOM     22  C   UNL     1      -0.029  12.592  19.598  0.00  0.00    +0.000 C 
ENDBRANCH  13  20
ENDBRANCH   1  17
BRANCH   7  23
ATOM     23  C   UNL     1       4.758   4.376  17.718  0.00  0.00    +0.000 A 
ATOM     24  C   UNL     1       4.340   3.869  16.466  0.00  0.00    +0.000 A 
ATOM     25  C   UNL     1       5.481   3.780  15.699  0.00  0.00    +0.000 A 
ATOM     26  O   UNL     1       6.564   4.204  16.403  0.00  0.00    +0.000 OA
ATOM     27  C   UNL     1       6.118   4.562  17.637  0.00  0.00    +0.000 A 
ENDBRANCH   7  23
TORSDOF 3
ENDMDL
