MODEL 1
REMARK VINA RESULT:      -8.3      0.000      0.000
REMARK  Name = 
REMARK  6 active torsions:
REMARK  status: ('A' for Active; 'I' for Inactive)
REMARK    1  A    between atoms: C_1  and  C_2
REMARK    2  A    between atoms: N_4  and  C_25
REMARK    3  A    between atoms: C_8  and  C_9
REMARK    4  A    between atoms: C_11  and  C_12
REMARK    5  A    between atoms: C_18  and  C_19
REMARK    6  A    between atoms: C_28  and  N_29
REMARK                            x       y       z     vdW  Elec       q    Type
REMARK                         _______ _______ _______ _____ _____    ______ ____
ROOT
ATOM      1  C   UNL     1      -0.244   9.761  23.234  0.00  0.00    +0.000 C 
ATOM      2  C   UNL     1       0.875   9.447  22.261  0.00  0.00    +0.000 C 
ATOM      3  O   UNL     1       2.009   9.256  22.708  0.00  0.00    +0.000 OA
ATOM      4  N   UNL     1       0.532   9.403  20.894  0.00  0.00    +0.000 N 
ATOM      5  C   UNL     1      -0.416  10.264  20.336  0.00  0.00    +0.000 C 
ATOM      6  N   UNL     1      -1.207   9.942  19.356  0.00  0.00    +0.000 NA
ATOM      7  N   UNL     1      -1.985  11.009  18.958  0.00  0.00    +0.000 N 
ATOM      8  C   UNL     1      -2.815  10.944  17.849  0.00  0.00    +0.000 C 
ATOM      9  C   UNL     1      -2.908   9.630  17.120  0.00  0.00    +0.000 C 
ATOM     10  O   UNL     1      -3.464  11.915  17.455  0.00  0.00    +0.000 OA
ATOM     11  C   UNL     1      -1.736  12.281  19.621  0.00  0.00    +0.000 C 
ATOM     12  S   UNL     1      -0.491  11.930  20.883  0.00  0.00    +0.000 S 
ENDROOT
BRANCH  11  13
ATOM     13  C   UNL     1      -2.955  12.988  20.139  0.00  0.00    +0.000 A 
ATOM     14  C   UNL     1      -4.135  12.250  20.329  0.00  0.00    +0.000 A 
ATOM     15  C   UNL     1      -5.256  12.823  20.940  0.00  0.00    +0.000 A 
ATOM     16  C   UNL     1      -6.416  12.073  21.192  0.00  0.00    +0.000 A 
ATOM     17  C   UNL     1      -7.505  12.659  21.831  0.00  0.00    +0.000 A 
ATOM     18  C   UNL     1      -7.441  13.993  22.210  0.00  0.00    +0.000 A 
ATOM     19  C   UNL     1      -6.285  14.750  21.958  0.00  0.00    +0.000 A 
ATOM     20  C   UNL     1      -6.218  16.186  22.395  0.00  0.00    +0.000 C 
ATOM     21  C   UNL     1      -5.177  14.178  21.324  0.00  0.00    +0.000 A 
ATOM     22  N   UNL     1      -4.072  14.906  21.109  0.00  0.00    +0.000 NA
ATOM     23  C   UNL     1      -2.995  14.310  20.552  0.00  0.00    +0.000 A 
ATOM     24 CL   UNL     1      -1.661  15.393  20.447  0.00  0.00    +0.000 Cl
ENDBRANCH  11  13
BRANCH   4  25
ATOM     25  C   UNL     1       1.343   8.584  19.996  0.00  0.00    +0.000 A 
ATOM     26  C   UNL     1       1.760   7.286  20.351  0.00  0.00    +0.000 A 
ATOM     27  C   UNL     1       2.584   6.513  19.519  0.00  0.00    +0.000 A 
ATOM     28  C   UNL     1       2.993   7.021  18.286  0.00  0.00    +0.000 A 
ATOM     29  C   UNL     1       2.583   8.294  17.888  0.00  0.00    +0.000 A 
ATOM     30  C   UNL     1       1.774   9.062  18.740  0.00  0.00    +0.000 A 
BRANCH  28  31
ATOM     31  N   UNL     1       3.856   6.220  17.405  0.00  0.00    +0.000 N 
ATOM     32  O   UNL     1       4.702   6.819  16.728  0.00  0.00    +0.000 OA
ATOM     33  O   UNL     1       3.685   4.995  17.398  0.00  0.00    +0.000 OA
ENDBRANCH  28  31
ENDBRANCH   4  25
TORSDOF 3
ENDMDL
MODEL 2
REMARK VINA RESULT:      -8.3      0.167      1.011
REMARK  Name = 
REMARK  6 active torsions:
REMARK  status: ('A' for Active; 'I' for Inactive)
REMARK    1  A    between atoms: C_1  and  C_2
REMARK    2  A    between atoms: N_4  and  C_25
REMARK    3  A    between atoms: C_8  and  C_9
REMARK    4  A    between atoms: C_11  and  C_12
REMARK    5  A    between atoms: C_18  and  C_19
REMARK    6  A    between atoms: C_28  and  N_29
REMARK                            x       y       z     vdW  Elec       q    Type
REMARK                         _______ _______ _______ _____ _____    ______ ____
ROOT
ATOM      1  C   UNL     1      -0.376   9.774  23.259  0.00  0.00    +0.000 C 
ATOM      2  C   UNL     1       0.776   9.503  22.312  0.00  0.00    +0.000 C 
ATOM      3  O   UNL     1       1.903   9.336  22.786  0.00  0.00    +0.000 OA
ATOM      4  N   UNL     1       0.470   9.468  20.936  0.00  0.00    +0.000 N 
ATOM      5  C   UNL     1      -0.485  10.311  20.363  0.00  0.00    +0.000 C 
ATOM      6  N   UNL     1      -1.241   9.982  19.359  0.00  0.00    +0.000 NA
ATOM      7  N   UNL     1      -2.037  11.032  18.954  0.00  0.00    +0.000 N 
ATOM      8  C   UNL     1      -2.836  10.960  17.823  0.00  0.00    +0.000 C 
ATOM      9  C   UNL     1      -2.875   9.654  17.075  0.00  0.00    +0.000 C 
ATOM     10  O   UNL     1      -3.500  11.919  17.424  0.00  0.00    +0.000 OA
ATOM     11  C   UNL     1      -1.840  12.302  19.640  0.00  0.00    +0.000 C 
ATOM     12  S   UNL     1      -0.620  11.967  20.929  0.00  0.00    +0.000 S 
ENDROOT
BRANCH  11  13
ATOM     13  C   UNL     1      -3.091  12.969  20.135  0.00  0.00    +0.000 A 
ATOM     14  C   UNL     1      -4.254  12.196  20.286  0.00  0.00    +0.000 A 
ATOM     15  C   UNL     1      -5.406  12.731  20.875  0.00  0.00    +0.000 A 
ATOM     16  C   UNL     1      -6.551  11.947  21.089  0.00  0.00    +0.000 A 
ATOM     17  C   UNL     1      -7.672  12.495  21.707  0.00  0.00    +0.000 A 
ATOM     18  C   UNL     1      -7.654  13.826  22.101  0.00  0.00    +0.000 A 
ATOM     19  C   UNL     1      -6.513  14.617  21.887  0.00  0.00    +0.000 A 
ATOM     20  C   UNL     1      -6.498  16.050  22.341  0.00  0.00    +0.000 C 
ATOM     21  C   UNL     1      -5.374  14.084  21.275  0.00  0.00    +0.000 A 
ATOM     22  N   UNL     1      -4.285  14.844  21.096  0.00  0.00    +0.000 NA
ATOM     23  C   UNL     1      -3.178  14.285  20.560  0.00  0.00    +0.000 A 
ATOM     24 CL   UNL     1      -1.873  15.405  20.502  0.00  0.00    +0.000 Cl
ENDBRANCH  11  13
BRANCH   4  25
ATOM     25  C   UNL     1       1.326   8.683  20.049  0.00  0.00    +0.000 A 
ATOM     26  C   UNL     1       1.739   9.174  18.794  0.00  0.00    +0.000 A 
ATOM     27  C   UNL     1       2.515   8.406  17.912  0.00  0.00    +0.000 A 
ATOM     28  C   UNL     1       2.921   7.125  18.283  0.00  0.00    +0.000 A 
ATOM     29  C   UNL     1       2.552   6.611  19.526  0.00  0.00    +0.000 A 
ATOM     30  C   UNL     1       1.759   7.384  20.390  0.00  0.00    +0.000 A 
BRANCH  28  31
ATOM     31  N   UNL     1       3.736   6.313  17.367  0.00  0.00    +0.000 N 
ATOM     32  O   UNL     1       3.551   5.088  17.365  0.00  0.00    +0.000 OA
ATOM     33  O   UNL     1       4.554   6.904  16.653  0.00  0.00    +0.000 OA
ENDBRANCH  28  31
ENDBRANCH   4  25
TORSDOF 3
ENDMDL
MODEL 3
REMARK VINA RESULT:      -7.8      2.887      9.500
REMARK  Name = 
REMARK  6 active torsions:
REMARK  status: ('A' for Active; 'I' for Inactive)
REMARK    1  A    between atoms: C_1  and  C_2
REMARK    2  A    between atoms: N_4  and  C_25
REMARK    3  A    between atoms: C_8  and  C_9
REMARK    4  A    between atoms: C_11  and  C_12
REMARK    5  A    between atoms: C_18  and  C_19
REMARK    6  A    between atoms: C_28  and  N_29
REMARK                            x       y       z     vdW  Elec       q    Type
REMARK                         _______ _______ _______ _____ _____    ______ ____
ROOT
ATOM      1  C   UNL     1      -2.271   9.477  16.985  0.00  0.00    +0.000 C 
ATOM      2  C   UNL     1      -2.152  10.917  17.443  0.00  0.00    +0.000 C 
ATOM      3  O   UNL     1      -2.517  11.812  16.676  0.00  0.00    +0.000 OA
ATOM      4  N   UNL     1      -1.617  11.131  18.730  0.00  0.00    +0.000 N 
ATOM      5  C   UNL     1      -0.597  10.333  19.255  0.00  0.00    +0.000 C 
ATOM      6  N   UNL     1      -0.476  10.040  20.515  0.00  0.00    +0.000 NA
ATOM      7  N   UNL     1       0.663   9.301  20.759  0.00  0.00    +0.000 N 
ATOM      8  C   UNL     1       1.072   8.977  22.043  0.00  0.00    +0.000 C 
ATOM      9  C   UNL     1       0.186   9.394  23.187  0.00  0.00    +0.000 C 
ATOM     10  O   UNL     1       2.122   8.371  22.267  0.00  0.00    +0.000 OA
ATOM     11  C   UNL     1       1.539   9.059  19.621  0.00  0.00    +0.000 C 
ATOM     12  S   UNL     1       0.685   9.772  18.197  0.00  0.00    +0.000 S 
ENDROOT
BRANCH  11  13
ATOM     13  C   UNL     1       1.968   7.632  19.430  0.00  0.00    +0.000 A 
ATOM     14  C   UNL     1       1.378   6.637  20.225  0.00  0.00    +0.000 A 
ATOM     15  C   UNL     1       1.634   5.280  19.995  0.00  0.00    +0.000 A 
ATOM     16  C   UNL     1       0.999   4.277  20.743  0.00  0.00    +0.000 A 
ATOM     17  C   UNL     1       1.248   2.934  20.471  0.00  0.00    +0.000 A 
ATOM     18  C   UNL     1       2.136   2.593  19.461  0.00  0.00    +0.000 A 
ATOM     19  C   UNL     1       2.778   3.592  18.709  0.00  0.00    +0.000 A 
ATOM     20  C   UNL     1       3.718   3.210  17.601  0.00  0.00    +0.000 C 
ATOM     21  C   UNL     1       2.537   4.947  18.962  0.00  0.00    +0.000 A 
ATOM     22  N   UNL     1       3.140   5.889  18.224  0.00  0.00    +0.000 NA
ATOM     23  C   UNL     1       2.839   7.187  18.448  0.00  0.00    +0.000 A 
ATOM     24 CL   UNL     1       3.650   8.221  17.338  0.00  0.00    +0.000 Cl
ENDBRANCH  11  13
BRANCH   4  25
ATOM     25  C   UNL     1      -1.987  12.349  19.447  0.00  0.00    +0.000 A 
ATOM     26  C   UNL     1      -1.084  13.421  19.600  0.00  0.00    +0.000 A 
ATOM     27  C   UNL     1      -1.411  14.572  20.334  0.00  0.00    +0.000 A 
ATOM     28  C   UNL     1      -2.673  14.685  20.917  0.00  0.00    +0.000 A 
ATOM     29  C   UNL     1      -3.602  13.655  20.771  0.00  0.00    +0.000 A 
ATOM     30  C   UNL     1      -3.254  12.503  20.049  0.00  0.00    +0.000 A 
BRANCH  28  31
ATOM     31  N   UNL     1      -3.026  15.888  21.688  0.00  0.00    +0.000 N 
ATOM     32  O   UNL     1      -4.224  16.084  21.930  0.00  0.00    +0.000 OA
ATOM     33  O   UNL     1      -2.102  16.627  22.048  0.00  0.00    +0.000 OA
ENDBRANCH  28  31
ENDBRANCH   4  25
TORSDOF 3
ENDMDL
MODEL 4
REMARK VINA RESULT:      -7.7      5.331      8.975
REMARK  Name = 
REMARK  6 active torsions:
REMARK  status: ('A' for Active; 'I' for Inactive)
REMARK    1  A    between atoms: C_1  and  C_2
REMARK    2  A    between atoms: N_4  and  C_25
REMARK    3  A    between atoms: C_8  and  C_9
REMARK    4  A    between atoms: C_11  and  C_12
REMARK    5  A    between atoms: C_18  and  C_19
REMARK    6  A    between atoms: C_28  and  N_29
REMARK                            x       y       z     vdW  Elec       q    Type
REMARK                         _______ _______ _______ _____ _____    ______ ____
ROOT
ATOM      1  C   UNL     1       0.777  10.632  21.368  0.00  0.00    +0.000 C 
ATOM      2  C   UNL     1      -0.340  10.521  20.348  0.00  0.00    +0.000 C 
ATOM      3  O   UNL     1      -0.858   9.418  20.157  0.00  0.00    +0.000 OA
ATOM      4  N   UNL     1      -0.703  11.707  19.677  0.00  0.00    +0.000 N 
ATOM      5  C   UNL     1       0.235  12.678  19.317  0.00  0.00    +0.000 C 
ATOM      6  N   UNL     1      -0.011  13.954  19.284  0.00  0.00    +0.000 NA
ATOM      7  N   UNL     1       1.073  14.670  18.822  0.00  0.00    +0.000 N 
ATOM      8  C   UNL     1       1.008  16.033  18.579  0.00  0.00    +0.000 C 
ATOM      9  C   UNL     1      -0.277  16.744  18.912  0.00  0.00    +0.000 C 
ATOM     10  O   UNL     1       1.956  16.664  18.108  0.00  0.00    +0.000 OA
ATOM     11  C   UNL     1       2.229  13.897  18.391  0.00  0.00    +0.000 C 
ATOM     12  S   UNL     1       1.819  12.175  18.755  0.00  0.00    +0.000 S 
ENDROOT
BRANCH  11  13
ATOM     13  C   UNL     1       3.549  14.346  18.948  0.00  0.00    +0.000 A 
ATOM     14  C   UNL     1       4.625  14.540  18.066  0.00  0.00    +0.000 A 
ATOM     15  C   UNL     1       5.833  15.091  18.509  0.00  0.00    +0.000 A 
ATOM     16  C   UNL     1       6.890  15.349  17.621  0.00  0.00    +0.000 A 
ATOM     17  C   UNL     1       8.069  15.928  18.082  0.00  0.00    +0.000 A 
ATOM     18  C   UNL     1       8.198  16.240  19.429  0.00  0.00    +0.000 A 
ATOM     19  C   UNL     1       7.145  15.983  20.323  0.00  0.00    +0.000 A 
ATOM     20  C   UNL     1       7.287  16.349  21.774  0.00  0.00    +0.000 C 
ATOM     21  C   UNL     1       5.949  15.408  19.879  0.00  0.00    +0.000 A 
ATOM     22  N   UNL     1       4.946  15.187  20.739  0.00  0.00    +0.000 NA
ATOM     23  C   UNL     1       3.780  14.690  20.271  0.00  0.00    +0.000 A 
ATOM     24 CL   UNL     1       2.601  14.568  21.518  0.00  0.00    +0.000 Cl
ENDBRANCH  11  13
BRANCH   4  25
ATOM     25  C   UNL     1      -2.062  11.825  19.151  0.00  0.00    +0.000 A 
ATOM     26  C   UNL     1      -3.122  12.310  19.943  0.00  0.00    +0.000 A 
ATOM     27  C   UNL     1      -4.440  12.375  19.465  0.00  0.00    +0.000 A 
ATOM     28  C   UNL     1      -4.724  11.974  18.160  0.00  0.00    +0.000 A 
ATOM     29  C   UNL     1      -3.698  11.508  17.337  0.00  0.00    +0.000 A 
ATOM     30  C   UNL     1      -2.388  11.432  17.836  0.00  0.00    +0.000 A 
BRANCH  28  31
ATOM     31  N   UNL     1      -6.101  12.039  17.648  0.00  0.00    +0.000 N 
ATOM     32  O   UNL     1      -6.361  12.908  16.806  0.00  0.00    +0.000 OA
ATOM     33  O   UNL     1      -6.914  11.219  18.091  0.00  0.00    +0.000 OA
ENDBRANCH  28  31
ENDBRANCH   4  25
TORSDOF 3
ENDMDL
MODEL 5
REMARK VINA RESULT:      -7.5      4.466      5.681
REMARK  Name = 
REMARK  6 active torsions:
REMARK  status: ('A' for Active; 'I' for Inactive)
REMARK    1  A    between atoms: C_1  and  C_2
REMARK    2  A    between atoms: N_4  and  C_25
REMARK    3  A    between atoms: C_8  and  C_9
REMARK    4  A    between atoms: C_11  and  C_12
REMARK    5  A    between atoms: C_18  and  C_19
REMARK    6  A    between atoms: C_28  and  N_29
REMARK                            x       y       z     vdW  Elec       q    Type
REMARK                         _______ _______ _______ _____ _____    ______ ____
ROOT
ATOM      1  C   UNL     1      -0.172  11.145  18.350  0.00  0.00    +0.000 C 
ATOM      2  C   UNL     1       1.145  11.776  18.756  0.00  0.00    +0.000 C 
ATOM      3  O   UNL     1       2.175  11.103  18.667  0.00  0.00    +0.000 OA
ATOM      4  N   UNL     1       1.093  13.107  19.221  0.00  0.00    +0.000 N 
ATOM      5  C   UNL     1       0.028  13.588  19.988  0.00  0.00    +0.000 C 
ATOM      6  N   UNL     1      -0.413  14.809  19.938  0.00  0.00    +0.000 NA
ATOM      7  N   UNL     1      -1.420  15.024  20.855  0.00  0.00    +0.000 N 
ATOM      8  C   UNL     1      -1.962  16.281  21.076  0.00  0.00    +0.000 C 
ATOM      9  C   UNL     1      -1.469  17.416  20.219  0.00  0.00    +0.000 C 
ATOM     10  O   UNL     1      -2.818  16.487  21.939  0.00  0.00    +0.000 OA
ATOM     11  C   UNL     1      -1.743  13.914  21.741  0.00  0.00    +0.000 C 
ATOM     12  S   UNL     1      -0.706  12.542  21.189  0.00  0.00    +0.000 S 
ENDROOT
BRANCH  11  13
ATOM     13  C   UNL     1      -3.203  13.578  21.848  0.00  0.00    +0.000 A 
ATOM     14  C   UNL     1      -3.878  13.125  20.703  0.00  0.00    +0.000 A 
ATOM     15  C   UNL     1      -5.198  12.665  20.776  0.00  0.00    +0.000 A 
ATOM     16  C   UNL     1      -5.857  12.149  19.649  0.00  0.00    +0.000 A 
ATOM     17  C   UNL     1      -7.159  11.668  19.757  0.00  0.00    +0.000 A 
ATOM     18  C   UNL     1      -7.806  11.710  20.984  0.00  0.00    +0.000 A 
ATOM     19  C   UNL     1      -7.153  12.227  22.115  0.00  0.00    +0.000 A 
ATOM     20  C   UNL     1      -7.855  12.244  23.444  0.00  0.00    +0.000 C 
ATOM     21  C   UNL     1      -5.842  12.709  22.031  0.00  0.00    +0.000 A 
ATOM     22  N   UNL     1      -5.224  13.180  23.122  0.00  0.00    +0.000 NA
ATOM     23  C   UNL     1      -3.937  13.580  23.024  0.00  0.00    +0.000 A 
ATOM     24 CL   UNL     1      -3.310  14.062  24.552  0.00  0.00    +0.000 Cl
ENDBRANCH  11  13
BRANCH   4  25
ATOM     25  C   UNL     1       2.284  13.943  19.082  0.00  0.00    +0.000 A 
ATOM     26  C   UNL     1       2.643  14.520  17.848  0.00  0.00    +0.000 A 
ATOM     27  C   UNL     1       3.813  15.279  17.692  0.00  0.00    +0.000 A 
ATOM     28  C   UNL     1       4.646  15.499  18.789  0.00  0.00    +0.000 A 
ATOM     29  C   UNL     1       4.313  14.964  20.033  0.00  0.00    +0.000 A 
ATOM     30  C   UNL     1       3.149  14.192  20.169  0.00  0.00    +0.000 A 
BRANCH  28  31
ATOM     31  N   UNL     1       5.874  16.295  18.637  0.00  0.00    +0.000 N 
ATOM     32  O   UNL     1       5.813  17.503  18.900  0.00  0.00    +0.000 OA
ATOM     33  O   UNL     1       6.893  15.705  18.259  0.00  0.00    +0.000 OA
ENDBRANCH  28  31
ENDBRANCH   4  25
TORSDOF 3
ENDMDL
MODEL 6
REMARK VINA RESULT:      -7.3      4.871      5.986
REMARK  Name = 
REMARK  6 active torsions:
REMARK  status: ('A' for Active; 'I' for Inactive)
REMARK    1  A    between atoms: C_1  and  C_2
REMARK    2  A    between atoms: N_4  and  C_25
REMARK    3  A    between atoms: C_8  and  C_9
REMARK    4  A    between atoms: C_11  and  C_12
REMARK    5  A    between atoms: C_18  and  C_19
REMARK    6  A    between atoms: C_28  and  N_29
REMARK                            x       y       z     vdW  Elec       q    Type
REMARK                         _______ _______ _______ _____ _____    ______ ____
ROOT
ATOM      1  C   UNL     1       0.086  16.929  19.974  0.00  0.00    +0.000 C 
ATOM      2  C   UNL     1       1.453  16.683  19.367  0.00  0.00    +0.000 C 
ATOM      3  O   UNL     1       2.044  17.629  18.839  0.00  0.00    +0.000 OA
ATOM      4  N   UNL     1       1.954  15.367  19.445  0.00  0.00    +0.000 N 
ATOM      5  C   UNL     1       1.126  14.247  19.333  0.00  0.00    +0.000 C 
ATOM      6  N   UNL     1       1.326  13.126  19.959  0.00  0.00    +0.000 NA
ATOM      7  N   UNL     1       0.397  12.171  19.603  0.00  0.00    +0.000 N 
ATOM      8  C   UNL     1       0.482  10.859  20.045  0.00  0.00    +0.000 C 
ATOM      9  C   UNL     1       1.589  10.512  21.003  0.00  0.00    +0.000 C 
ATOM     10  O   UNL     1      -0.311   9.989  19.678  0.00  0.00    +0.000 OA
ATOM     11  C   UNL     1      -0.556  12.542  18.567  0.00  0.00    +0.000 C 
ATOM     12  S   UNL     1      -0.208  14.275  18.194  0.00  0.00    +0.000 S 
ENDROOT
BRANCH  11  13
ATOM     13  C   UNL     1      -1.996  12.258  18.885  0.00  0.00    +0.000 A 
ATOM     14  C   UNL     1      -2.539  12.766  20.076  0.00  0.00    +0.000 A 
ATOM     15  C   UNL     1      -3.906  12.653  20.354  0.00  0.00    +0.000 A 
ATOM     16  C   UNL     1      -4.467  13.216  21.512  0.00  0.00    +0.000 A 
ATOM     17  C   UNL     1      -5.836  13.117  21.747  0.00  0.00    +0.000 A 
ATOM     18  C   UNL     1      -6.642  12.449  20.835  0.00  0.00    +0.000 A 
ATOM     19  C   UNL     1      -6.087  11.882  19.676  0.00  0.00    +0.000 A 
ATOM     20  C   UNL     1      -6.973  11.184  18.684  0.00  0.00    +0.000 C 
ATOM     21  C   UNL     1      -4.715  11.976  19.417  0.00  0.00    +0.000 A 
ATOM     22  N   UNL     1      -4.202  11.448  18.297  0.00  0.00    +0.000 NA
ATOM     23  C   UNL     1      -2.885  11.610  18.041  0.00  0.00    +0.000 A 
ATOM     24 CL   UNL     1      -2.452  10.937  16.518  0.00  0.00    +0.000 Cl
ENDBRANCH  11  13
BRANCH   4  25
ATOM     25  C   UNL     1       3.401  15.167  19.427  0.00  0.00    +0.000 A 
ATOM     26  C   UNL     1       4.178  15.275  20.598  0.00  0.00    +0.000 A 
ATOM     27  C   UNL     1       5.575  15.138  20.580  0.00  0.00    +0.000 A 
ATOM     28  C   UNL     1       6.229  14.863  19.380  0.00  0.00    +0.000 A 
ATOM     29  C   UNL     1       5.493  14.727  18.202  0.00  0.00    +0.000 A 
ATOM     30  C   UNL     1       4.098  14.885  18.233  0.00  0.00    +0.000 A 
BRANCH  28  31
ATOM     31  N   UNL     1       7.692  14.717  19.350  0.00  0.00    +0.000 N 
ATOM     32  O   UNL     1       8.327  15.445  18.576  0.00  0.00    +0.000 OA
ATOM     33  O   UNL     1       8.197  13.877  20.104  0.00  0.00    +0.000 OA
ENDBRANCH  28  31
ENDBRANCH   4  25
TORSDOF 3
ENDMDL
MODEL 7
REMARK VINA RESULT:      -7.2      3.620      9.182
REMARK  Name = 
REMARK  6 active torsions:
REMARK  status: ('A' for Active; 'I' for Inactive)
REMARK    1  A    between atoms: C_1  and  C_2
REMARK    2  A    between atoms: N_4  and  C_25
REMARK    3  A    between atoms: C_8  and  C_9
REMARK    4  A    between atoms: C_11  and  C_12
REMARK    5  A    between atoms: C_18  and  C_19
REMARK    6  A    between atoms: C_28  and  N_29
REMARK                            x       y       z     vdW  Elec       q    Type
REMARK                         _______ _______ _______ _____ _____    ______ ____
ROOT
ATOM      1  C   UNL     1       3.116  14.314  20.028  0.00  0.00    +0.000 C 
ATOM      2  C   UNL     1       1.870  15.034  20.508  0.00  0.00    +0.000 C 
ATOM      3  O   UNL     1       2.000  15.994  21.272  0.00  0.00    +0.000 OA
ATOM      4  N   UNL     1       0.635  14.538  20.043  0.00  0.00    +0.000 N 
ATOM      5  C   UNL     1       0.404  13.174  19.848  0.00  0.00    +0.000 C 
ATOM      6  N   UNL     1      -0.368  12.690  18.921  0.00  0.00    +0.000 NA
ATOM      7  N   UNL     1      -0.470  11.318  19.009  0.00  0.00    +0.000 N 
ATOM      8  C   UNL     1      -1.336  10.589  18.208  0.00  0.00    +0.000 C 
ATOM      9  C   UNL     1      -2.122  11.337  17.165  0.00  0.00    +0.000 C 
ATOM     10  O   UNL     1      -1.474   9.370  18.327  0.00  0.00    +0.000 OA
ATOM     11  C   UNL     1       0.210  10.684  20.130  0.00  0.00    +0.000 C 
ATOM     12  S   UNL     1       1.086  12.018  20.977  0.00  0.00    +0.000 S 
ENDROOT
BRANCH  11  13
ATOM     13  C   UNL     1       1.074   9.507  19.777  0.00  0.00    +0.000 A 
ATOM     14  C   UNL     1       0.956   8.330  20.535  0.00  0.00    +0.000 A 
ATOM     15  C   UNL     1       1.631   7.161  20.165  0.00  0.00    +0.000 A 
ATOM     16  C   UNL     1       1.467   5.963  20.879  0.00  0.00    +0.000 A 
ATOM     17  C   UNL     1       2.126   4.807  20.470  0.00  0.00    +0.000 A 
ATOM     18  C   UNL     1       2.954   4.847  19.357  0.00  0.00    +0.000 A 
ATOM     19  C   UNL     1       3.125   6.043  18.639  0.00  0.00    +0.000 A 
ATOM     20  C   UNL     1       4.005   6.068  17.421  0.00  0.00    +0.000 C 
ATOM     21  C   UNL     1       2.467   7.215  19.029  0.00  0.00    +0.000 A 
ATOM     22  N   UNL     1       2.623   8.343  18.323  0.00  0.00    +0.000 NA
ATOM     23  C   UNL     1       1.926   9.442  18.685  0.00  0.00    +0.000 A 
ATOM     24 CL   UNL     1       2.201  10.748  17.599  0.00  0.00    +0.000 Cl
ENDBRANCH  11  13
BRANCH   4  25
ATOM     25  C   UNL     1      -0.503  15.454  19.970  0.00  0.00    +0.000 A 
ATOM     26  C   UNL     1      -0.556  16.493  19.020  0.00  0.00    +0.000 A 
ATOM     27  C   UNL     1      -1.618  17.410  18.978  0.00  0.00    +0.000 A 
ATOM     28  C   UNL     1      -2.673  17.289  19.881  0.00  0.00    +0.000 A 
ATOM     29  C   UNL     1      -2.668  16.260  20.823  0.00  0.00    +0.000 A 
ATOM     30  C   UNL     1      -1.590  15.362  20.864  0.00  0.00    +0.000 A 
BRANCH  28  31
ATOM     31  N   UNL     1      -3.791  18.244  19.844  0.00  0.00    +0.000 N 
ATOM     32  O   UNL     1      -4.209  18.599  18.734  0.00  0.00    +0.000 OA
ATOM     33  O   UNL     1      -4.247  18.631  20.927  0.00  0.00    +0.000 OA
ENDBRANCH  28  31
ENDBRANCH   4  25
TORSDOF 3
ENDMDL
MODEL 8
REMARK VINA RESULT:      -7.2      4.824      5.684
REMARK  Name = 
REMARK  6 active torsions:
REMARK  status: ('A' for Active; 'I' for Inactive)
REMARK    1  A    between atoms: C_1  and  C_2
REMARK    2  A    between atoms: N_4  and  C_25
REMARK    3  A    between atoms: C_8  and  C_9
REMARK    4  A    between atoms: C_11  and  C_12
REMARK    5  A    between atoms: C_18  and  C_19
REMARK    6  A    between atoms: C_28  and  N_29
REMARK                            x       y       z     vdW  Elec       q    Type
REMARK                         _______ _______ _______ _____ _____    ______ ____
ROOT
ATOM      1  C   UNL     1       0.689  17.586  21.606  0.00  0.00    +0.000 C 
ATOM      2  C   UNL     1       1.684  17.316  20.495  0.00  0.00    +0.000 C 
ATOM      3  O   UNL     1       2.236  18.275  19.950  0.00  0.00    +0.000 OA
ATOM      4  N   UNL     1       1.903  15.964  20.156  0.00  0.00    +0.000 N 
ATOM      5  C   UNL     1       0.879  15.015  20.178  0.00  0.00    +0.000 C 
ATOM      6  N   UNL     1       1.050  13.764  20.484  0.00  0.00    +0.000 NA
ATOM      7  N   UNL     1      -0.117  13.042  20.350  0.00  0.00    +0.000 N 
ATOM      8  C   UNL     1      -0.155  11.664  20.500  0.00  0.00    +0.000 C 
ATOM      9  C   UNL     1       1.120  10.967  20.895  0.00  0.00    +0.000 C 
ATOM     10  O   UNL     1      -1.184  11.010  20.319  0.00  0.00    +0.000 OA
ATOM     11  C   UNL     1      -1.273  13.760  19.831  0.00  0.00    +0.000 C 
ATOM     12  S   UNL     1      -0.731  15.474  19.651  0.00  0.00    +0.000 S 
ENDROOT
BRANCH  11  13
ATOM     13  C   UNL     1      -2.542  13.596  20.616  0.00  0.00    +0.000 A 
ATOM     14  C   UNL     1      -3.689  13.125  19.957  0.00  0.00    +0.000 A 
ATOM     15  C   UNL     1      -4.857  12.819  20.666  0.00  0.00    +0.000 A 
ATOM     16  C   UNL     1      -5.986  12.288  20.023  0.00  0.00    +0.000 A 
ATOM     17  C   UNL     1      -7.123  11.962  20.757  0.00  0.00    +0.000 A 
ATOM     18  C   UNL     1      -7.137  12.175  22.129  0.00  0.00    +0.000 A 
ATOM     19  C   UNL     1      -6.012  12.710  22.778  0.00  0.00    +0.000 A 
ATOM     20  C   UNL     1      -6.031  12.913  24.267  0.00  0.00    +0.000 C 
ATOM     21  C   UNL     1      -4.857  13.037  22.060  0.00  0.00    +0.000 A 
ATOM     22  N   UNL     1      -3.783  13.527  22.695  0.00  0.00    +0.000 NA
ATOM     23  C   UNL     1      -2.660  13.774  21.986  0.00  0.00    +0.000 A 
ATOM     24 CL   UNL     1      -1.379  14.310  23.002  0.00  0.00    +0.000 Cl
ENDBRANCH  11  13
BRANCH   4  25
ATOM     25  C   UNL     1       3.184  15.592  19.558  0.00  0.00    +0.000 A 
ATOM     26  C   UNL     1       4.349  15.444  20.337  0.00  0.00    +0.000 A 
ATOM     27  C   UNL     1       5.594  15.140  19.764  0.00  0.00    +0.000 A 
ATOM     28  C   UNL     1       5.695  14.953  18.386  0.00  0.00    +0.000 A 
ATOM     29  C   UNL     1       4.560  15.069  17.583  0.00  0.00    +0.000 A 
ATOM     30  C   UNL     1       3.325  15.391  18.168  0.00  0.00    +0.000 A 
BRANCH  28  31
ATOM     31  N   UNL     1       6.995  14.633  17.777  0.00  0.00    +0.000 N 
ATOM     32  O   UNL     1       7.838  15.537  17.713  0.00  0.00    +0.000 OA
ATOM     33  O   UNL     1       7.165  13.479  17.368  0.00  0.00    +0.000 OA
ENDBRANCH  28  31
ENDBRANCH   4  25
TORSDOF 3
ENDMDL
MODEL 9
REMARK VINA RESULT:      -7.2      5.391      8.588
REMARK  Name = 
REMARK  6 active torsions:
REMARK  status: ('A' for Active; 'I' for Inactive)
REMARK    1  A    between atoms: C_1  and  C_2
REMARK    2  A    between atoms: N_4  and  C_25
REMARK    3  A    between atoms: C_8  and  C_9
REMARK    4  A    between atoms: C_11  and  C_12
REMARK    5  A    between atoms: C_18  and  C_19
REMARK    6  A    between atoms: C_28  and  N_29
REMARK                            x       y       z     vdW  Elec       q    Type
REMARK                         _______ _______ _______ _____ _____    ______ ____
ROOT
ATOM      1  C   UNL     1       0.803  11.154  21.001  0.00  0.00    +0.000 C 
ATOM      2  C   UNL     1      -0.339  10.967  20.022  0.00  0.00    +0.000 C 
ATOM      3  O   UNL     1      -0.615   9.824  19.648  0.00  0.00    +0.000 OA
ATOM      4  N   UNL     1      -1.007  12.134  19.599  0.00  0.00    +0.000 N 
ATOM      5  C   UNL     1      -0.338  13.343  19.392  0.00  0.00    +0.000 C 
ATOM      6  N   UNL     1      -0.861  14.513  19.606  0.00  0.00    +0.000 NA
ATOM      7  N   UNL     1      -0.002  15.530  19.246  0.00  0.00    +0.000 N 
ATOM      8  C   UNL     1      -0.385  16.862  19.265  0.00  0.00    +0.000 C 
ATOM      9  C   UNL     1      -1.764  17.187  19.773  0.00  0.00    +0.000 C 
ATOM     10  O   UNL     1       0.361  17.767  18.884  0.00  0.00    +0.000 OA
ATOM     11  C   UNL     1       1.259  15.132  18.634  0.00  0.00    +0.000 C 
ATOM     12  S   UNL     1       1.268  13.326  18.686  0.00  0.00    +0.000 S 
ENDROOT
BRANCH  11  13
ATOM     13  C   UNL     1       2.487  15.770  19.214  0.00  0.00    +0.000 A 
ATOM     14  C   UNL     1       2.827  15.494  20.549  0.00  0.00    +0.000 A 
ATOM     15  C   UNL     1       4.032  15.947  21.098  0.00  0.00    +0.000 A 
ATOM     16  C   UNL     1       4.409  15.619  22.410  0.00  0.00    +0.000 A 
ATOM     17  C   UNL     1       5.628  16.056  22.920  0.00  0.00    +0.000 A 
ATOM     18  C   UNL     1       6.467  16.826  22.125  0.00  0.00    +0.000 A 
ATOM     19  C   UNL     1       6.095  17.159  20.812  0.00  0.00    +0.000 A 
ATOM     20  C   UNL     1       7.023  17.972  19.954  0.00  0.00    +0.000 C 
ATOM     21  C   UNL     1       4.877  16.725  20.278  0.00  0.00    +0.000 A 
ATOM     22  N   UNL     1       4.545  17.033  19.017  0.00  0.00    +0.000 NA
ATOM     23  C   UNL     1       3.392  16.546  18.507  0.00  0.00    +0.000 A 
ATOM     24 CL   UNL     1       3.201  16.984  16.854  0.00  0.00    +0.000 Cl
ENDBRANCH  11  13
BRANCH   4  25
ATOM     25  C   UNL     1      -2.396  12.024  19.157  0.00  0.00    +0.000 A 
ATOM     26  C   UNL     1      -2.728  11.561  17.868  0.00  0.00    +0.000 A 
ATOM     27  C   UNL     1      -4.055  11.503  17.416  0.00  0.00    +0.000 A 
ATOM     28  C   UNL     1      -5.093  11.890  18.263  0.00  0.00    +0.000 A 
ATOM     29  C   UNL     1      -4.807  12.333  19.555  0.00  0.00    +0.000 A 
ATOM     30  C   UNL     1      -3.473  12.403  19.986  0.00  0.00    +0.000 A 
BRANCH  28  31
ATOM     31  N   UNL     1      -6.488  11.832  17.800  0.00  0.00    +0.000 N 
ATOM     32  O   UNL     1      -6.843  12.651  16.942  0.00  0.00    +0.000 OA
ATOM     33  O   UNL     1      -7.218  10.966  18.295  0.00  0.00    +0.000 OA
ENDBRANCH  28  31
ENDBRANCH   4  25
TORSDOF 3
ENDMDL
