MODEL 1
REMARK VINA RESULT:      -7.3      0.000      0.000
REMARK  Name = 
REMARK  2 active torsions:
REMARK  status: ('A' for Active; 'I' for Inactive)
REMARK    1  A    between atoms: C_1  and  O_2
REMARK    2  A    between atoms: O_2  and  C_3
REMARK                            x       y       z     vdW  Elec       q    Type
REMARK                         _______ _______ _______ _____ _____    ______ ____
ROOT
ATOM      1  C   UNL     1       6.262   4.395  14.352  0.00  0.00    +0.000 A 
ATOM      2  C   UNL     1       5.468   5.507  14.084  0.00  0.00    +0.000 A 
ATOM      3  C   UNL     1       4.983   6.301  15.132  0.00  0.00    +0.000 A 
ATOM      4  C   UNL     1       5.287   5.994  16.465  0.00  0.00    +0.000 A 
ATOM      5  C   UNL     1       6.059   4.847  16.722  0.00  0.00    +0.000 A 
ATOM      6  C   UNL     1       6.546   4.059  15.673  0.00  0.00    +0.000 A 
ATOM      7  C   UNL     1       6.461   4.463  18.096  0.00  0.00    +0.000 C 
ATOM      8  O   UNL     1       7.663   4.460  18.358  0.00  0.00    +0.000 OA
ATOM      9  C   UNL     1       5.424   4.093  19.131  0.00  0.00    +0.000 C 
ATOM     10  C   UNL     1       3.997   3.938  18.657  0.00  0.00    +0.000 A 
ATOM     11  C   UNL     1       3.455   2.644  18.542  0.00  0.00    +0.000 A 
ATOM     12  C   UNL     1       2.135   2.453  18.139  0.00  0.00    +0.000 A 
ATOM     13  C   UNL     1       1.338   3.550  17.832  0.00  0.00    +0.000 A 
ATOM     14  C   UNL     1       1.862   4.837  17.931  0.00  0.00    +0.000 A 
ATOM     15  C   UNL     1       3.189   5.051  18.345  0.00  0.00    +0.000 A 
ATOM     16  C   UNL     1       3.687   6.471  18.475  0.00  0.00    +0.000 C 
ATOM     17  C   UNL     1       4.844   6.921  17.569  0.00  0.00    +0.000 C 
ENDROOT
BRANCH   1  19
ATOM     18  C   UNL     1       5.946   3.282  12.291  0.00  0.00    +0.000 C 
ATOM     19  O   UNL     1       6.784   3.552  13.410  0.00  0.00    +0.000 OA
ENDBRANCH   1  19
TORSDOF 1
ENDMDL
MODEL 2
REMARK VINA RESULT:      -7.2      2.614      5.591
REMARK  Name = 
REMARK  2 active torsions:
REMARK  status: ('A' for Active; 'I' for Inactive)
REMARK    1  A    between atoms: C_1  and  O_2
REMARK    2  A    between atoms: O_2  and  C_3
REMARK                            x       y       z     vdW  Elec       q    Type
REMARK                         _______ _______ _______ _____ _____    ______ ____
ROOT
ATOM      1  C   UNL     1       2.344   4.641  20.802  0.00  0.00    +0.000 A 
ATOM      2  C   UNL     1       2.276   6.032  20.833  0.00  0.00    +0.000 A 
ATOM      3  C   UNL     1       2.511   6.779  19.671  0.00  0.00    +0.000 A 
ATOM      4  C   UNL     1       2.818   6.145  18.460  0.00  0.00    +0.000 A 
ATOM      5  C   UNL     1       2.919   4.743  18.452  0.00  0.00    +0.000 A 
ATOM      6  C   UNL     1       2.678   3.998  19.612  0.00  0.00    +0.000 A 
ATOM      7  C   UNL     1       3.203   3.983  17.211  0.00  0.00    +0.000 C 
ATOM      8  O   UNL     1       2.336   3.210  16.806  0.00  0.00    +0.000 OA
ATOM      9  C   UNL     1       4.512   4.160  16.477  0.00  0.00    +0.000 C 
ATOM     10  C   UNL     1       5.583   4.979  17.160  0.00  0.00    +0.000 A 
ATOM     11  C   UNL     1       6.692   4.318  17.721  0.00  0.00    +0.000 A 
ATOM     12  C   UNL     1       7.719   5.033  18.333  0.00  0.00    +0.000 A 
ATOM     13  C   UNL     1       7.651   6.419  18.406  0.00  0.00    +0.000 A 
ATOM     14  C   UNL     1       6.556   7.089  17.864  0.00  0.00    +0.000 A 
ATOM     15  C   UNL     1       5.514   6.386  17.235  0.00  0.00    +0.000 A 
ATOM     16  C   UNL     1       4.374   7.170  16.628  0.00  0.00    +0.000 C 
ATOM     17  C   UNL     1       2.963   6.962  17.200  0.00  0.00    +0.000 C 
ENDROOT
BRANCH   1  19
ATOM     18  C   UNL     1       1.588   2.537  21.569  0.00  0.00    +0.000 C 
ATOM     19  O   UNL     1       2.136   3.816  21.872  0.00  0.00    +0.000 OA
ENDBRANCH   1  19
TORSDOF 1
ENDMDL
MODEL 3
REMARK VINA RESULT:      -7.2      2.339      5.216
REMARK  Name = 
REMARK  2 active torsions:
REMARK  status: ('A' for Active; 'I' for Inactive)
REMARK    1  A    between atoms: C_1  and  O_2
REMARK    2  A    between atoms: O_2  and  C_3
REMARK                            x       y       z     vdW  Elec       q    Type
REMARK                         _______ _______ _______ _____ _____    ______ ____
ROOT
ATOM      1  C   UNL     1       2.498   2.930  18.492  0.00  0.00    +0.000 A 
ATOM      2  C   UNL     1       3.606   2.359  19.114  0.00  0.00    +0.000 A 
ATOM      3  C   UNL     1       4.736   3.136  19.400  0.00  0.00    +0.000 A 
ATOM      4  C   UNL     1       4.776   4.496  19.068  0.00  0.00    +0.000 A 
ATOM      5  C   UNL     1       3.665   5.050  18.407  0.00  0.00    +0.000 A 
ATOM      6  C   UNL     1       2.535   4.274  18.127  0.00  0.00    +0.000 A 
ATOM      7  C   UNL     1       3.601   6.487  18.048  0.00  0.00    +0.000 C 
ATOM      8  O   UNL     1       2.724   7.168  18.579  0.00  0.00    +0.000 OA
ATOM      9  C   UNL     1       4.582   7.084  17.067  0.00  0.00    +0.000 C 
ATOM     10  C   UNL     1       5.489   6.129  16.325  0.00  0.00    +0.000 A 
ATOM     11  C   UNL     1       5.233   5.863  14.967  0.00  0.00    +0.000 A 
ATOM     12  C   UNL     1       6.059   5.013  14.235  0.00  0.00    +0.000 A 
ATOM     13  C   UNL     1       7.148   4.405  14.849  0.00  0.00    +0.000 A 
ATOM     14  C   UNL     1       7.410   4.651  16.195  0.00  0.00    +0.000 A 
ATOM     15  C   UNL     1       6.593   5.512  16.948  0.00  0.00    +0.000 A 
ATOM     16  C   UNL     1       6.954   5.772  18.392  0.00  0.00    +0.000 C 
ATOM     17  C   UNL     1       5.959   5.336  19.480  0.00  0.00    +0.000 C 
ENDROOT
BRANCH   1  19
ATOM     18  C   UNL     1       0.282   2.381  19.102  0.00  0.00    +0.000 C 
ATOM     19  O   UNL     1       1.347   2.268  18.164  0.00  0.00    +0.000 OA
ENDBRANCH   1  19
TORSDOF 1
ENDMDL
MODEL 4
REMARK VINA RESULT:      -7.0      1.208      1.361
REMARK  Name = 
REMARK  2 active torsions:
REMARK  status: ('A' for Active; 'I' for Inactive)
REMARK    1  A    between atoms: C_1  and  O_2
REMARK    2  A    between atoms: O_2  and  C_3
REMARK                            x       y       z     vdW  Elec       q    Type
REMARK                         _______ _______ _______ _____ _____    ______ ____
ROOT
ATOM      1  C   UNL     1       6.651   5.277  15.605  0.00  0.00    +0.000 A 
ATOM      2  C   UNL     1       5.609   6.079  15.142  0.00  0.00    +0.000 A 
ATOM      3  C   UNL     1       4.655   6.584  16.034  0.00  0.00    +0.000 A 
ATOM      4  C   UNL     1       4.727   6.297  17.404  0.00  0.00    +0.000 A 
ATOM      5  C   UNL     1       5.763   5.457  17.851  0.00  0.00    +0.000 A 
ATOM      6  C   UNL     1       6.718   4.957  16.958  0.00  0.00    +0.000 A 
ATOM      7  C   UNL     1       5.942   5.125  19.284  0.00  0.00    +0.000 C 
ATOM      8  O   UNL     1       6.977   5.503  19.831  0.00  0.00    +0.000 OA
ATOM      9  C   UNL     1       4.884   4.354  20.039  0.00  0.00    +0.000 C 
ATOM     10  C   UNL     1       3.747   3.769  19.233  0.00  0.00    +0.000 A 
ATOM     11  C   UNL     1       3.722   2.381  19.000  0.00  0.00    +0.000 A 
ATOM     12  C   UNL     1       2.678   1.792  18.290  0.00  0.00    +0.000 A 
ATOM     13  C   UNL     1       1.648   2.580  17.789  0.00  0.00    +0.000 A 
ATOM     14  C   UNL     1       1.663   3.957  18.002  0.00  0.00    +0.000 A 
ATOM     15  C   UNL     1       2.703   4.569  18.724  0.00  0.00    +0.000 A 
ATOM     16  C   UNL     1       2.641   6.060  18.959  0.00  0.00    +0.000 C 
ATOM     17  C   UNL     1       3.751   6.937  18.359  0.00  0.00    +0.000 C 
ENDROOT
BRANCH   1  19
ATOM     18  C   UNL     1       7.477   4.910  13.421  0.00  0.00    +0.000 C 
ATOM     19  O   UNL     1       7.632   4.730  14.826  0.00  0.00    +0.000 OA
ENDBRANCH   1  19
TORSDOF 1
ENDMDL
MODEL 5
REMARK VINA RESULT:      -6.8      2.484      4.028
REMARK  Name = 
REMARK  2 active torsions:
REMARK  status: ('A' for Active; 'I' for Inactive)
REMARK    1  A    between atoms: C_1  and  O_2
REMARK    2  A    between atoms: O_2  and  C_3
REMARK                            x       y       z     vdW  Elec       q    Type
REMARK                         _______ _______ _______ _____ _____    ______ ____
ROOT
ATOM      1  C   UNL     1       7.034   5.911  18.268  0.00  0.00    +0.000 A 
ATOM      2  C   UNL     1       7.157   4.635  17.722  0.00  0.00    +0.000 A 
ATOM      3  C   UNL     1       6.045   3.996  17.160  0.00  0.00    +0.000 A 
ATOM      4  C   UNL     1       4.793   4.623  17.133  0.00  0.00    +0.000 A 
ATOM      5  C   UNL     1       4.675   5.895  17.720  0.00  0.00    +0.000 A 
ATOM      6  C   UNL     1       5.789   6.534  18.278  0.00  0.00    +0.000 A 
ATOM      7  C   UNL     1       3.400   6.650  17.709  0.00  0.00    +0.000 C 
ATOM      8  O   UNL     1       3.376   7.717  17.095  0.00  0.00    +0.000 OA
ATOM      9  C   UNL     1       2.180   6.121  18.424  0.00  0.00    +0.000 C 
ATOM     10  C   UNL     1       2.367   4.908  19.308  0.00  0.00    +0.000 A 
ATOM     11  C   UNL     1       2.358   5.076  20.705  0.00  0.00    +0.000 A 
ATOM     12  C   UNL     1       2.496   3.983  21.559  0.00  0.00    +0.000 A 
ATOM     13  C   UNL     1       2.656   2.707  21.032  0.00  0.00    +0.000 A 
ATOM     14  C   UNL     1       2.677   2.525  19.651  0.00  0.00    +0.000 A 
ATOM     15  C   UNL     1       2.530   3.613  18.773  0.00  0.00    +0.000 A 
ATOM     16  C   UNL     1       2.517   3.347  17.286  0.00  0.00    +0.000 C 
ATOM     17  C   UNL     1       3.635   3.960  16.428  0.00  0.00    +0.000 C 
ENDROOT
BRANCH   1  19
ATOM     18  C   UNL     1       8.242   7.942  18.337  0.00  0.00    +0.000 C 
ATOM     19  O   UNL     1       8.048   6.625  18.844  0.00  0.00    +0.000 OA
ENDBRANCH   1  19
TORSDOF 1
ENDMDL
MODEL 6
REMARK VINA RESULT:      -6.5      2.983      5.720
REMARK  Name = 
REMARK  2 active torsions:
REMARK  status: ('A' for Active; 'I' for Inactive)
REMARK    1  A    between atoms: C_1  and  O_2
REMARK    2  A    between atoms: O_2  and  C_3
REMARK                            x       y       z     vdW  Elec       q    Type
REMARK                         _______ _______ _______ _____ _____    ______ ____
ROOT
ATOM      1  C   UNL     1       2.041   7.461  19.909  0.00  0.00    +0.000 A 
ATOM      2  C   UNL     1       1.847   7.717  18.554  0.00  0.00    +0.000 A 
ATOM      3  C   UNL     1       2.245   6.779  17.592  0.00  0.00    +0.000 A 
ATOM      4  C   UNL     1       2.842   5.569  17.972  0.00  0.00    +0.000 A 
ATOM      5  C   UNL     1       3.065   5.341  19.342  0.00  0.00    +0.000 A 
ATOM      6  C   UNL     1       2.662   6.278  20.301  0.00  0.00    +0.000 A 
ATOM      7  C   UNL     1       3.657   4.078  19.841  0.00  0.00    +0.000 C 
ATOM      8  O   UNL     1       2.959   3.370  20.566  0.00  0.00    +0.000 OA
ATOM      9  C   UNL     1       5.066   3.681  19.466  0.00  0.00    +0.000 C 
ATOM     10  C   UNL     1       5.903   4.708  18.738  0.00  0.00    +0.000 A 
ATOM     11  C   UNL     1       6.930   5.369  19.437  0.00  0.00    +0.000 A 
ATOM     12  C   UNL     1       7.747   6.300  18.799  0.00  0.00    +0.000 A 
ATOM     13  C   UNL     1       7.545   6.595  17.456  0.00  0.00    +0.000 A 
ATOM     14  C   UNL     1       6.527   5.956  16.751  0.00  0.00    +0.000 A 
ATOM     15  C   UNL     1       5.698   5.007  17.375  0.00  0.00    +0.000 A 
ATOM     16  C   UNL     1       4.639   4.317  16.547  0.00  0.00    +0.000 C 
ATOM     17  C   UNL     1       3.166   4.530  16.928  0.00  0.00    +0.000 C 
ENDROOT
BRANCH   1  19
ATOM     18  C   UNL     1       0.804   9.359  20.583  0.00  0.00    +0.000 C 
ATOM     19  O   UNL     1       1.695   8.304  20.929  0.00  0.00    +0.000 OA
ENDBRANCH   1  19
TORSDOF 1
ENDMDL
MODEL 7
REMARK VINA RESULT:      -6.3      2.727      5.656
REMARK  Name = 
REMARK  2 active torsions:
REMARK  status: ('A' for Active; 'I' for Inactive)
REMARK    1  A    between atoms: C_1  and  O_2
REMARK    2  A    between atoms: O_2  and  C_3
REMARK                            x       y       z     vdW  Elec       q    Type
REMARK                         _______ _______ _______ _____ _____    ______ ____
ROOT
ATOM      1  C   UNL     1       2.176   7.047  19.645  0.00  0.00    +0.000 A 
ATOM      2  C   UNL     1       2.400   8.190  18.880  0.00  0.00    +0.000 A 
ATOM      3  C   UNL     1       3.104   8.106  17.672  0.00  0.00    +0.000 A 
ATOM      4  C   UNL     1       3.595   6.878  17.210  0.00  0.00    +0.000 A 
ATOM      5  C   UNL     1       3.394   5.740  18.011  0.00  0.00    +0.000 A 
ATOM      6  C   UNL     1       2.685   5.825  19.215  0.00  0.00    +0.000 A 
ATOM      7  C   UNL     1       3.845   4.393  17.589  0.00  0.00    +0.000 C 
ATOM      8  O   UNL     1       2.982   3.536  17.401  0.00  0.00    +0.000 OA
ATOM      9  C   UNL     1       5.313   4.093  17.395  0.00  0.00    +0.000 C 
ATOM     10  C   UNL     1       6.299   5.149  17.839  0.00  0.00    +0.000 A 
ATOM     11  C   UNL     1       7.039   4.937  19.017  0.00  0.00    +0.000 A 
ATOM     12  C   UNL     1       7.982   5.868  19.449  0.00  0.00    +0.000 A 
ATOM     13  C   UNL     1       8.193   7.031  18.718  0.00  0.00    +0.000 A 
ATOM     14  C   UNL     1       7.462   7.261  17.554  0.00  0.00    +0.000 A 
ATOM     15  C   UNL     1       6.513   6.330  17.098  0.00  0.00    +0.000 A 
ATOM     16  C   UNL     1       5.783   6.614  15.806  0.00  0.00    +0.000 C 
ATOM     17  C   UNL     1       4.258   6.794  15.858  0.00  0.00    +0.000 C 
ENDROOT
BRANCH   1  19
ATOM     18  C   UNL     1       1.026   8.268  21.311  0.00  0.00    +0.000 C 
ATOM     19  O   UNL     1       1.506   7.014  20.837  0.00  0.00    +0.000 OA
ENDBRANCH   1  19
TORSDOF 1
ENDMDL
MODEL 8
REMARK VINA RESULT:      -6.2      2.318      4.382
REMARK  Name = 
REMARK  2 active torsions:
REMARK  status: ('A' for Active; 'I' for Inactive)
REMARK    1  A    between atoms: C_1  and  O_2
REMARK    2  A    between atoms: O_2  and  C_3
REMARK                            x       y       z     vdW  Elec       q    Type
REMARK                         _______ _______ _______ _____ _____    ______ ____
ROOT
ATOM      1  C   UNL     1       7.873   7.032  18.469  0.00  0.00    +0.000 A 
ATOM      2  C   UNL     1       8.012   5.742  18.976  0.00  0.00    +0.000 A 
ATOM      3  C   UNL     1       7.126   4.729  18.589  0.00  0.00    +0.000 A 
ATOM      4  C   UNL     1       6.088   4.989  17.685  0.00  0.00    +0.000 A 
ATOM      5  C   UNL     1       5.937   6.304  17.209  0.00  0.00    +0.000 A 
ATOM      6  C   UNL     1       6.826   7.314  17.595  0.00  0.00    +0.000 A 
ATOM      7  C   UNL     1       4.890   6.668  16.225  0.00  0.00    +0.000 C 
ATOM      8  O   UNL     1       5.261   7.071  15.123  0.00  0.00    +0.000 OA
ATOM      9  C   UNL     1       3.425   6.541  16.570  0.00  0.00    +0.000 C 
ATOM     10  C   UNL     1       3.077   6.226  18.007  0.00  0.00    +0.000 A 
ATOM     11  C   UNL     1       2.551   7.247  18.819  0.00  0.00    +0.000 A 
ATOM     12  C   UNL     1       2.186   6.995  20.141  0.00  0.00    +0.000 A 
ATOM     13  C   UNL     1       2.352   5.723  20.676  0.00  0.00    +0.000 A 
ATOM     14  C   UNL     1       2.880   4.703  19.888  0.00  0.00    +0.000 A 
ATOM     15  C   UNL     1       3.245   4.935  18.550  0.00  0.00    +0.000 A 
ATOM     16  C   UNL     1       3.772   3.778  17.733  0.00  0.00    +0.000 C 
ATOM     17  C   UNL     1       5.212   3.861  17.201  0.00  0.00    +0.000 C 
ENDROOT
BRANCH   1  19
ATOM     18  C   UNL     1       8.377   9.312  18.106  0.00  0.00    +0.000 C 
ATOM     19  O   UNL     1       8.676   8.094  18.780  0.00  0.00    +0.000 OA
ENDBRANCH   1  19
TORSDOF 1
ENDMDL
MODEL 9
REMARK VINA RESULT:      -6.2      1.740      2.685
REMARK  Name = 
REMARK  2 active torsions:
REMARK  status: ('A' for Active; 'I' for Inactive)
REMARK    1  A    between atoms: C_1  and  O_2
REMARK    2  A    between atoms: O_2  and  C_3
REMARK                            x       y       z     vdW  Elec       q    Type
REMARK                         _______ _______ _______ _____ _____    ______ ____
ROOT
ATOM      1  C   UNL     1       4.615   6.529  16.443  0.00  0.00    +0.000 A 
ATOM      2  C   UNL     1       3.485   7.263  16.797  0.00  0.00    +0.000 A 
ATOM      3  C   UNL     1       2.925   7.130  18.074  0.00  0.00    +0.000 A 
ATOM      4  C   UNL     1       3.488   6.262  19.019  0.00  0.00    +0.000 A 
ATOM      5  C   UNL     1       4.607   5.501  18.636  0.00  0.00    +0.000 A 
ATOM      6  C   UNL     1       5.167   5.638  17.360  0.00  0.00    +0.000 A 
ATOM      7  C   UNL     1       5.292   4.583  19.576  0.00  0.00    +0.000 C 
ATOM      8  O   UNL     1       6.459   4.837  19.871  0.00  0.00    +0.000 OA
ATOM      9  C   UNL     1       4.573   3.384  20.149  0.00  0.00    +0.000 C 
ATOM     10  C   UNL     1       3.215   3.051  19.575  0.00  0.00    +0.000 A 
ATOM     11  C   UNL     1       3.092   1.944  18.714  0.00  0.00    +0.000 A 
ATOM     12  C   UNL     1       1.855   1.581  18.186  0.00  0.00    +0.000 A 
ATOM     13  C   UNL     1       0.722   2.323  18.498  0.00  0.00    +0.000 A 
ATOM     14  C   UNL     1       0.828   3.427  19.341  0.00  0.00    +0.000 A 
ATOM     15  C   UNL     1       2.065   3.804  19.892  0.00  0.00    +0.000 A 
ATOM     16  C   UNL     1       2.109   4.985  20.833  0.00  0.00    +0.000 C 
ATOM     17  C   UNL     1       2.934   6.214  20.420  0.00  0.00    +0.000 C 
ENDROOT
BRANCH   1  19
ATOM     18  C   UNL     1       5.852   5.366  14.800  0.00  0.00    +0.000 C 
ATOM     19  O   UNL     1       5.240   6.578  15.228  0.00  0.00    +0.000 OA
ENDBRANCH   1  19
TORSDOF 1
ENDMDL
