MODEL 1
REMARK VINA RESULT:      -8.0      0.000      0.000
REMARK  Name = 
REMARK  2 active torsions:
REMARK  status: ('A' for Active; 'I' for Inactive)
REMARK    1  A    between atoms: C_6  and  C_7
REMARK    2  A    between atoms: C_13  and  C_14
REMARK                            x       y       z     vdW  Elec       q    Type
REMARK                         _______ _______ _______ _____ _____    ______ ____
ROOT
ATOM      1  C   UNL     1       2.340   6.633  19.668  0.00  0.00    +0.000 A 
ATOM      2  C   UNL     1       2.070   5.473  20.372  0.00  0.00    +0.000 A 
ATOM      3  S   UNL     1       2.887   4.145  19.659  0.00  0.00    +0.000 S 
ATOM      4  C   UNL     1       3.566   5.210  18.516  0.00  0.00    +0.000 A 
ATOM      5  N   UNL     1       4.401   4.712  17.509  0.00  0.00    +0.000 N 
ATOM      6  C   UNL     1       5.107   5.439  16.564  0.00  0.00    +0.000 A 
ATOM      7  C   UNL     1       5.742   4.522  15.762  0.00  0.00    +0.000 A 
ATOM      8  C   UNL     1       5.368   3.270  16.271  0.00  0.00    +0.000 A 
ATOM      9  N   UNL     1       4.578   3.374  17.343  0.00  0.00    +0.000 NA
ATOM     10  N   UNL     1       3.258   6.487  18.633  0.00  0.00    +0.000 NA
ENDROOT
BRANCH   1  16
ATOM     11 CL   UNL     1       0.008   9.740  23.089  0.00  0.00    +0.000 Cl
ATOM     12  C   UNL     1       0.632   9.424  21.516  0.00  0.00    +0.000 A 
ATOM     13  C   UNL     1       0.568  10.417  20.540  0.00  0.00    +0.000 A 
ATOM     14  C   UNL     1       1.076  10.168  19.268  0.00  0.00    +0.000 A 
ATOM     15  C   UNL     1       1.645   8.925  18.977  0.00  0.00    +0.000 A 
ATOM     16  C   UNL     1       1.711   7.918  19.955  0.00  0.00    +0.000 A 
ATOM     17  C   UNL     1       1.201   8.181  21.232  0.00  0.00    +0.000 A 
ENDBRANCH   1  16
BRANCH   7  18
ATOM     18  C   UNL     1       6.625   4.793  14.615  0.00  0.00    +0.000 A 
ATOM     19  N   UNL     1       6.480   4.294  13.406  0.00  0.00    +0.000 NA
ATOM     20  N   UNL     1       7.517   4.801  12.657  0.00  0.00    +0.000 NA
ATOM     21  N   UNL     1       8.292   5.587  13.392  0.00  0.00    +0.000 NA
ATOM     22  N   UNL     1       7.736   5.583  14.611  0.00  0.00    +0.000 N 
ATOM     23  H   UNL     1       8.164   6.106  15.362  0.00  0.00    +0.000 HD
ENDBRANCH   7  18
TORSDOF 2
ENDMDL
MODEL 2
REMARK VINA RESULT:      -7.8      1.275      1.641
REMARK  Name = 
REMARK  2 active torsions:
REMARK  status: ('A' for Active; 'I' for Inactive)
REMARK    1  A    between atoms: C_6  and  C_7
REMARK    2  A    between atoms: C_13  and  C_14
REMARK                            x       y       z     vdW  Elec       q    Type
REMARK                         _______ _______ _______ _____ _____    ______ ____
ROOT
ATOM      1  C   UNL     1       1.916   6.872  20.212  0.00  0.00    +0.000 A 
ATOM      2  C   UNL     1       1.487   5.717  20.842  0.00  0.00    +0.000 A 
ATOM      3  S   UNL     1       2.175   4.341  20.086  0.00  0.00    +0.000 S 
ATOM      4  C   UNL     1       3.018   5.375  19.028  0.00  0.00    +0.000 A 
ATOM      5  N   UNL     1       3.831   4.835  18.025  0.00  0.00    +0.000 N 
ATOM      6  C   UNL     1       4.653   5.522  17.146  0.00  0.00    +0.000 A 
ATOM      7  C   UNL     1       5.212   4.580  16.318  0.00  0.00    +0.000 A 
ATOM      8  C   UNL     1       4.677   3.356  16.744  0.00  0.00    +0.000 A 
ATOM      9  N   UNL     1       3.861   3.495  17.792  0.00  0.00    +0.000 NA
ATOM     10  N   UNL     1       2.853   6.672  19.203  0.00  0.00    +0.000 NA
ENDROOT
BRANCH   1  16
ATOM     11 CL   UNL     1       0.583  11.613  18.617  0.00  0.00    +0.000 Cl
ATOM     12  C   UNL     1       0.769  10.432  19.856  0.00  0.00    +0.000 A 
ATOM     13  C   UNL     1       0.408  10.749  21.165  0.00  0.00    +0.000 A 
ATOM     14  C   UNL     1       0.551   9.796  22.170  0.00  0.00    +0.000 A 
ATOM     15  C   UNL     1       1.057   8.531  21.862  0.00  0.00    +0.000 A 
ATOM     16  C   UNL     1       1.426   8.204  20.546  0.00  0.00    +0.000 A 
ATOM     17  C   UNL     1       1.273   9.169  19.542  0.00  0.00    +0.000 A 
ENDBRANCH   1  16
BRANCH   7  18
ATOM     18  C   UNL     1       6.166   4.803  15.219  0.00  0.00    +0.000 A 
ATOM     19  N   UNL     1       6.067   4.300  14.007  0.00  0.00    +0.000 NA
ATOM     20  N   UNL     1       7.163   4.757  13.313  0.00  0.00    +0.000 NA
ATOM     21  N   UNL     1       7.929   5.518  14.083  0.00  0.00    +0.000 NA
ATOM     22  N   UNL     1       7.307   5.547  15.269  0.00  0.00    +0.000 N 
ATOM     23  H   UNL     1       7.716   6.060  16.039  0.00  0.00    +0.000 HD
ENDBRANCH   7  18
TORSDOF 2
ENDMDL
MODEL 3
REMARK VINA RESULT:      -7.7      1.146      1.620
REMARK  Name = 
REMARK  2 active torsions:
REMARK  status: ('A' for Active; 'I' for Inactive)
REMARK    1  A    between atoms: C_6  and  C_7
REMARK    2  A    between atoms: C_13  and  C_14
REMARK                            x       y       z     vdW  Elec       q    Type
REMARK                         _______ _______ _______ _____ _____    ______ ____
ROOT
ATOM      1  C   UNL     1       1.615   7.831  20.084  0.00  0.00    +0.000 A 
ATOM      2  C   UNL     1       1.254   6.817  20.953  0.00  0.00    +0.000 A 
ATOM      3  S   UNL     1       2.026   5.352  20.506  0.00  0.00    +0.000 S 
ATOM      4  C   UNL     1       2.807   6.182  19.239  0.00  0.00    +0.000 A 
ATOM      5  N   UNL     1       3.653   5.486  18.368  0.00  0.00    +0.000 N 
ATOM      6  C   UNL     1       4.434   6.014  17.352  0.00  0.00    +0.000 A 
ATOM      7  C   UNL     1       5.051   4.949  16.742  0.00  0.00    +0.000 A 
ATOM      8  C   UNL     1       4.589   3.817  17.428  0.00  0.00    +0.000 A 
ATOM      9  N   UNL     1       3.764   4.132  18.430  0.00  0.00    +0.000 NA
ATOM     10  N   UNL     1       2.564   7.473  19.132  0.00  0.00    +0.000 NA
ENDROOT
BRANCH   1  16
ATOM     11 CL   UNL     1      -0.835  11.501  22.792  0.00  0.00    +0.000 Cl
ATOM     12  C   UNL     1      -0.082  10.936  21.350  0.00  0.00    +0.000 A 
ATOM     13  C   UNL     1       0.014  11.784  20.249  0.00  0.00    +0.000 A 
ATOM     14  C   UNL     1       0.627  11.334  19.082  0.00  0.00    +0.000 A 
ATOM     15  C   UNL     1       1.140  10.036  19.023  0.00  0.00    +0.000 A 
ATOM     16  C   UNL     1       1.045   9.173  20.128  0.00  0.00    +0.000 A 
ATOM     17  C   UNL     1       0.430   9.638  21.297  0.00  0.00    +0.000 A 
ENDBRANCH   1  16
BRANCH   7  18
ATOM     18  C   UNL     1       5.992   4.985  15.610  0.00  0.00    +0.000 A 
ATOM     19  N   UNL     1       7.144   5.622  15.594  0.00  0.00    +0.000 NA
ATOM     20  N   UNL     1       7.688   5.395  14.351  0.00  0.00    +0.000 NA
ATOM     21  N   UNL     1       6.884   4.642  13.611  0.00  0.00    +0.000 NA
ATOM     22  N   UNL     1       5.829   4.387  14.396  0.00  0.00    +0.000 N 
ATOM     23  H   UNL     1       5.060   3.835  14.041  0.00  0.00    +0.000 HD
ENDBRANCH   7  18
TORSDOF 2
ENDMDL
MODEL 4
REMARK VINA RESULT:      -7.5      2.213      2.955
REMARK  Name = 
REMARK  2 active torsions:
REMARK  status: ('A' for Active; 'I' for Inactive)
REMARK    1  A    between atoms: C_6  and  C_7
REMARK    2  A    between atoms: C_13  and  C_14
REMARK                            x       y       z     vdW  Elec       q    Type
REMARK                         _______ _______ _______ _____ _____    ______ ____
ROOT
ATOM      1  C   UNL     1       1.271   9.203  19.296  0.00  0.00    +0.000 A 
ATOM      2  C   UNL     1       1.004   8.519  20.468  0.00  0.00    +0.000 A 
ATOM      3  S   UNL     1       1.885   7.049  20.509  0.00  0.00    +0.000 S 
ATOM      4  C   UNL     1       2.582   7.456  19.008  0.00  0.00    +0.000 A 
ATOM      5  N   UNL     1       3.471   6.570  18.389  0.00  0.00    +0.000 N 
ATOM      6  C   UNL     1       4.196   6.779  17.227  0.00  0.00    +0.000 A 
ATOM      7  C   UNL     1       4.889   5.618  16.986  0.00  0.00    +0.000 A 
ATOM      8  C   UNL     1       4.528   4.754  18.030  0.00  0.00    +0.000 A 
ATOM      9  N   UNL     1       3.692   5.328  18.898  0.00  0.00    +0.000 NA
ATOM     10  N   UNL     1       2.235   8.615  18.484  0.00  0.00    +0.000 NA
ENDROOT
BRANCH   1  16
ATOM     11 CL   UNL     1      -3.050  11.546  17.672  0.00  0.00    +0.000 Cl
ATOM     12  C   UNL     1      -1.402  11.591  18.168  0.00  0.00    +0.000 A 
ATOM     13  C   UNL     1      -0.739  12.816  18.235  0.00  0.00    +0.000 A 
ATOM     14  C   UNL     1       0.592  12.858  18.641  0.00  0.00    +0.000 A 
ATOM     15  C   UNL     1       1.255  11.675  18.976  0.00  0.00    +0.000 A 
ATOM     16  C   UNL     1       0.595  10.436  18.908  0.00  0.00    +0.000 A 
ATOM     17  C   UNL     1      -0.745  10.406  18.503  0.00  0.00    +0.000 A 
ENDBRANCH   1  16
BRANCH   7  18
ATOM     18  C   UNL     1       5.811   5.337  15.873  0.00  0.00    +0.000 A 
ATOM     19  N   UNL     1       5.553   4.556  14.846  0.00  0.00    +0.000 NA
ATOM     20  N   UNL     1       6.681   4.576  14.058  0.00  0.00    +0.000 NA
ATOM     21  N   UNL     1       7.619   5.346  14.593  0.00  0.00    +0.000 NA
ATOM     22  N   UNL     1       7.077   5.821  15.722  0.00  0.00    +0.000 N 
ATOM     23  H   UNL     1       7.617   6.429  16.322  0.00  0.00    +0.000 HD
ENDBRANCH   7  18
TORSDOF 2
ENDMDL
MODEL 5
REMARK VINA RESULT:      -7.4      4.176      8.136
REMARK  Name = 
REMARK  2 active torsions:
REMARK  status: ('A' for Active; 'I' for Inactive)
REMARK    1  A    between atoms: C_6  and  C_7
REMARK    2  A    between atoms: C_13  and  C_14
REMARK                            x       y       z     vdW  Elec       q    Type
REMARK                         _______ _______ _______ _____ _____    ______ ____
ROOT
ATOM      1  C   UNL     1       3.932   5.389  18.669  0.00  0.00    +0.000 A 
ATOM      2  C   UNL     1       3.436   4.589  19.684  0.00  0.00    +0.000 A 
ATOM      3  S   UNL     1       2.246   5.439  20.578  0.00  0.00    +0.000 S 
ATOM      4  C   UNL     1       2.443   6.767  19.530  0.00  0.00    +0.000 A 
ATOM      5  N   UNL     1       1.710   7.940  19.744  0.00  0.00    +0.000 N 
ATOM      6  C   UNL     1       1.676   9.071  18.943  0.00  0.00    +0.000 A 
ATOM      7  C   UNL     1       0.861   9.974  19.579  0.00  0.00    +0.000 A 
ATOM      8  C   UNL     1       0.450   9.331  20.755  0.00  0.00    +0.000 A 
ATOM      9  N   UNL     1       0.936   8.091  20.852  0.00  0.00    +0.000 NA
ATOM     10  N   UNL     1       3.308   6.626  18.544  0.00  0.00    +0.000 NA
ENDROOT
BRANCH   1  16
ATOM     11 CL   UNL     1       5.559   4.042  13.943  0.00  0.00    +0.000 Cl
ATOM     12  C   UNL     1       5.858   4.382  15.604  0.00  0.00    +0.000 A 
ATOM     13  C   UNL     1       7.162   4.322  16.092  0.00  0.00    +0.000 A 
ATOM     14  C   UNL     1       7.410   4.601  17.433  0.00  0.00    +0.000 A 
ATOM     15  C   UNL     1       6.352   4.938  18.281  0.00  0.00    +0.000 A 
ATOM     16  C   UNL     1       5.034   4.998  17.798  0.00  0.00    +0.000 A 
ATOM     17  C   UNL     1       4.796   4.720  16.446  0.00  0.00    +0.000 A 
ENDBRANCH   1  16
BRANCH   7  18
ATOM     18  C   UNL     1       0.496  11.327  19.127  0.00  0.00    +0.000 A 
ATOM     19  N   UNL     1       1.126  12.437  19.452  0.00  0.00    +0.000 NA
ATOM     20  N   UNL     1       0.453  13.456  18.819  0.00  0.00    +0.000 NA
ATOM     21  N   UNL     1      -0.576  12.988  18.127  0.00  0.00    +0.000 NA
ATOM     22  N   UNL     1      -0.548  11.662  18.318  0.00  0.00    +0.000 N 
ATOM     23  H   UNL     1      -1.257  11.078  17.896  0.00  0.00    +0.000 HD
ENDBRANCH   7  18
TORSDOF 2
ENDMDL
MODEL 6
REMARK VINA RESULT:      -7.4      2.223      3.089
REMARK  Name = 
REMARK  2 active torsions:
REMARK  status: ('A' for Active; 'I' for Inactive)
REMARK    1  A    between atoms: C_6  and  C_7
REMARK    2  A    between atoms: C_13  and  C_14
REMARK                            x       y       z     vdW  Elec       q    Type
REMARK                         _______ _______ _______ _____ _____    ______ ____
ROOT
ATOM      1  C   UNL     1       1.239   9.192  19.364  0.00  0.00    +0.000 A 
ATOM      2  C   UNL     1       0.940   8.479  20.512  0.00  0.00    +0.000 A 
ATOM      3  S   UNL     1       1.811   7.002  20.535  0.00  0.00    +0.000 S 
ATOM      4  C   UNL     1       2.545   7.443  19.062  0.00  0.00    +0.000 A 
ATOM      5  N   UNL     1       3.443   6.567  18.441  0.00  0.00    +0.000 N 
ATOM      6  C   UNL     1       4.196   6.801  17.301  0.00  0.00    +0.000 A 
ATOM      7  C   UNL     1       4.887   5.641  17.046  0.00  0.00    +0.000 A 
ATOM      8  C   UNL     1       4.496   4.753  18.058  0.00  0.00    +0.000 A 
ATOM      9  N   UNL     1       3.644   5.310  18.922  0.00  0.00    +0.000 NA
ATOM     10  N   UNL     1       2.218   8.617  18.560  0.00  0.00    +0.000 NA
ENDROOT
BRANCH   1  16
ATOM     11 CL   UNL     1       1.560  14.308  18.646  0.00  0.00    +0.000 Cl
ATOM     12  C   UNL     1       0.675  12.832  18.621  0.00  0.00    +0.000 A 
ATOM     13  C   UNL     1      -0.655  12.836  18.205  0.00  0.00    +0.000 A 
ATOM     14  C   UNL     1      -1.374  11.643  18.178  0.00  0.00    +0.000 A 
ATOM     15  C   UNL     1      -0.759  10.452  18.570  0.00  0.00    +0.000 A 
ATOM     16  C   UNL     1       0.581  10.439  18.994  0.00  0.00    +0.000 A 
ATOM     17  C   UNL     1       1.296  11.643  19.012  0.00  0.00    +0.000 A 
ENDBRANCH   1  16
BRANCH   7  18
ATOM     18  C   UNL     1       5.832   5.383  15.947  0.00  0.00    +0.000 A 
ATOM     19  N   UNL     1       7.071   5.824  15.886  0.00  0.00    +0.000 NA
ATOM     20  N   UNL     1       7.584   5.356  14.699  0.00  0.00    +0.000 NA
ATOM     21  N   UNL     1       6.678   4.650  14.035  0.00  0.00    +0.000 NA
ATOM     22  N   UNL     1       5.588   4.667  14.813  0.00  0.00    +0.000 N 
ATOM     23  H   UNL     1       4.744   4.201  14.508  0.00  0.00    +0.000 HD
ENDBRANCH   7  18
TORSDOF 2
ENDMDL
MODEL 7
REMARK VINA RESULT:      -7.4      3.159      4.446
REMARK  Name = 
REMARK  2 active torsions:
REMARK  status: ('A' for Active; 'I' for Inactive)
REMARK    1  A    between atoms: C_6  and  C_7
REMARK    2  A    between atoms: C_13  and  C_14
REMARK                            x       y       z     vdW  Elec       q    Type
REMARK                         _______ _______ _______ _____ _____    ______ ____
ROOT
ATOM      1  C   UNL     1       3.915   5.654  17.790  0.00  0.00    +0.000 A 
ATOM      2  C   UNL     1       4.661   6.805  17.979  0.00  0.00    +0.000 A 
ATOM      3  S   UNL     1       5.853   6.944  16.755  0.00  0.00    +0.000 S 
ATOM      4  C   UNL     1       5.261   5.511  16.051  0.00  0.00    +0.000 A 
ATOM      5  N   UNL     1       5.879   4.988  14.910  0.00  0.00    +0.000 N 
ATOM      6  C   UNL     1       5.476   3.895  14.159  0.00  0.00    +0.000 A 
ATOM      7  C   UNL     1       6.415   3.733  13.170  0.00  0.00    +0.000 A 
ATOM      8  C   UNL     1       7.356   4.749  13.391  0.00  0.00    +0.000 A 
ATOM      9  N   UNL     1       7.028   5.529  14.423  0.00  0.00    +0.000 NA
ATOM     10  N   UNL     1       4.225   4.942  16.636  0.00  0.00    +0.000 NA
ENDROOT
BRANCH   1  16
ATOM     11 CL   UNL     1       0.355   2.107  19.032  0.00  0.00    +0.000 Cl
ATOM     12  C   UNL     1       1.228   3.553  19.366  0.00  0.00    +0.000 A 
ATOM     13  C   UNL     1       0.980   4.246  20.550  0.00  0.00    +0.000 A 
ATOM     14  C   UNL     1       1.687   5.413  20.827  0.00  0.00    +0.000 A 
ATOM     15  C   UNL     1       2.639   5.882  19.919  0.00  0.00    +0.000 A 
ATOM     16  C   UNL     1       2.894   5.191  18.722  0.00  0.00    +0.000 A 
ATOM     17  C   UNL     1       2.180   4.016  18.455  0.00  0.00    +0.000 A 
ENDBRANCH   1  16
BRANCH   7  18
ATOM     18  C   UNL     1       6.433   2.714  12.108  0.00  0.00    +0.000 A 
ATOM     19  N   UNL     1       5.373   2.133  11.587  0.00  0.00    +0.000 NA
ATOM     20  N   UNL     1       5.845   1.254  10.641  0.00  0.00    +0.000 NA
ATOM     21  N   UNL     1       7.170   1.282  10.586  0.00  0.00    +0.000 NA
ATOM     22  N   UNL     1       7.536   2.192  11.498  0.00  0.00    +0.000 N 
ATOM     23  H   UNL     1       8.516   2.382  11.655  0.00  0.00    +0.000 HD
ENDBRANCH   7  18
TORSDOF 2
ENDMDL
MODEL 8
REMARK VINA RESULT:      -7.3      1.695      2.269
REMARK  Name = 
REMARK  2 active torsions:
REMARK  status: ('A' for Active; 'I' for Inactive)
REMARK    1  A    between atoms: C_6  and  C_7
REMARK    2  A    between atoms: C_13  and  C_14
REMARK                            x       y       z     vdW  Elec       q    Type
REMARK                         _______ _______ _______ _____ _____    ______ ____
ROOT
ATOM      1  C   UNL     1       1.654   7.955  19.891  0.00  0.00    +0.000 A 
ATOM      2  C   UNL     1       1.320   6.977  20.812  0.00  0.00    +0.000 A 
ATOM      3  S   UNL     1       2.108   5.505  20.424  0.00  0.00    +0.000 S 
ATOM      4  C   UNL     1       2.860   6.285  19.109  0.00  0.00    +0.000 A 
ATOM      5  N   UNL     1       3.706   5.562  18.260  0.00  0.00    +0.000 N 
ATOM      6  C   UNL     1       4.466   6.052  17.210  0.00  0.00    +0.000 A 
ATOM      7  C   UNL     1       5.091   4.969  16.642  0.00  0.00    +0.000 A 
ATOM      8  C   UNL     1       4.656   3.864  17.388  0.00  0.00    +0.000 A 
ATOM      9  N   UNL     1       3.839   4.214  18.384  0.00  0.00    +0.000 NA
ATOM     10  N   UNL     1       2.596   7.567  18.944  0.00  0.00    +0.000 NA
ENDROOT
BRANCH   1  16
ATOM     11 CL   UNL     1       1.787  12.824  18.139  0.00  0.00    +0.000 Cl
ATOM     12  C   UNL     1       1.063  11.575  19.077  0.00  0.00    +0.000 A 
ATOM     13  C   UNL     1      -0.108  11.840  19.784  0.00  0.00    +0.000 A 
ATOM     14  C   UNL     1      -0.701  10.832  20.540  0.00  0.00    +0.000 A 
ATOM     15  C   UNL     1      -0.118   9.564  20.586  0.00  0.00    +0.000 A 
ATOM     16  C   UNL     1       1.064   9.289  19.879  0.00  0.00    +0.000 A 
ATOM     17  C   UNL     1       1.649  10.309  19.118  0.00  0.00    +0.000 A 
ENDBRANCH   1  16
BRANCH   7  18
ATOM     18  C   UNL     1       6.017   4.965  15.498  0.00  0.00    +0.000 A 
ATOM     19  N   UNL     1       7.153   5.627  15.431  0.00  0.00    +0.000 NA
ATOM     20  N   UNL     1       7.687   5.345  14.196  0.00  0.00    +0.000 NA
ATOM     21  N   UNL     1       6.894   4.534  13.509  0.00  0.00    +0.000 NA
ATOM     22  N   UNL     1       5.854   4.297  14.321  0.00  0.00    +0.000 N 
ATOM     23  H   UNL     1       5.095   3.708  14.007  0.00  0.00    +0.000 HD
ENDBRANCH   7  18
TORSDOF 2
ENDMDL
MODEL 9
REMARK VINA RESULT:      -7.3      1.796      2.348
REMARK  Name = 
REMARK  2 active torsions:
REMARK  status: ('A' for Active; 'I' for Inactive)
REMARK    1  A    between atoms: C_6  and  C_7
REMARK    2  A    between atoms: C_13  and  C_14
REMARK                            x       y       z     vdW  Elec       q    Type
REMARK                         _______ _______ _______ _____ _____    ______ ____
ROOT
ATOM      1  C   UNL     1       1.451   8.244  19.996  0.00  0.00    +0.000 A 
ATOM      2  C   UNL     1       1.126   7.303  20.957  0.00  0.00    +0.000 A 
ATOM      3  S   UNL     1       1.936   5.826  20.636  0.00  0.00    +0.000 S 
ATOM      4  C   UNL     1       2.684   6.559  19.292  0.00  0.00    +0.000 A 
ATOM      5  N   UNL     1       3.544   5.812  18.479  0.00  0.00    +0.000 N 
ATOM      6  C   UNL     1       4.303   6.267  17.413  0.00  0.00    +0.000 A 
ATOM      7  C   UNL     1       4.945   5.169  16.894  0.00  0.00    +0.000 A 
ATOM      8  C   UNL     1       4.521   4.091  17.685  0.00  0.00    +0.000 A 
ATOM      9  N   UNL     1       3.695   4.472  18.662  0.00  0.00    +0.000 NA
ATOM     10  N   UNL     1       2.403   7.829  19.071  0.00  0.00    +0.000 NA
ENDROOT
BRANCH   1  16
ATOM     11 CL   UNL     1      -1.692  11.529  17.520  0.00  0.00    +0.000 Cl
ATOM     12  C   UNL     1      -0.631  11.143  18.820  0.00  0.00    +0.000 A 
ATOM     13  C   UNL     1      -0.396  12.088  19.817  0.00  0.00    +0.000 A 
ATOM     14  C   UNL     1       0.457  11.779  20.874  0.00  0.00    +0.000 A 
ATOM     15  C   UNL     1       1.072  10.525  20.926  0.00  0.00    +0.000 A 
ATOM     16  C   UNL     1       0.843   9.568  19.924  0.00  0.00    +0.000 A 
ATOM     17  C   UNL     1      -0.020   9.888  18.868  0.00  0.00    +0.000 A 
ENDBRANCH   1  16
BRANCH   7  18
ATOM     18  C   UNL     1       5.877   5.129  15.755  0.00  0.00    +0.000 A 
ATOM     19  N   UNL     1       5.661   4.512  14.613  0.00  0.00    +0.000 NA
ATOM     20  N   UNL     1       6.781   4.727  13.845  0.00  0.00    +0.000 NA
ATOM     21  N   UNL     1       7.675   5.453  14.503  0.00  0.00    +0.000 NA
ATOM     22  N   UNL     1       7.111   5.704  15.692  0.00  0.00    +0.000 N 
ATOM     23  H   UNL     1       7.617   6.237  16.386  0.00  0.00    +0.000 HD
ENDBRANCH   7  18
TORSDOF 2
ENDMDL
