MODEL 1
REMARK VINA RESULT:      -8.5      0.000      0.000
REMARK  Name = 
REMARK  8 active torsions:
REMARK  status: ('A' for Active; 'I' for Inactive)
REMARK    1  A    between atoms: C_2  and  O_3
REMARK    2  A    between atoms: C_2  and  C_4
REMARK    3  A    between atoms: C_6  and  N_7
REMARK    4  A    between atoms: N_7  and  C_19
REMARK    5  A    between atoms: N_10  and  C_11
REMARK    6  A    between atoms: C_26  and  O_27
REMARK    7  A    between atoms: C_28  and  O_29
REMARK    8  A    between atoms: C_30  and  O_31
REMARK                            x       y       z     vdW  Elec       q    Type
REMARK                         _______ _______ _______ _____ _____    ______ ____
ROOT
ATOM      1  N   UNL     1       2.981   6.221  18.099  0.00  0.00    +0.000 N 
ATOM      2  C   UNL     1       2.709   7.598  18.170  0.00  0.00    +0.000 C 
ATOM      3  O   UNL     1       3.142   8.386  17.333  0.00  0.00    +0.000 OA
ATOM      4  N   UNL     1       1.923   7.995  19.233  0.00  0.00    +0.000 N 
ATOM      5  H   UNL     1       1.985   7.426  20.066  0.00  0.00    +0.000 HD
ENDROOT
BRANCH   4   6
ATOM      6  C   UNL     1       1.232   9.214  19.371  0.00  0.00    +0.000 A 
ATOM      7  C   UNL     1       0.951  10.064  18.299  0.00  0.00    +0.000 A 
ATOM      8  C   UNL     1       0.249  11.256  18.507  0.00  0.00    +0.000 A 
ATOM      9  C   UNL     1      -0.184  11.608  19.786  0.00  0.00    +0.000 A 
ATOM     10 CL   UNL     1      -1.023  13.105  19.973  0.00  0.00    +0.000 Cl
ATOM     11  C   UNL     1       0.069  10.750  20.859  0.00  0.00    +0.000 A 
ATOM     12 CL   UNL     1      -0.445  11.101  22.470  0.00  0.00    +0.000 Cl
ATOM     13  C   UNL     1       0.767   9.551  20.650  0.00  0.00    +0.000 A 
ENDBRANCH   4   6
BRANCH   1  14
ATOM     14  C   UNL     1       2.488   5.338  19.100  0.00  0.00    +0.000 A 
ATOM     15  C   UNL     1       1.492   4.409  18.750  0.00  0.00    +0.000 A 
ATOM     16  C   UNL     1       1.043   3.474  19.677  0.00  0.00    +0.000 A 
ATOM     17  C   UNL     1       1.554   3.492  20.976  0.00  0.00    +0.000 A 
ATOM     18 CL   UNL     1       0.986   2.353  22.124  0.00  0.00    +0.000 Cl
ATOM     19  C   UNL     1       2.521   4.432  21.339  0.00  0.00    +0.000 A 
ATOM     20  C   UNL     1       3.004   5.347  20.399  0.00  0.00    +0.000 A 
ENDBRANCH   1  14
BRANCH   1  23
ATOM     21  C   UNL     1       5.973   6.465  18.213  0.00  0.00    +0.000 C 
ATOM     22  O   UNL     1       5.128   6.513  17.031  0.00  0.00    +0.000 OA
ATOM     23  C   UNL     1       3.942   5.677  17.093  0.00  0.00    +0.000 C 
ATOM     24  C   UNL     1       4.478   4.222  17.255  0.00  0.00    +0.000 C 
ATOM     25  C   UNL     1       5.115   4.098  18.644  0.00  0.00    +0.000 C 
ATOM     26  C   UNL     1       6.326   5.055  18.710  0.00  0.00    +0.000 C 
BRANCH  21  28
ATOM     27  O   UNL     1       7.378   7.976  16.889  0.00  0.00    +0.000 OA
ATOM     28  C   UNL     1       7.234   7.266  17.870  0.00  0.00    +0.000 C 
BRANCH  28  29
ATOM     29  O   UNL     1       8.236   7.058  18.765  0.00  0.00    +0.000 OA
ATOM     30  H   UNL     1       9.034   6.754  18.278  0.00  0.00    +0.000 HD
ENDBRANCH  28  29
ENDBRANCH  21  28
BRANCH  24  31
ATOM     31  O   UNL     1       3.561   3.189  16.919  0.00  0.00    +0.000 OA
ATOM     32  H   UNL     1       2.677   3.595  16.780  0.00  0.00    +0.000 HD
ENDBRANCH  24  31
BRANCH  25  33
ATOM     33  O   UNL     1       5.522   2.762  18.951  0.00  0.00    +0.000 OA
ATOM     34  H   UNL     1       5.730   2.296  18.123  0.00  0.00    +0.000 HD
ENDBRANCH  25  33
BRANCH  26  35
ATOM     35  O   UNL     1       6.826   5.107  20.052  0.00  0.00    +0.000 OA
ATOM     36  H   UNL     1       7.798   5.094  20.044  0.00  0.00    +0.000 HD
ENDBRANCH  26  35
ENDBRANCH   1  23
TORSDOF 8
ENDMDL
MODEL 2
REMARK VINA RESULT:      -8.3      0.882      1.309
REMARK  Name = 
REMARK  8 active torsions:
REMARK  status: ('A' for Active; 'I' for Inactive)
REMARK    1  A    between atoms: C_2  and  O_3
REMARK    2  A    between atoms: C_2  and  C_4
REMARK    3  A    between atoms: C_6  and  N_7
REMARK    4  A    between atoms: N_7  and  C_19
REMARK    5  A    between atoms: N_10  and  C_11
REMARK    6  A    between atoms: C_26  and  O_27
REMARK    7  A    between atoms: C_28  and  O_29
REMARK    8  A    between atoms: C_30  and  O_31
REMARK                            x       y       z     vdW  Elec       q    Type
REMARK                         _______ _______ _______ _____ _____    ______ ____
ROOT
ATOM      1  N   UNL     1       3.074   6.333  17.920  0.00  0.00    +0.000 N 
ATOM      2  C   UNL     1       2.766   7.704  17.939  0.00  0.00    +0.000 C 
ATOM      3  O   UNL     1       3.210   8.477  17.094  0.00  0.00    +0.000 OA
ATOM      4  N   UNL     1       1.931   8.113  18.959  0.00  0.00    +0.000 N 
ATOM      5  H   UNL     1       1.976   7.572  19.812  0.00  0.00    +0.000 HD
ENDROOT
BRANCH   4   6
ATOM      6  C   UNL     1       1.206   9.318  19.034  0.00  0.00    +0.000 A 
ATOM      7  C   UNL     1       1.555  10.373  19.880  0.00  0.00    +0.000 A 
ATOM      8  C   UNL     1       0.796  11.548  19.895  0.00  0.00    +0.000 A 
ATOM      9  C   UNL     1      -0.315  11.683  19.060  0.00  0.00    +0.000 A 
ATOM     10 CL   UNL     1      -1.220  13.150  19.149  0.00  0.00    +0.000 Cl
ATOM     11  C   UNL     1      -0.654  10.643  18.191  0.00  0.00    +0.000 A 
ATOM     12 CL   UNL     1      -2.002  10.734  17.115  0.00  0.00    +0.000 Cl
ATOM     13  C   UNL     1       0.111   9.467  18.171  0.00  0.00    +0.000 A 
ENDBRANCH   4   6
BRANCH   1  14
ATOM     14  C   UNL     1       2.566   5.469  18.931  0.00  0.00    +0.000 A 
ATOM     15  C   UNL     1       1.597   4.514  18.576  0.00  0.00    +0.000 A 
ATOM     16  C   UNL     1       1.136   3.596  19.515  0.00  0.00    +0.000 A 
ATOM     17  C   UNL     1       1.607   3.658  20.827  0.00  0.00    +0.000 A 
ATOM     18 CL   UNL     1       1.024   2.540  21.989  0.00  0.00    +0.000 Cl
ATOM     19  C   UNL     1       2.547   4.624  21.193  0.00  0.00    +0.000 A 
ATOM     20  C   UNL     1       3.043   5.522  20.243  0.00  0.00    +0.000 A 
ENDBRANCH   1  14
BRANCH   1  23
ATOM     21  C   UNL     1       6.056   6.578  18.186  0.00  0.00    +0.000 C 
ATOM     22  O   UNL     1       5.273   6.619  16.962  0.00  0.00    +0.000 OA
ATOM     23  C   UNL     1       4.085   5.783  16.968  0.00  0.00    +0.000 C 
ATOM     24  C   UNL     1       4.612   4.330  17.165  0.00  0.00    +0.000 C 
ATOM     25  C   UNL     1       5.177   4.213  18.585  0.00  0.00    +0.000 C 
ATOM     26  C   UNL     1       6.383   5.170  18.708  0.00  0.00    +0.000 C 
BRANCH  21  28
ATOM     27  O   UNL     1       7.507   8.125  16.956  0.00  0.00    +0.000 OA
ATOM     28  C   UNL     1       7.333   7.376  17.903  0.00  0.00    +0.000 C 
BRANCH  28  29
ATOM     29  O   UNL     1       8.314   7.119  18.810  0.00  0.00    +0.000 OA
ATOM     30  H   UNL     1       8.551   6.167  18.754  0.00  0.00    +0.000 HD
ENDBRANCH  28  29
ENDBRANCH  21  28
BRANCH  24  31
ATOM     31  O   UNL     1       3.712   3.295  16.788  0.00  0.00    +0.000 OA
ATOM     32  H   UNL     1       2.812   3.540  17.099  0.00  0.00    +0.000 HD
ENDBRANCH  24  31
BRANCH  25  33
ATOM     33  O   UNL     1       5.567   2.878  18.920  0.00  0.00    +0.000 OA
ATOM     34  H   UNL     1       4.979   2.542  19.618  0.00  0.00    +0.000 HD
ENDBRANCH  25  33
BRANCH  26  35
ATOM     35  O   UNL     1       6.814   5.230  20.073  0.00  0.00    +0.000 OA
ATOM     36  H   UNL     1       7.656   5.714  20.134  0.00  0.00    +0.000 HD
ENDBRANCH  26  35
ENDBRANCH   1  23
TORSDOF 8
ENDMDL
MODEL 3
REMARK VINA RESULT:      -8.2      0.998      1.343
REMARK  Name = 
REMARK  8 active torsions:
REMARK  status: ('A' for Active; 'I' for Inactive)
REMARK    1  A    between atoms: C_2  and  O_3
REMARK    2  A    between atoms: C_2  and  C_4
REMARK    3  A    between atoms: C_6  and  N_7
REMARK    4  A    between atoms: N_7  and  C_19
REMARK    5  A    between atoms: N_10  and  C_11
REMARK    6  A    between atoms: C_26  and  O_27
REMARK    7  A    between atoms: C_28  and  O_29
REMARK    8  A    between atoms: C_30  and  O_31
REMARK                            x       y       z     vdW  Elec       q    Type
REMARK                         _______ _______ _______ _____ _____    ______ ____
ROOT
ATOM      1  N   UNL     1       3.191   6.288  17.831  0.00  0.00    +0.000 N 
ATOM      2  C   UNL     1       2.920   7.667  17.801  0.00  0.00    +0.000 C 
ATOM      3  O   UNL     1       3.405   8.402  16.944  0.00  0.00    +0.000 OA
ATOM      4  N   UNL     1       2.073   8.129  18.788  0.00  0.00    +0.000 N 
ATOM      5  H   UNL     1       2.083   7.613  19.657  0.00  0.00    +0.000 HD
ENDROOT
BRANCH   4   6
ATOM      6  C   UNL     1       1.379   9.354  18.809  0.00  0.00    +0.000 A 
ATOM      7  C   UNL     1       0.033   9.469  19.164  0.00  0.00    +0.000 A 
ATOM      8  C   UNL     1      -0.591  10.720  19.176  0.00  0.00    +0.000 A 
ATOM      9  C   UNL     1       0.124  11.871  18.838  0.00  0.00    +0.000 A 
ATOM     10 CL   UNL     1      -0.716  13.379  18.850  0.00  0.00    +0.000 Cl
ATOM     11  C   UNL     1       1.478  11.768  18.510  0.00  0.00    +0.000 A 
ATOM     12 CL   UNL     1       2.441  13.141  18.096  0.00  0.00    +0.000 Cl
ATOM     13  C   UNL     1       2.106  10.513  18.505  0.00  0.00    +0.000 A 
ENDBRANCH   4   6
BRANCH   1  14
ATOM     14  C   UNL     1       2.636   5.469  18.854  0.00  0.00    +0.000 A 
ATOM     15  C   UNL     1       1.650   4.530  18.505  0.00  0.00    +0.000 A 
ATOM     16  C   UNL     1       1.142   3.654  19.459  0.00  0.00    +0.000 A 
ATOM     17  C   UNL     1       1.584   3.742  20.780  0.00  0.00    +0.000 A 
ATOM     18 CL   UNL     1       0.944   2.677  21.959  0.00  0.00    +0.000 Cl
ATOM     19  C   UNL     1       2.541   4.694  21.139  0.00  0.00    +0.000 A 
ATOM     20  C   UNL     1       3.083   5.549  20.175  0.00  0.00    +0.000 A 
ENDBRANCH   1  14
BRANCH   1  23
ATOM     21  C   UNL     1       6.172   6.504  18.134  0.00  0.00    +0.000 C 
ATOM     22  O   UNL     1       5.409   6.502  16.897  0.00  0.00    +0.000 OA
ATOM     23  C   UNL     1       4.209   5.684  16.921  0.00  0.00    +0.000 C 
ATOM     24  C   UNL     1       4.712   4.233  17.190  0.00  0.00    +0.000 C 
ATOM     25  C   UNL     1       5.252   4.172  18.623  0.00  0.00    +0.000 C 
ATOM     26  C   UNL     1       6.470   5.116  18.723  0.00  0.00    +0.000 C 
BRANCH  21  28
ATOM     27  O   UNL     1       7.706   7.887  16.813  0.00  0.00    +0.000 OA
ATOM     28  C   UNL     1       7.465   7.271  17.838  0.00  0.00    +0.000 C 
BRANCH  28  29
ATOM     29  O   UNL     1       8.377   7.152  18.840  0.00  0.00    +0.000 OA
ATOM     30  H   UNL     1       8.488   6.198  19.051  0.00  0.00    +0.000 HD
ENDBRANCH  28  29
ENDBRANCH  21  28
BRANCH  24  31
ATOM     31  O   UNL     1       3.803   3.195  16.844  0.00  0.00    +0.000 OA
ATOM     32  H   UNL     1       4.209   2.335  17.092  0.00  0.00    +0.000 HD
ENDBRANCH  24  31
BRANCH  25  33
ATOM     33  O   UNL     1       5.618   2.847  19.022  0.00  0.00    +0.000 OA
ATOM     34  H   UNL     1       4.866   2.250  18.867  0.00  0.00    +0.000 HD
ENDBRANCH  25  33
BRANCH  26  35
ATOM     35  O   UNL     1       6.881   5.230  20.092  0.00  0.00    +0.000 OA
ATOM     36  H   UNL     1       7.746   4.804  20.215  0.00  0.00    +0.000 HD
ENDBRANCH  26  35
ENDBRANCH   1  23
TORSDOF 8
ENDMDL
MODEL 4
REMARK VINA RESULT:      -8.0      3.034      4.888
REMARK  Name = 
REMARK  8 active torsions:
REMARK  status: ('A' for Active; 'I' for Inactive)
REMARK    1  A    between atoms: C_2  and  O_3
REMARK    2  A    between atoms: C_2  and  C_4
REMARK    3  A    between atoms: C_6  and  N_7
REMARK    4  A    between atoms: N_7  and  C_19
REMARK    5  A    between atoms: N_10  and  C_11
REMARK    6  A    between atoms: C_26  and  O_27
REMARK    7  A    between atoms: C_28  and  O_29
REMARK    8  A    between atoms: C_30  and  O_31
REMARK                            x       y       z     vdW  Elec       q    Type
REMARK                         _______ _______ _______ _____ _____    ______ ____
ROOT
ATOM      1  N   UNL     1       3.227   3.908  17.898  0.00  0.00    +0.000 N 
ATOM      2  C   UNL     1       2.367   4.954  18.271  0.00  0.00    +0.000 C 
ATOM      3  O   UNL     1       1.334   4.747  18.903  0.00  0.00    +0.000 OA
ATOM      4  N   UNL     1       2.764   6.218  17.886  0.00  0.00    +0.000 N 
ATOM      5  H   UNL     1       3.323   6.270  17.045  0.00  0.00    +0.000 HD
ENDROOT
BRANCH   4   6
ATOM      6  C   UNL     1       2.297   7.447  18.388  0.00  0.00    +0.000 A 
ATOM      7  C   UNL     1       2.080   8.572  17.589  0.00  0.00    +0.000 A 
ATOM      8  C   UNL     1       1.601   9.759  18.152  0.00  0.00    +0.000 A 
ATOM      9  C   UNL     1       1.330   9.834  19.520  0.00  0.00    +0.000 A 
ATOM     10 CL   UNL     1       0.765  11.338  20.152  0.00  0.00    +0.000 Cl
ATOM     11  C   UNL     1       1.517   8.705  20.321  0.00  0.00    +0.000 A 
ATOM     12 CL   UNL     1       1.190   8.706  22.017  0.00  0.00    +0.000 Cl
ATOM     13  C   UNL     1       1.990   7.512  19.755  0.00  0.00    +0.000 A 
ENDBRANCH   4   6
BRANCH   1  14
ATOM     14  C   UNL     1       4.402   4.178  17.141  0.00  0.00    +0.000 A 
ATOM     15  C   UNL     1       4.351   4.035  15.743  0.00  0.00    +0.000 A 
ATOM     16  C   UNL     1       5.451   4.370  14.960  0.00  0.00    +0.000 A 
ATOM     17  C   UNL     1       6.627   4.805  15.574  0.00  0.00    +0.000 A 
ATOM     18 CL   UNL     1       7.989   5.198  14.611  0.00  0.00    +0.000 Cl
ATOM     19  C   UNL     1       6.694   4.919  16.964  0.00  0.00    +0.000 A 
ATOM     20  C   UNL     1       5.577   4.623  17.752  0.00  0.00    +0.000 A 
ENDBRANCH   1  14
BRANCH   1  23
ATOM     21  C   UNL     1       4.117   2.172  20.183  0.00  0.00    +0.000 C 
ATOM     22  O   UNL     1       3.910   1.773  18.800  0.00  0.00    +0.000 OA
ATOM     23  C   UNL     1       2.843   2.480  18.113  0.00  0.00    +0.000 C 
ATOM     24  C   UNL     1       1.551   2.148  18.919  0.00  0.00    +0.000 C 
ATOM     25  C   UNL     1       1.651   2.831  20.287  0.00  0.00    +0.000 C 
ATOM     26  C   UNL     1       2.848   2.219  21.049  0.00  0.00    +0.000 C 
BRANCH  21  28
ATOM     27  O   UNL     1       5.656   1.273  21.866  0.00  0.00    +0.000 OA
ATOM     28  C   UNL     1       5.147   1.196  20.760  0.00  0.00    +0.000 C 
BRANCH  28  29
ATOM     29  O   UNL     1       5.498   0.230  19.870  0.00  0.00    +0.000 OA
ATOM     30  H   UNL     1       6.288   0.535  19.370  0.00  0.00    +0.000 HD
ENDBRANCH  28  29
ENDBRANCH  21  28
BRANCH  24  31
ATOM     31  O   UNL     1       0.326   2.361  18.228  0.00  0.00    +0.000 OA
ATOM     32  H   UNL     1      -0.072   3.197  18.556  0.00  0.00    +0.000 HD
ENDBRANCH  24  31
BRANCH  25  33
ATOM     33  O   UNL     1       0.454   2.702  21.061  0.00  0.00    +0.000 OA
ATOM     34  H   UNL     1       0.359   3.486  21.629  0.00  0.00    +0.000 HD
ENDBRANCH  25  33
BRANCH  26  35
ATOM     35  O   UNL     1       3.088   2.964  22.249  0.00  0.00    +0.000 OA
ATOM     36  H   UNL     1       3.894   3.498  22.152  0.00  0.00    +0.000 HD
ENDBRANCH  26  35
ENDBRANCH   1  23
TORSDOF 8
ENDMDL
MODEL 5
REMARK VINA RESULT:      -7.9      0.812      1.205
REMARK  Name = 
REMARK  8 active torsions:
REMARK  status: ('A' for Active; 'I' for Inactive)
REMARK    1  A    between atoms: C_2  and  O_3
REMARK    2  A    between atoms: C_2  and  C_4
REMARK    3  A    between atoms: C_6  and  N_7
REMARK    4  A    between atoms: N_7  and  C_19
REMARK    5  A    between atoms: N_10  and  C_11
REMARK    6  A    between atoms: C_26  and  O_27
REMARK    7  A    between atoms: C_28  and  O_29
REMARK    8  A    between atoms: C_30  and  O_31
REMARK                            x       y       z     vdW  Elec       q    Type
REMARK                         _______ _______ _______ _____ _____    ______ ____
ROOT
ATOM      1  N   UNL     1       3.247   6.372  17.695  0.00  0.00    +0.000 N 
ATOM      2  C   UNL     1       2.872   7.726  17.726  0.00  0.00    +0.000 C 
ATOM      3  O   UNL     1       3.323   8.539  16.923  0.00  0.00    +0.000 OA
ATOM      4  N   UNL     1       1.966   8.071  18.708  0.00  0.00    +0.000 N 
ATOM      5  H   UNL     1       1.992   7.513  19.550  0.00  0.00    +0.000 HD
ENDROOT
BRANCH   4   6
ATOM      6  C   UNL     1       1.181   9.238  18.769  0.00  0.00    +0.000 A 
ATOM      7  C   UNL     1       0.036   9.436  17.994  0.00  0.00    +0.000 A 
ATOM      8  C   UNL     1      -0.705  10.616  18.114  0.00  0.00    +0.000 A 
ATOM      9  C   UNL     1      -0.313  11.608  19.015  0.00  0.00    +0.000 A 
ATOM     10 CL   UNL     1      -1.260  13.049  19.094  0.00  0.00    +0.000 Cl
ATOM     11  C   UNL     1       0.814  11.406  19.815  0.00  0.00    +0.000 A 
ATOM     12 CL   UNL     1       1.359  12.574  20.965  0.00  0.00    +0.000 Cl
ATOM     13  C   UNL     1       1.554  10.219  19.699  0.00  0.00    +0.000 A 
ENDBRANCH   4   6
BRANCH   1  14
ATOM     14  C   UNL     1       2.728   5.461  18.658  0.00  0.00    +0.000 A 
ATOM     15  C   UNL     1       3.185   5.550  19.984  0.00  0.00    +0.000 A 
ATOM     16  C   UNL     1       2.643   4.734  20.973  0.00  0.00    +0.000 A 
ATOM     17  C   UNL     1       1.673   3.790  20.631  0.00  0.00    +0.000 A 
ATOM     18 CL   UNL     1       1.020   2.770  21.844  0.00  0.00    +0.000 Cl
ATOM     19  C   UNL     1       1.238   3.675  19.309  0.00  0.00    +0.000 A 
ATOM     20  C   UNL     1       1.751   4.521  18.321  0.00  0.00    +0.000 A 
ENDBRANCH   1  14
BRANCH   1  23
ATOM     21  C   UNL     1       6.197   6.728  18.139  0.00  0.00    +0.000 C 
ATOM     22  O   UNL     1       5.482   6.776  16.874  0.00  0.00    +0.000 OA
ATOM     23  C   UNL     1       4.332   5.893  16.787  0.00  0.00    +0.000 C 
ATOM     24  C   UNL     1       4.907   4.456  16.972  0.00  0.00    +0.000 C 
ATOM     25  C   UNL     1       5.395   4.318  18.418  0.00  0.00    +0.000 C 
ATOM     26  C   UNL     1       6.552   5.318  18.638  0.00  0.00    +0.000 C 
BRANCH  21  28
ATOM     27  O   UNL     1       7.619   8.421  17.081  0.00  0.00    +0.000 OA
ATOM     28  C   UNL     1       7.453   7.585  17.954  0.00  0.00    +0.000 C 
BRANCH  28  29
ATOM     29  O   UNL     1       8.426   7.275  18.852  0.00  0.00    +0.000 OA
ATOM     30  H   UNL     1       8.918   6.490  18.524  0.00  0.00    +0.000 HD
ENDBRANCH  28  29
ENDBRANCH  21  28
BRANCH  24  31
ATOM     31  O   UNL     1       4.074   3.399  16.514  0.00  0.00    +0.000 OA
ATOM     32  H   UNL     1       3.433   3.180  17.226  0.00  0.00    +0.000 HD
ENDBRANCH  24  31
BRANCH  25  33
ATOM     33  O   UNL     1       5.822   2.990  18.737  0.00  0.00    +0.000 OA
ATOM     34  H   UNL     1       5.792   2.871  19.702  0.00  0.00    +0.000 HD
ENDBRANCH  25  33
BRANCH  26  35
ATOM     35  O   UNL     1       6.903   5.353  20.027  0.00  0.00    +0.000 OA
ATOM     36  H   UNL     1       7.716   4.841  20.177  0.00  0.00    +0.000 HD
ENDBRANCH  26  35
ENDBRANCH   1  23
TORSDOF 8
ENDMDL
MODEL 6
REMARK VINA RESULT:      -7.8      0.754      1.168
REMARK  Name = 
REMARK  8 active torsions:
REMARK  status: ('A' for Active; 'I' for Inactive)
REMARK    1  A    between atoms: C_2  and  O_3
REMARK    2  A    between atoms: C_2  and  C_4
REMARK    3  A    between atoms: C_6  and  N_7
REMARK    4  A    between atoms: N_7  and  C_19
REMARK    5  A    between atoms: N_10  and  C_11
REMARK    6  A    between atoms: C_26  and  O_27
REMARK    7  A    between atoms: C_28  and  O_29
REMARK    8  A    between atoms: C_30  and  O_31
REMARK                            x       y       z     vdW  Elec       q    Type
REMARK                         _______ _______ _______ _____ _____    ______ ____
ROOT
ATOM      1  N   UNL     1       2.611   6.088  18.255  0.00  0.00    +0.000 N 
ATOM      2  C   UNL     1       2.401   7.456  18.499  0.00  0.00    +0.000 C 
ATOM      3  O   UNL     1       2.738   8.316  17.689  0.00  0.00    +0.000 OA
ATOM      4  N   UNL     1       1.788   7.760  19.697  0.00  0.00    +0.000 N 
ATOM      5  H   UNL     1       1.947   7.109  20.454  0.00  0.00    +0.000 HD
ENDROOT
BRANCH   4   6
ATOM      6  C   UNL     1       1.168   8.973  20.052  0.00  0.00    +0.000 A 
ATOM      7  C   UNL     1       1.101  10.080  19.202  0.00  0.00    +0.000 A 
ATOM      8  C   UNL     1       0.457  11.251  19.615  0.00  0.00    +0.000 A 
ATOM      9  C   UNL     1      -0.130  11.327  20.880  0.00  0.00    +0.000 A 
ATOM     10 CL   UNL     1      -0.886  12.812  21.333  0.00  0.00    +0.000 Cl
ATOM     11  C   UNL     1      -0.092  10.216  21.725  0.00  0.00    +0.000 A 
ATOM     12 CL   UNL     1      -0.807  10.219  23.297  0.00  0.00    +0.000 Cl
ATOM     13  C   UNL     1       0.547   9.038  21.308  0.00  0.00    +0.000 A 
ENDBRANCH   4   6
BRANCH   1  14
ATOM     14  C   UNL     1       2.234   5.119  19.227  0.00  0.00    +0.000 A 
ATOM     15  C   UNL     1       2.920   5.093  20.454  0.00  0.00    +0.000 A 
ATOM     16  C   UNL     1       2.528   4.217  21.461  0.00  0.00    +0.000 A 
ATOM     17  C   UNL     1       1.477   3.328  21.231  0.00  0.00    +0.000 A 
ATOM     18 CL   UNL     1       1.007   2.235  22.464  0.00  0.00    +0.000 Cl
ATOM     19  C   UNL     1       0.812   3.328  20.002  0.00  0.00    +0.000 A 
ATOM     20  C   UNL     1       1.176   4.234  19.003  0.00  0.00    +0.000 A 
ENDBRANCH   1  14
BRANCH   1  23
ATOM     21  C   UNL     1       5.608   5.983  18.073  0.00  0.00    +0.000 C 
ATOM     22  O   UNL     1       4.671   6.329  17.017  0.00  0.00    +0.000 OA
ATOM     23  C   UNL     1       3.400   5.629  17.073  0.00  0.00    +0.000 C 
ATOM     24  C   UNL     1       3.761   4.119  16.933  0.00  0.00    +0.000 C 
ATOM     25  C   UNL     1       4.501   3.684  18.203  0.00  0.00    +0.000 C 
ATOM     26  C   UNL     1       5.824   4.476  18.290  0.00  0.00    +0.000 C 
BRANCH  21  28
ATOM     27  O   UNL     1       7.183   7.222  16.661  0.00  0.00    +0.000 OA
ATOM     28  C   UNL     1       6.923   6.689  17.727  0.00  0.00    +0.000 C 
BRANCH  28  29
ATOM     29  O   UNL     1       7.829   6.616  18.738  0.00  0.00    +0.000 OA
ATOM     30  H   UNL     1       7.516   5.953  19.393  0.00  0.00    +0.000 HD
ENDBRANCH  28  29
ENDBRANCH  21  28
BRANCH  24  31
ATOM     31  O   UNL     1       2.694   3.267  16.537  0.00  0.00    +0.000 OA
ATOM     32  H   UNL     1       1.863   3.608  16.936  0.00  0.00    +0.000 HD
ENDBRANCH  24  31
BRANCH  25  33
ATOM     33  O   UNL     1       4.763   2.278  18.239  0.00  0.00    +0.000 OA
ATOM     34  H   UNL     1       4.129   1.822  17.659  0.00  0.00    +0.000 HD
ENDBRANCH  25  33
BRANCH  26  35
ATOM     35  O   UNL     1       6.448   4.237  19.557  0.00  0.00    +0.000 OA
ATOM     36  H   UNL     1       7.051   3.478  19.492  0.00  0.00    +0.000 HD
ENDBRANCH  26  35
ENDBRANCH   1  23
TORSDOF 8
ENDMDL
MODEL 7
REMARK VINA RESULT:      -7.6      1.054      1.822
REMARK  Name = 
REMARK  8 active torsions:
REMARK  status: ('A' for Active; 'I' for Inactive)
REMARK    1  A    between atoms: C_2  and  O_3
REMARK    2  A    between atoms: C_2  and  C_4
REMARK    3  A    between atoms: C_6  and  N_7
REMARK    4  A    between atoms: N_7  and  C_19
REMARK    5  A    between atoms: N_10  and  C_11
REMARK    6  A    between atoms: C_26  and  O_27
REMARK    7  A    between atoms: C_28  and  O_29
REMARK    8  A    between atoms: C_30  and  O_31
REMARK                            x       y       z     vdW  Elec       q    Type
REMARK                         _______ _______ _______ _____ _____    ______ ____
ROOT
ATOM      1  N   UNL     1       2.442   5.962  18.590  0.00  0.00    +0.000 N 
ATOM      2  C   UNL     1       2.285   7.310  18.955  0.00  0.00    +0.000 C 
ATOM      3  O   UNL     1       2.586   8.225  18.192  0.00  0.00    +0.000 OA
ATOM      4  N   UNL     1       1.766   7.529  20.215  0.00  0.00    +0.000 N 
ATOM      5  H   UNL     1       1.961   6.816  20.904  0.00  0.00    +0.000 HD
ENDROOT
BRANCH   4   6
ATOM      6  C   UNL     1       1.203   8.721  20.707  0.00  0.00    +0.000 A 
ATOM      7  C   UNL     1       0.973   8.960  22.065  0.00  0.00    +0.000 A 
ATOM      8  C   UNL     1       0.422  10.174  22.486  0.00  0.00    +0.000 A 
ATOM      9  C   UNL     1       0.098  11.164  21.557  0.00  0.00    +0.000 A 
ATOM     10 CL   UNL     1      -0.602  12.628  22.146  0.00  0.00    +0.000 Cl
ATOM     11  C   UNL     1       0.351  10.945  20.201  0.00  0.00    +0.000 A 
ATOM     12 CL   UNL     1      -0.003  12.123  18.988  0.00  0.00    +0.000 Cl
ATOM     13  C   UNL     1       0.911   9.730  19.778  0.00  0.00    +0.000 A 
ENDBRANCH   4   6
BRANCH   1  14
ATOM     14  C   UNL     1       2.111   4.925  19.508  0.00  0.00    +0.000 A 
ATOM     15  C   UNL     1       2.865   4.802  20.687  0.00  0.00    +0.000 A 
ATOM     16  C   UNL     1       2.522   3.856  21.648  0.00  0.00    +0.000 A 
ATOM     17  C   UNL     1       1.448   2.995  21.413  0.00  0.00    +0.000 A 
ATOM     18 CL   UNL     1       1.037   1.817  22.588  0.00  0.00    +0.000 Cl
ATOM     19  C   UNL     1       0.713   3.093  20.230  0.00  0.00    +0.000 A 
ATOM     20  C   UNL     1       1.031   4.068  19.280  0.00  0.00    +0.000 A 
ENDBRANCH   1  14
BRANCH   1  23
ATOM     21  C   UNL     1       5.415   5.778  18.194  0.00  0.00    +0.000 C 
ATOM     22  O   UNL     1       4.424   6.245  17.238  0.00  0.00    +0.000 OA
ATOM     23  C   UNL     1       3.134   5.583  17.322  0.00  0.00    +0.000 C 
ATOM     24  C   UNL     1       3.429   4.080  17.029  0.00  0.00    +0.000 C 
ATOM     25  C   UNL     1       4.234   3.513  18.203  0.00  0.00    +0.000 C 
ATOM     26  C   UNL     1       5.589   4.253  18.266  0.00  0.00    +0.000 C 
BRANCH  21  28
ATOM     27  O   UNL     1       6.883   7.250  16.894  0.00  0.00    +0.000 OA
ATOM     28  C   UNL     1       6.730   6.471  17.820  0.00  0.00    +0.000 C 
BRANCH  28  29
ATOM     29  O   UNL     1       7.763   6.078  18.612  0.00  0.00    +0.000 OA
ATOM     30  H   UNL     1       7.833   5.098  18.574  0.00  0.00    +0.000 HD
ENDBRANCH  28  29
ENDBRANCH  21  28
BRANCH  24  31
ATOM     31  O   UNL     1       2.307   3.301  16.636  0.00  0.00    +0.000 OA
ATOM     32  H   UNL     1       1.834   3.780  15.919  0.00  0.00    +0.000 HD
ENDBRANCH  24  31
BRANCH  25  33
ATOM     33  O   UNL     1       4.445   2.102  18.102  0.00  0.00    +0.000 OA
ATOM     34  H   UNL     1       3.940   1.759  17.344  0.00  0.00    +0.000 HD
ENDBRANCH  25  33
BRANCH  26  35
ATOM     35  O   UNL     1       6.285   3.884  19.463  0.00  0.00    +0.000 OA
ATOM     36  H   UNL     1       5.775   4.163  20.243  0.00  0.00    +0.000 HD
ENDBRANCH  26  35
ENDBRANCH   1  23
TORSDOF 8
ENDMDL
MODEL 8
REMARK VINA RESULT:      -7.6      1.268      1.544
REMARK  Name = 
REMARK  8 active torsions:
REMARK  status: ('A' for Active; 'I' for Inactive)
REMARK    1  A    between atoms: C_2  and  O_3
REMARK    2  A    between atoms: C_2  and  C_4
REMARK    3  A    between atoms: C_6  and  N_7
REMARK    4  A    between atoms: N_7  and  C_19
REMARK    5  A    between atoms: N_10  and  C_11
REMARK    6  A    between atoms: C_26  and  O_27
REMARK    7  A    between atoms: C_28  and  O_29
REMARK    8  A    between atoms: C_30  and  O_31
REMARK                            x       y       z     vdW  Elec       q    Type
REMARK                         _______ _______ _______ _____ _____    ______ ____
ROOT
ATOM      1  N   UNL     1       2.652   5.787  18.538  0.00  0.00    +0.000 N 
ATOM      2  C   UNL     1       2.467   7.173  18.678  0.00  0.00    +0.000 C 
ATOM      3  O   UNL     1       2.869   7.967  17.830  0.00  0.00    +0.000 OA
ATOM      4  N   UNL     1       1.804   7.573  19.819  0.00  0.00    +0.000 N 
ATOM      5  H   UNL     1       1.907   6.972  20.626  0.00  0.00    +0.000 HD
ENDROOT
BRANCH   4   6
ATOM      6  C   UNL     1       1.200   8.822  20.059  0.00  0.00    +0.000 A 
ATOM      7  C   UNL     1       1.140   9.843  19.107  0.00  0.00    +0.000 A 
ATOM      8  C   UNL     1       0.513  11.056  19.409  0.00  0.00    +0.000 A 
ATOM      9  C   UNL     1      -0.066  11.260  20.663  0.00  0.00    +0.000 A 
ATOM     10 CL   UNL     1      -0.802  12.790  20.975  0.00  0.00    +0.000 Cl
ATOM     11  C   UNL     1      -0.036  10.234  21.610  0.00  0.00    +0.000 A 
ATOM     12 CL   UNL     1      -0.742  10.397  23.178  0.00  0.00    +0.000 Cl
ATOM     13  C   UNL     1       0.587   9.015  21.306  0.00  0.00    +0.000 A 
ENDBRANCH   4   6
BRANCH   1  14
ATOM     14  C   UNL     1       2.201   4.896  19.552  0.00  0.00    +0.000 A 
ATOM     15  C   UNL     1       1.099   4.067  19.278  0.00  0.00    +0.000 A 
ATOM     16  C   UNL     1       0.678   3.124  20.211  0.00  0.00    +0.000 A 
ATOM     17  C   UNL     1       1.329   3.036  21.443  0.00  0.00    +0.000 A 
ATOM     18 CL   UNL     1       0.798   1.889  22.600  0.00  0.00    +0.000 Cl
ATOM     19  C   UNL     1       2.404   3.879  21.733  0.00  0.00    +0.000 A 
ATOM     20  C   UNL     1       2.855   4.800  20.782  0.00  0.00    +0.000 A 
ENDBRANCH   1  14
BRANCH   1  23
ATOM     21  C   UNL     1       5.403   4.614  18.829  0.00  0.00    +0.000 C 
ATOM     22  O   UNL     1       4.897   5.415  17.726  0.00  0.00    +0.000 OA
ATOM     23  C   UNL     1       3.487   5.229  17.432  0.00  0.00    +0.000 C 
ATOM     24  C   UNL     1       3.346   3.724  17.051  0.00  0.00    +0.000 C 
ATOM     25  C   UNL     1       3.595   2.886  18.310  0.00  0.00    +0.000 C 
ATOM     26  C   UNL     1       5.051   3.120  18.769  0.00  0.00    +0.000 C 
BRANCH  21  28
ATOM     27  O   UNL     1       7.702   4.461  17.991  0.00  0.00    +0.000 OA
ATOM     28  C   UNL     1       6.920   4.828  18.852  0.00  0.00    +0.000 C 
BRANCH  28  29
ATOM     29  O   UNL     1       7.338   5.439  19.993  0.00  0.00    +0.000 OA
ATOM     30  H   UNL     1       6.849   5.052  20.753  0.00  0.00    +0.000 HD
ENDBRANCH  28  29
ENDBRANCH  21  28
BRANCH  24  31
ATOM     31  O   UNL     1       2.174   3.383  16.322  0.00  0.00    +0.000 OA
ATOM     32  H   UNL     1       1.458   3.183  16.965  0.00  0.00    +0.000 HD
ENDBRANCH  24  31
BRANCH  25  33
ATOM     33  O   UNL     1       3.359   1.490  18.104  0.00  0.00    +0.000 OA
ATOM     34  H   UNL     1       3.229   1.060  18.967  0.00  0.00    +0.000 HD
ENDBRANCH  25  33
BRANCH  26  35
ATOM     35  O   UNL     1       5.258   2.505  20.047  0.00  0.00    +0.000 OA
ATOM     36  H   UNL     1       4.599   2.831  20.683  0.00  0.00    +0.000 HD
ENDBRANCH  26  35
ENDBRANCH   1  23
TORSDOF 8
ENDMDL
MODEL 9
REMARK VINA RESULT:      -7.4      2.864      4.727
REMARK  Name = 
REMARK  8 active torsions:
REMARK  status: ('A' for Active; 'I' for Inactive)
REMARK    1  A    between atoms: C_2  and  O_3
REMARK    2  A    between atoms: C_2  and  C_4
REMARK    3  A    between atoms: C_6  and  N_7
REMARK    4  A    between atoms: N_7  and  C_19
REMARK    5  A    between atoms: N_10  and  C_11
REMARK    6  A    between atoms: C_26  and  O_27
REMARK    7  A    between atoms: C_28  and  O_29
REMARK    8  A    between atoms: C_30  and  O_31
REMARK                            x       y       z     vdW  Elec       q    Type
REMARK                         _______ _______ _______ _____ _____    ______ ____
ROOT
ATOM      1  N   UNL     1       3.321   5.044  18.506  0.00  0.00    +0.000 N 
ATOM      2  C   UNL     1       2.259   5.815  19.008  0.00  0.00    +0.000 C 
ATOM      3  O   UNL     1       1.155   5.323  19.234  0.00  0.00    +0.000 OA
ATOM      4  N   UNL     1       2.543   7.146  19.233  0.00  0.00    +0.000 N 
ATOM      5  H   UNL     1       3.255   7.553  18.643  0.00  0.00    +0.000 HD
ENDROOT
BRANCH   4   6
ATOM      6  C   UNL     1       1.806   8.052  20.018  0.00  0.00    +0.000 A 
ATOM      7  C   UNL     1       1.636   7.914  21.398  0.00  0.00    +0.000 A 
ATOM      8  C   UNL     1       0.900   8.859  22.119  0.00  0.00    +0.000 A 
ATOM      9  C   UNL     1       0.331   9.957  21.470  0.00  0.00    +0.000 A 
ATOM     10 CL   UNL     1      -0.585  11.072  22.419  0.00  0.00    +0.000 Cl
ATOM     11  C   UNL     1       0.519  10.118  20.096  0.00  0.00    +0.000 A 
ATOM     12 CL   UNL     1      -0.135  11.454  19.219  0.00  0.00    +0.000 Cl
ATOM     13  C   UNL     1       1.264   9.173  19.373  0.00  0.00    +0.000 A 
ENDBRANCH   4   6
BRANCH   1  14
ATOM     14  C   UNL     1       4.580   5.649  18.228  0.00  0.00    +0.000 A 
ATOM     15  C   UNL     1       4.688   6.497  17.113  0.00  0.00    +0.000 A 
ATOM     16  C   UNL     1       5.876   7.173  16.853  0.00  0.00    +0.000 A 
ATOM     17  C   UNL     1       6.979   6.969  17.684  0.00  0.00    +0.000 A 
ATOM     18 CL   UNL     1       8.449   7.785  17.354  0.00  0.00    +0.000 Cl
ATOM     19  C   UNL     1       6.887   6.103  18.776  0.00  0.00    +0.000 A 
ATOM     20  C   UNL     1       5.683   5.454  19.063  0.00  0.00    +0.000 A 
ENDBRANCH   1  14
BRANCH   1  23
ATOM     21  C   UNL     1       3.891   2.596  20.151  0.00  0.00    +0.000 C 
ATOM     22  O   UNL     1       4.077   2.759  18.719  0.00  0.00    +0.000 OA
ATOM     23  C   UNL     1       3.110   3.630  18.073  0.00  0.00    +0.000 C 
ATOM     24  C   UNL     1       1.727   2.953  18.315  0.00  0.00    +0.000 C 
ATOM     25  C   UNL     1       1.401   3.051  19.809  0.00  0.00    +0.000 C 
ATOM     26  C   UNL     1       2.461   2.245  20.592  0.00  0.00    +0.000 C 
BRANCH  21  28
ATOM     27  O   UNL     1       5.504   1.510  21.645  0.00  0.00    +0.000 OA
ATOM     28  C   UNL     1       4.888   1.519  20.592  0.00  0.00    +0.000 C 
BRANCH  28  29
ATOM     29  O   UNL     1       5.073   0.566  19.639  0.00  0.00    +0.000 OA
ATOM     30  H   UNL     1       4.243   0.476  19.119  0.00  0.00    +0.000 HD
ENDBRANCH  28  29
ENDBRANCH  21  28
BRANCH  24  31
ATOM     31  O   UNL     1       0.683   3.364  17.442  0.00  0.00    +0.000 OA
ATOM     32  H   UNL     1       0.421   2.594  16.890  0.00  0.00    +0.000 HD
ENDBRANCH  24  31
BRANCH  25  33
ATOM     33  O   UNL     1       0.088   2.578  20.124  0.00  0.00    +0.000 OA
ATOM     34  H   UNL     1       0.160   1.713  20.563  0.00  0.00    +0.000 HD
ENDBRANCH  25  33
BRANCH  26  35
ATOM     35  O   UNL     1       2.300   2.473  21.998  0.00  0.00    +0.000 OA
ATOM     36  H   UNL     1       1.377   2.710  22.191  0.00  0.00    +0.000 HD
ENDBRANCH  26  35
ENDBRANCH   1  23
TORSDOF 8
ENDMDL
