MODEL 1
REMARK VINA RESULT:      -7.4      0.000      0.000
REMARK  Name = 
REMARK  9 active torsions:
REMARK  status: ('A' for Active; 'I' for Inactive)
REMARK    1  A    between atoms: C_1  and  O_2
REMARK    2  A    between atoms: O_2  and  C_3
REMARK    3  A    between atoms: C_3  and  C_4
REMARK    4  A    between atoms: C_4  and  N_5
REMARK    5  A    between atoms: C_6  and  N_7
REMARK    6  A    between atoms: C_8  and  C_9
REMARK    7  A    between atoms: N_11  and  S_12
REMARK    8  A    between atoms: S_12  and  C_15
REMARK    9  A    between atoms: C_18  and  C_19
REMARK                            x       y       z     vdW  Elec       q    Type
REMARK                         _______ _______ _______ _____ _____    ______ ____
ROOT
ATOM      1  N   UNL     1       1.115   8.393  20.277  0.00  0.00    +0.000 N 
ATOM      2  C   UNL     1       1.856   7.227  20.054  0.00  0.00    +0.000 A 
ATOM      3  C   UNL     1       2.634   7.123  18.944  0.00  0.00    +0.000 A 
ATOM      4  C   UNL     1       2.615   8.227  17.962  0.00  0.00    +0.000 A 
ATOM      5  O   UNL     1       3.285   8.188  16.931  0.00  0.00    +0.000 OA
ATOM      6  N   UNL     1       1.813   9.288  18.242  0.00  0.00    +0.000 N 
ATOM      7  C   UNL     1       1.093   9.458  19.386  0.00  0.00    +0.000 A 
ATOM      8  O   UNL     1       0.492  10.514  19.568  0.00  0.00    +0.000 OA
ATOM      9  H   UNL     1       1.806  10.063  17.595  0.00  0.00    +0.000 HD
ENDROOT
BRANCH   3  10
ATOM     10  C   UNL     1       3.488   5.909  18.753  0.00  0.00    +0.000 C 
ATOM     11  O   UNL     1       2.994   4.811  18.533  0.00  0.00    +0.000 OA
ATOM     12  N   UNL     1       4.873   6.076  18.800  0.00  0.00    +0.000 N 
ATOM     13  H   UNL     1       5.303   7.001  18.883  0.00  0.00    +0.000 HD
BRANCH  12  14
ATOM     14  S   UNL     1       5.946   4.805  18.660  0.00  0.00    +0.000 S 
ATOM     15  O   UNL     1       7.223   5.298  19.125  0.00  0.00    +0.000 OA
ATOM     16  O   UNL     1       5.333   3.636  19.253  0.00  0.00    +0.000 OA
BRANCH  14  17
ATOM     17  C   UNL     1       6.088   4.565  16.902  0.00  0.00    +0.000 A 
ATOM     18  C   UNL     1       5.188   3.713  16.260  0.00  0.00    +0.000 A 
ATOM     19  C   UNL     1       5.327   3.470  14.892  0.00  0.00    +0.000 A 
ATOM     20  C   UNL     1       6.357   4.079  14.161  0.00  0.00    +0.000 A 
ATOM     21  C   UNL     1       6.520   3.808  12.694  0.00  0.00    +0.000 C 
ATOM     22  C   UNL     1       7.241   4.948  14.816  0.00  0.00    +0.000 A 
ATOM     23  C   UNL     1       7.110   5.194  16.185  0.00  0.00    +0.000 A 
ENDBRANCH  14  17
ENDBRANCH  12  14
ENDBRANCH   3  10
BRANCH   2  24
ATOM     24  N   UNL     1       1.800   6.228  21.013  0.00  0.00    +0.000 N 
ATOM     25  H   UNL     1       1.760   6.552  21.974  0.00  0.00    +0.000 HD
ATOM     26  H   UNL     1       1.101   5.495  20.833  0.00  0.00    +0.000 HD
ENDBRANCH   2  24
BRANCH   1  27
ATOM     27  C   UNL     1       0.425   8.582  21.569  0.00  0.00    +0.000 C 
BRANCH  27  28
ATOM     28  C   UNL     1       1.326   9.222  22.634  0.00  0.00    +0.000 C 
BRANCH  28  30
ATOM     29  C   UNL     1      -0.806  10.060  23.116  0.00  0.00    +0.000 C 
ATOM     30  O   UNL     1       0.539   9.952  23.574  0.00  0.00    +0.000 OA
ENDBRANCH  28  30
ENDBRANCH  27  28
ENDBRANCH   1  27
TORSDOF 7
ENDMDL
MODEL 2
REMARK VINA RESULT:      -7.2      0.387      1.025
REMARK  Name = 
REMARK  9 active torsions:
REMARK  status: ('A' for Active; 'I' for Inactive)
REMARK    1  A    between atoms: C_1  and  O_2
REMARK    2  A    between atoms: O_2  and  C_3
REMARK    3  A    between atoms: C_3  and  C_4
REMARK    4  A    between atoms: C_4  and  N_5
REMARK    5  A    between atoms: C_6  and  N_7
REMARK    6  A    between atoms: C_8  and  C_9
REMARK    7  A    between atoms: N_11  and  S_12
REMARK    8  A    between atoms: S_12  and  C_15
REMARK    9  A    between atoms: C_18  and  C_19
REMARK                            x       y       z     vdW  Elec       q    Type
REMARK                         _______ _______ _______ _____ _____    ______ ____
ROOT
ATOM      1  N   UNL     1       0.912   8.397  20.354  0.00  0.00    +0.000 N 
ATOM      2  C   UNL     1       1.659   7.225  20.191  0.00  0.00    +0.000 A 
ATOM      3  C   UNL     1       2.484   7.095  19.120  0.00  0.00    +0.000 A 
ATOM      4  C   UNL     1       2.513   8.175  18.113  0.00  0.00    +0.000 A 
ATOM      5  O   UNL     1       3.227   8.112  17.114  0.00  0.00    +0.000 OA
ATOM      6  N   UNL     1       1.701   9.244  18.333  0.00  0.00    +0.000 N 
ATOM      7  C   UNL     1       0.932   9.441  19.440  0.00  0.00    +0.000 A 
ATOM      8  O   UNL     1       0.327  10.502  19.570  0.00  0.00    +0.000 OA
ATOM      9  H   UNL     1       1.725  10.004  17.669  0.00  0.00    +0.000 HD
ENDROOT
BRANCH   3  10
ATOM     10  C   UNL     1       3.344   5.874  18.994  0.00  0.00    +0.000 C 
ATOM     11  O   UNL     1       2.852   4.762  18.854  0.00  0.00    +0.000 OA
ATOM     12  N   UNL     1       4.728   6.051  19.010  0.00  0.00    +0.000 N 
ATOM     13  H   UNL     1       5.154   6.982  19.027  0.00  0.00    +0.000 HD
BRANCH  12  14
ATOM     14  S   UNL     1       5.807   4.780  18.937  0.00  0.00    +0.000 S 
ATOM     15  O   UNL     1       7.059   5.278  19.458  0.00  0.00    +0.000 OA
ATOM     16  O   UNL     1       5.165   3.617  19.512  0.00  0.00    +0.000 OA
BRANCH  14  17
ATOM     17  C   UNL     1       6.033   4.521  17.190  0.00  0.00    +0.000 A 
ATOM     18  C   UNL     1       7.107   5.140  16.548  0.00  0.00    +0.000 A 
ATOM     19  C   UNL     1       7.259   4.993  15.167  0.00  0.00    +0.000 A 
ATOM     20  C   UNL     1       6.349   4.226  14.427  0.00  0.00    +0.000 A 
ATOM     21  C   UNL     1       6.500   4.079  12.941  0.00  0.00    +0.000 C 
ATOM     22  C   UNL     1       5.286   3.595  15.089  0.00  0.00    +0.000 A 
ATOM     23  C   UNL     1       5.126   3.740  16.470  0.00  0.00    +0.000 A 
ENDBRANCH  14  17
ENDBRANCH  12  14
ENDBRANCH   3  10
BRANCH   2  24
ATOM     24  N   UNL     1       1.558   6.248  21.170  0.00  0.00    +0.000 N 
ATOM     25  H   UNL     1       1.920   5.336  20.910  0.00  0.00    +0.000 HD
ATOM     26  H   UNL     1       1.890   6.534  22.101  0.00  0.00    +0.000 HD
ENDBRANCH   2  24
BRANCH   1  27
ATOM     27  C   UNL     1       0.165   8.617  21.610  0.00  0.00    +0.000 C 
BRANCH  27  28
ATOM     28  C   UNL     1       0.793   9.707  22.489  0.00  0.00    +0.000 C 
BRANCH  28  30
ATOM     29  C   UNL     1      -1.033  11.087  22.986  0.00  0.00    +0.000 C 
ATOM     30  O   UNL     1      -0.127  10.116  23.502  0.00  0.00    +0.000 OA
ENDBRANCH  28  30
ENDBRANCH  27  28
ENDBRANCH   1  27
TORSDOF 7
ENDMDL
MODEL 3
REMARK VINA RESULT:      -7.0      1.031      1.520
REMARK  Name = 
REMARK  9 active torsions:
REMARK  status: ('A' for Active; 'I' for Inactive)
REMARK    1  A    between atoms: C_1  and  O_2
REMARK    2  A    between atoms: O_2  and  C_3
REMARK    3  A    between atoms: C_3  and  C_4
REMARK    4  A    between atoms: C_4  and  N_5
REMARK    5  A    between atoms: C_6  and  N_7
REMARK    6  A    between atoms: C_8  and  C_9
REMARK    7  A    between atoms: N_11  and  S_12
REMARK    8  A    between atoms: S_12  and  C_15
REMARK    9  A    between atoms: C_18  and  C_19
REMARK                            x       y       z     vdW  Elec       q    Type
REMARK                         _______ _______ _______ _____ _____    ______ ____
ROOT
ATOM      1  N   UNL     1       1.115   8.361  20.211  0.00  0.00    +0.000 N 
ATOM      2  C   UNL     1       1.924   7.227  20.087  0.00  0.00    +0.000 A 
ATOM      3  C   UNL     1       2.731   7.088  19.001  0.00  0.00    +0.000 A 
ATOM      4  C   UNL     1       2.673   8.116  17.942  0.00  0.00    +0.000 A 
ATOM      5  O   UNL     1       3.366   8.041  16.928  0.00  0.00    +0.000 OA
ATOM      6  N   UNL     1       1.806   9.147  18.130  0.00  0.00    +0.000 N 
ATOM      7  C   UNL     1       1.053   9.357  19.245  0.00  0.00    +0.000 A 
ATOM      8  O   UNL     1       0.390  10.387  19.338  0.00  0.00    +0.000 OA
ATOM      9  H   UNL     1       1.770   9.872  17.427  0.00  0.00    +0.000 HD
ENDROOT
BRANCH   3  10
ATOM     10  C   UNL     1       3.656   5.914  18.915  0.00  0.00    +0.000 C 
ATOM     11  O   UNL     1       4.716   5.893  19.527  0.00  0.00    +0.000 OA
ATOM     12  N   UNL     1       3.254   4.827  18.137  0.00  0.00    +0.000 N 
ATOM     13  H   UNL     1       2.329   4.788  17.700  0.00  0.00    +0.000 HD
BRANCH  12  14
ATOM     14  S   UNL     1       4.205   3.476  17.903  0.00  0.00    +0.000 S 
ATOM     15  O   UNL     1       5.033   3.352  19.082  0.00  0.00    +0.000 OA
ATOM     16  O   UNL     1       3.346   2.394  17.474  0.00  0.00    +0.000 OA
BRANCH  14  17
ATOM     17  C   UNL     1       5.276   3.943  16.560  0.00  0.00    +0.000 A 
ATOM     18  C   UNL     1       6.543   4.454  16.850  0.00  0.00    +0.000 A 
ATOM     19  C   UNL     1       7.367   4.880  15.806  0.00  0.00    +0.000 A 
ATOM     20  C   UNL     1       6.935   4.793  14.475  0.00  0.00    +0.000 A 
ATOM     21  C   UNL     1       7.812   5.265  13.352  0.00  0.00    +0.000 C 
ATOM     22  C   UNL     1       5.668   4.261  14.199  0.00  0.00    +0.000 A 
ATOM     23  C   UNL     1       4.836   3.835  15.238  0.00  0.00    +0.000 A 
ENDBRANCH  14  17
ENDBRANCH  12  14
ENDBRANCH   3  10
BRANCH   2  24
ATOM     24  N   UNL     1       1.903   6.297  21.115  0.00  0.00    +0.000 N 
ATOM     25  H   UNL     1       1.398   5.441  20.914  0.00  0.00    +0.000 HD
ATOM     26  H   UNL     1       2.820   6.103  21.540  0.00  0.00    +0.000 HD
ENDBRANCH   2  24
BRANCH   1  27
ATOM     27  C   UNL     1       0.387   8.603  21.473  0.00  0.00    +0.000 C 
BRANCH  27  28
ATOM     28  C   UNL     1       1.240   9.336  22.518  0.00  0.00    +0.000 C 
BRANCH  28  30
ATOM     29  C   UNL     1      -0.833  10.262  23.091  0.00  0.00    +0.000 C 
ATOM     30  O   UNL     1       0.418   9.798  23.590  0.00  0.00    +0.000 OA
ENDBRANCH  28  30
ENDBRANCH  27  28
ENDBRANCH   1  27
TORSDOF 7
ENDMDL
MODEL 4
REMARK VINA RESULT:      -6.8      3.417      7.745
REMARK  Name = 
REMARK  9 active torsions:
REMARK  status: ('A' for Active; 'I' for Inactive)
REMARK    1  A    between atoms: C_1  and  O_2
REMARK    2  A    between atoms: O_2  and  C_3
REMARK    3  A    between atoms: C_3  and  C_4
REMARK    4  A    between atoms: C_4  and  N_5
REMARK    5  A    between atoms: C_6  and  N_7
REMARK    6  A    between atoms: C_8  and  C_9
REMARK    7  A    between atoms: N_11  and  S_12
REMARK    8  A    between atoms: S_12  and  C_15
REMARK    9  A    between atoms: C_18  and  C_19
REMARK                            x       y       z     vdW  Elec       q    Type
REMARK                         _______ _______ _______ _____ _____    ______ ____
ROOT
ATOM      1  N   UNL     1       2.790   4.652  19.126  0.00  0.00    +0.000 N 
ATOM      2  C   UNL     1       2.284   5.731  19.858  0.00  0.00    +0.000 A 
ATOM      3  C   UNL     1       2.393   6.993  19.364  0.00  0.00    +0.000 A 
ATOM      4  C   UNL     1       3.113   7.193  18.090  0.00  0.00    +0.000 A 
ATOM      5  O   UNL     1       3.259   8.310  17.596  0.00  0.00    +0.000 OA
ATOM      6  N   UNL     1       3.622   6.084  17.489  0.00  0.00    +0.000 N 
ATOM      7  C   UNL     1       3.452   4.802  17.915  0.00  0.00    +0.000 A 
ATOM      8  O   UNL     1       3.869   3.877  17.223  0.00  0.00    +0.000 OA
ATOM      9  H   UNL     1       4.097   6.198  16.604  0.00  0.00    +0.000 HD
ENDROOT
BRANCH   3  10
ATOM     10  C   UNL     1       1.777   8.135  20.111  0.00  0.00    +0.000 C 
ATOM     11  O   UNL     1       1.892   8.236  21.326  0.00  0.00    +0.000 OA
ATOM     12  N   UNL     1       1.092   9.100  19.372  0.00  0.00    +0.000 N 
ATOM     13  H   UNL     1       1.071   9.082  18.349  0.00  0.00    +0.000 HD
BRANCH  12  14
ATOM     14  S   UNL     1       0.308  10.395  20.075  0.00  0.00    +0.000 S 
ATOM     15  O   UNL     1      -0.251   9.908  21.315  0.00  0.00    +0.000 OA
ATOM     16  O   UNL     1       1.208  11.527  20.052  0.00  0.00    +0.000 OA
BRANCH  14  17
ATOM     17  C   UNL     1      -1.056  10.708  18.975  0.00  0.00    +0.000 A 
ATOM     18  C   UNL     1      -2.034  11.630  19.353  0.00  0.00    +0.000 A 
ATOM     19  C   UNL     1      -3.139  11.839  18.525  0.00  0.00    +0.000 A 
ATOM     20  C   UNL     1      -3.270  11.135  17.320  0.00  0.00    +0.000 A 
ATOM     21  C   UNL     1      -4.465  11.344  16.435  0.00  0.00    +0.000 C 
ATOM     22  C   UNL     1      -2.271  10.226  16.944  0.00  0.00    +0.000 A 
ATOM     23  C   UNL     1      -1.163  10.010  17.768  0.00  0.00    +0.000 A 
ENDBRANCH  14  17
ENDBRANCH  12  14
ENDBRANCH   3  10
BRANCH   2  24
ATOM     24  N   UNL     1       1.642   5.461  21.057  0.00  0.00    +0.000 N 
ATOM     25  H   UNL     1       1.071   6.216  21.422  0.00  0.00    +0.000 HD
ATOM     26  H   UNL     1       1.142   4.562  21.085  0.00  0.00    +0.000 HD
ENDBRANCH   2  24
BRANCH   1  27
ATOM     27  C   UNL     1       2.504   3.272  19.570  0.00  0.00    +0.000 C 
BRANCH  27  28
ATOM     28  C   UNL     1       3.538   2.746  20.574  0.00  0.00    +0.000 C 
BRANCH  28  30
ATOM     29  C   UNL     1       1.523   2.386  21.712  0.00  0.00    +0.000 C 
ATOM     30  O   UNL     1       2.931   2.550  21.852  0.00  0.00    +0.000 OA
ENDBRANCH  28  30
ENDBRANCH  27  28
ENDBRANCH   1  27
TORSDOF 7
ENDMDL
MODEL 5
REMARK VINA RESULT:      -6.7      2.632      3.992
REMARK  Name = 
REMARK  9 active torsions:
REMARK  status: ('A' for Active; 'I' for Inactive)
REMARK    1  A    between atoms: C_1  and  O_2
REMARK    2  A    between atoms: O_2  and  C_3
REMARK    3  A    between atoms: C_3  and  C_4
REMARK    4  A    between atoms: C_4  and  N_5
REMARK    5  A    between atoms: C_6  and  N_7
REMARK    6  A    between atoms: C_8  and  C_9
REMARK    7  A    between atoms: N_11  and  S_12
REMARK    8  A    between atoms: S_12  and  C_15
REMARK    9  A    between atoms: C_18  and  C_19
REMARK                            x       y       z     vdW  Elec       q    Type
REMARK                         _______ _______ _______ _____ _____    ______ ____
ROOT
ATOM      1  N   UNL     1       2.632   4.662  20.539  0.00  0.00    +0.000 N 
ATOM      2  C   UNL     1       3.808   4.369  19.841  0.00  0.00    +0.000 A 
ATOM      3  C   UNL     1       4.343   5.293  19.000  0.00  0.00    +0.000 A 
ATOM      4  C   UNL     1       3.619   6.564  18.794  0.00  0.00    +0.000 A 
ATOM      5  O   UNL     1       4.042   7.436  18.036  0.00  0.00    +0.000 OA
ATOM      6  N   UNL     1       2.452   6.725  19.473  0.00  0.00    +0.000 N 
ATOM      7  C   UNL     1       1.938   5.855  20.387  0.00  0.00    +0.000 A 
ATOM      8  O   UNL     1       0.929   6.168  21.014  0.00  0.00    +0.000 OA
ATOM      9  H   UNL     1       1.955   7.598  19.364  0.00  0.00    +0.000 HD
ENDROOT
BRANCH   3  10
ATOM     10  C   UNL     1       5.646   5.006  18.320  0.00  0.00    +0.000 C 
ATOM     11  O   UNL     1       6.549   4.417  18.899  0.00  0.00    +0.000 OA
ATOM     12  N   UNL     1       5.784   5.402  16.989  0.00  0.00    +0.000 N 
ATOM     13  H   UNL     1       5.005   5.806  16.462  0.00  0.00    +0.000 HD
BRANCH  12  14
ATOM     14  S   UNL     1       7.196   5.199  16.123  0.00  0.00    +0.000 S 
ATOM     15  O   UNL     1       7.713   6.525  15.871  0.00  0.00    +0.000 OA
ATOM     16  O   UNL     1       7.994   4.199  16.800  0.00  0.00    +0.000 OA
BRANCH  14  17
ATOM     17  C   UNL     1       6.642   4.549  14.562  0.00  0.00    +0.000 A 
ATOM     18  C   UNL     1       5.384   3.948  14.486  0.00  0.00    +0.000 A 
ATOM     19  C   UNL     1       4.965   3.380  13.281  0.00  0.00    +0.000 A 
ATOM     20  C   UNL     1       5.793   3.415  12.150  0.00  0.00    +0.000 A 
ATOM     21  C   UNL     1       5.352   2.792  10.857  0.00  0.00    +0.000 C 
ATOM     22  C   UNL     1       7.046   4.039  12.236  0.00  0.00    +0.000 A 
ATOM     23  C   UNL     1       7.473   4.606  13.439  0.00  0.00    +0.000 A 
ENDBRANCH  14  17
ENDBRANCH  12  14
ENDBRANCH   3  10
BRANCH   2  24
ATOM     24  N   UNL     1       4.413   3.143  20.073  0.00  0.00    +0.000 N 
ATOM     25  H   UNL     1       5.355   3.049  19.706  0.00  0.00    +0.000 HD
ATOM     26  H   UNL     1       4.353   2.809  21.045  0.00  0.00    +0.000 HD
ENDBRANCH   2  24
BRANCH   1  27
ATOM     27  C   UNL     1       2.158   3.739  21.590  0.00  0.00    +0.000 C 
BRANCH  27  28
ATOM     28  C   UNL     1       1.295   2.598  21.032  0.00  0.00    +0.000 C 
BRANCH  28  30
ATOM     29  C   UNL     1       0.882   2.280  18.750  0.00  0.00    +0.000 C 
ATOM     30  O   UNL     1       0.550   3.050  19.902  0.00  0.00    +0.000 OA
ENDBRANCH  28  30
ENDBRANCH  27  28
ENDBRANCH   1  27
TORSDOF 7
ENDMDL
MODEL 6
REMARK VINA RESULT:      -6.7      3.615      8.174
REMARK  Name = 
REMARK  9 active torsions:
REMARK  status: ('A' for Active; 'I' for Inactive)
REMARK    1  A    between atoms: C_1  and  O_2
REMARK    2  A    between atoms: O_2  and  C_3
REMARK    3  A    between atoms: C_3  and  C_4
REMARK    4  A    between atoms: C_4  and  N_5
REMARK    5  A    between atoms: C_6  and  N_7
REMARK    6  A    between atoms: C_8  and  C_9
REMARK    7  A    between atoms: N_11  and  S_12
REMARK    8  A    between atoms: S_12  and  C_15
REMARK    9  A    between atoms: C_18  and  C_19
REMARK                            x       y       z     vdW  Elec       q    Type
REMARK                         _______ _______ _______ _____ _____    ______ ____
ROOT
ATOM      1  N   UNL     1       2.841   6.339  19.265  0.00  0.00    +0.000 N 
ATOM      2  C   UNL     1       2.089   7.303  19.944  0.00  0.00    +0.000 A 
ATOM      3  C   UNL     1       1.781   8.476  19.329  0.00  0.00    +0.000 A 
ATOM      4  C   UNL     1       2.317   8.726  17.976  0.00  0.00    +0.000 A 
ATOM      5  O   UNL     1       2.087   9.772  17.370  0.00  0.00    +0.000 OA
ATOM      6  N   UNL     1       3.090   7.750  17.429  0.00  0.00    +0.000 N 
ATOM      7  C   UNL     1       3.341   6.532  17.985  0.00  0.00    +0.000 A 
ATOM      8  O   UNL     1       3.966   5.694  17.340  0.00  0.00    +0.000 OA
ATOM      9  H   UNL     1       3.446   7.893  16.494  0.00  0.00    +0.000 HD
ENDROOT
BRANCH   3  10
ATOM     10  C   UNL     1       0.906   9.469  20.029  0.00  0.00    +0.000 C 
ATOM     11  O   UNL     1      -0.020   9.108  20.745  0.00  0.00    +0.000 OA
ATOM     12  N   UNL     1       1.200  10.823  19.865  0.00  0.00    +0.000 N 
ATOM     13  H   UNL     1       2.028  11.138  19.351  0.00  0.00    +0.000 HD
BRANCH  12  14
ATOM     14  S   UNL     1       0.279  12.041  20.537  0.00  0.00    +0.000 S 
ATOM     15  O   UNL     1       0.047  11.664  21.913  0.00  0.00    +0.000 OA
ATOM     16  O   UNL     1       0.897  13.306  20.201  0.00  0.00    +0.000 OA
BRANCH  14  17
ATOM     17  C   UNL     1      -1.280  11.907  19.689  0.00  0.00    +0.000 A 
ATOM     18  C   UNL     1      -1.300  11.413  18.383  0.00  0.00    +0.000 A 
ATOM     19  C   UNL     1      -2.510  11.359  17.687  0.00  0.00    +0.000 A 
ATOM     20  C   UNL     1      -3.699  11.792  18.290  0.00  0.00    +0.000 A 
ATOM     21  C   UNL     1      -4.998  11.752  17.539  0.00  0.00    +0.000 C 
ATOM     22  C   UNL     1      -3.666  12.268  19.608  0.00  0.00    +0.000 A 
ATOM     23  C   UNL     1      -2.460  12.327  20.310  0.00  0.00    +0.000 A 
ENDBRANCH  14  17
ENDBRANCH  12  14
ENDBRANCH   3  10
BRANCH   2  24
ATOM     24  N   UNL     1       1.643   7.000  21.222  0.00  0.00    +0.000 N 
ATOM     25  H   UNL     1       1.833   7.706  21.926  0.00  0.00    +0.000 HD
ATOM     26  H   UNL     1       0.669   6.670  21.272  0.00  0.00    +0.000 HD
ENDBRANCH   2  24
BRANCH   1  27
ATOM     27  C   UNL     1       3.012   4.997  19.859  0.00  0.00    +0.000 C 
BRANCH  27  28
ATOM     28  C   UNL     1       1.827   4.066  19.569  0.00  0.00    +0.000 C 
BRANCH  28  30
ATOM     29  C   UNL     1       1.800   3.007  21.658  0.00  0.00    +0.000 C 
ATOM     30  O   UNL     1       1.072   3.841  20.760  0.00  0.00    +0.000 OA
ENDBRANCH  28  30
ENDBRANCH  27  28
ENDBRANCH   1  27
TORSDOF 7
ENDMDL
MODEL 7
REMARK VINA RESULT:      -6.7      2.114      2.784
REMARK  Name = 
REMARK  9 active torsions:
REMARK  status: ('A' for Active; 'I' for Inactive)
REMARK    1  A    between atoms: C_1  and  O_2
REMARK    2  A    between atoms: O_2  and  C_3
REMARK    3  A    between atoms: C_3  and  C_4
REMARK    4  A    between atoms: C_4  and  N_5
REMARK    5  A    between atoms: C_6  and  N_7
REMARK    6  A    between atoms: C_8  and  C_9
REMARK    7  A    between atoms: N_11  and  S_12
REMARK    8  A    between atoms: S_12  and  C_15
REMARK    9  A    between atoms: C_18  and  C_19
REMARK                            x       y       z     vdW  Elec       q    Type
REMARK                         _______ _______ _______ _____ _____    ______ ____
ROOT
ATOM      1  N   UNL     1       0.542  11.086  20.295  0.00  0.00    +0.000 N 
ATOM      2  C   UNL     1       0.835   9.731  20.483  0.00  0.00    +0.000 A 
ATOM      3  C   UNL     1       1.425   9.024  19.483  0.00  0.00    +0.000 A 
ATOM      4  C   UNL     1       1.675   9.697  18.193  0.00  0.00    +0.000 A 
ATOM      5  O   UNL     1       2.192   9.109  17.244  0.00  0.00    +0.000 OA
ATOM      6  N   UNL     1       1.294  10.998  18.093  0.00  0.00    +0.000 N 
ATOM      7  C   UNL     1       0.783  11.755  19.103  0.00  0.00    +0.000 A 
ATOM      8  O   UNL     1       0.581  12.953  18.915  0.00  0.00    +0.000 OA
ATOM      9  H   UNL     1       1.479  11.483  17.225  0.00  0.00    +0.000 HD
ENDROOT
BRANCH   3  10
ATOM     10  C   UNL     1       1.814   7.597  19.719  0.00  0.00    +0.000 C 
ATOM     11  O   UNL     1       1.534   7.026  20.766  0.00  0.00    +0.000 OA
ATOM     12  N   UNL     1       2.477   6.926  18.691  0.00  0.00    +0.000 N 
ATOM     13  H   UNL     1       2.630   7.357  17.775  0.00  0.00    +0.000 HD
BRANCH  12  14
ATOM     14  S   UNL     1       3.019   5.354  18.833  0.00  0.00    +0.000 S 
ATOM     15  O   UNL     1       3.803   5.302  20.046  0.00  0.00    +0.000 OA
ATOM     16  O   UNL     1       1.889   4.473  18.632  0.00  0.00    +0.000 OA
BRANCH  14  17
ATOM     17  C   UNL     1       4.151   5.175  17.471  0.00  0.00    +0.000 A 
ATOM     18  C   UNL     1       4.558   6.314  16.774  0.00  0.00    +0.000 A 
ATOM     19  C   UNL     1       5.398   6.178  15.666  0.00  0.00    +0.000 A 
ATOM     20  C   UNL     1       5.838   4.912  15.256  0.00  0.00    +0.000 A 
ATOM     21  C   UNL     1       6.728   4.761  14.057  0.00  0.00    +0.000 C 
ATOM     22  C   UNL     1       5.437   3.779  15.978  0.00  0.00    +0.000 A 
ATOM     23  C   UNL     1       4.594   3.906  17.085  0.00  0.00    +0.000 A 
ENDBRANCH  14  17
ENDBRANCH  12  14
ENDBRANCH   3  10
BRANCH   2  24
ATOM     24  N   UNL     1       0.549   9.168  21.717  0.00  0.00    +0.000 N 
ATOM     25  H   UNL     1       0.640   8.159  21.764  0.00  0.00    +0.000 HD
ATOM     26  H   UNL     1       1.007   9.626  22.517  0.00  0.00    +0.000 HD
ENDBRANCH   2  24
BRANCH   1  27
ATOM     27  C   UNL     1       0.079  11.897  21.440  0.00  0.00    +0.000 C 
BRANCH  27  28
ATOM     28  C   UNL     1      -1.451  11.992  21.520  0.00  0.00    +0.000 C 
BRANCH  28  30
ATOM     29  C   UNL     1      -2.937  12.147  23.323  0.00  0.00    +0.000 C 
ATOM     30  O   UNL     1      -1.839  12.764  22.656  0.00  0.00    +0.000 OA
ENDBRANCH  28  30
ENDBRANCH  27  28
ENDBRANCH   1  27
TORSDOF 7
ENDMDL
MODEL 8
REMARK VINA RESULT:      -6.6      3.859      8.164
REMARK  Name = 
REMARK  9 active torsions:
REMARK  status: ('A' for Active; 'I' for Inactive)
REMARK    1  A    between atoms: C_1  and  O_2
REMARK    2  A    between atoms: O_2  and  C_3
REMARK    3  A    between atoms: C_3  and  C_4
REMARK    4  A    between atoms: C_4  and  N_5
REMARK    5  A    between atoms: C_6  and  N_7
REMARK    6  A    between atoms: C_8  and  C_9
REMARK    7  A    between atoms: N_11  and  S_12
REMARK    8  A    between atoms: S_12  and  C_15
REMARK    9  A    between atoms: C_18  and  C_19
REMARK                            x       y       z     vdW  Elec       q    Type
REMARK                         _______ _______ _______ _____ _____    ______ ____
ROOT
ATOM      1  N   UNL     1       2.991   6.276  19.213  0.00  0.00    +0.000 N 
ATOM      2  C   UNL     1       2.191   7.185  19.913  0.00  0.00    +0.000 A 
ATOM      3  C   UNL     1       1.798   8.340  19.314  0.00  0.00    +0.000 A 
ATOM      4  C   UNL     1       2.292   8.634  17.954  0.00  0.00    +0.000 A 
ATOM      5  O   UNL     1       1.984   9.668  17.362  0.00  0.00    +0.000 OA
ATOM      6  N   UNL     1       3.115   7.714  17.385  0.00  0.00    +0.000 N 
ATOM      7  C   UNL     1       3.454   6.510  17.925  0.00  0.00    +0.000 A 
ATOM      8  O   UNL     1       4.120   5.719  17.262  0.00  0.00    +0.000 OA
ATOM      9  H   UNL     1       3.444   7.886  16.445  0.00  0.00    +0.000 HD
ENDROOT
BRANCH   3  10
ATOM     10  C   UNL     1       0.873   9.269  20.038  0.00  0.00    +0.000 C 
ATOM     11  O   UNL     1       0.017   8.846  20.803  0.00  0.00    +0.000 OA
ATOM     12  N   UNL     1       1.043  10.640  19.837  0.00  0.00    +0.000 N 
ATOM     13  H   UNL     1       1.816  11.013  19.279  0.00  0.00    +0.000 HD
BRANCH  12  14
ATOM     14  S   UNL     1       0.052  11.789  20.532  0.00  0.00    +0.000 S 
ATOM     15  O   UNL     1      -1.265  11.582  19.975  0.00  0.00    +0.000 OA
ATOM     16  O   UNL     1       0.274  11.762  21.962  0.00  0.00    +0.000 OA
BRANCH  14  17
ATOM     17  C   UNL     1       0.663  13.325  19.873  0.00  0.00    +0.000 A 
ATOM     18  C   UNL     1      -0.251  14.297  19.462  0.00  0.00    +0.000 A 
ATOM     19  C   UNL     1       0.216  15.481  18.887  0.00  0.00    +0.000 A 
ATOM     20  C   UNL     1       1.591  15.701  18.726  0.00  0.00    +0.000 A 
ATOM     21  C   UNL     1       2.096  16.965  18.094  0.00  0.00    +0.000 C 
ATOM     22  C   UNL     1       2.497  14.724  19.161  0.00  0.00    +0.000 A 
ATOM     23  C   UNL     1       2.038  13.536  19.734  0.00  0.00    +0.000 A 
ENDBRANCH  14  17
ENDBRANCH  12  14
ENDBRANCH   3  10
BRANCH   2  24
ATOM     24  N   UNL     1       1.789   6.843  21.196  0.00  0.00    +0.000 N 
ATOM     25  H   UNL     1       0.804   6.620  21.295  0.00  0.00    +0.000 HD
ATOM     26  H   UNL     1       2.382   6.144  21.662  0.00  0.00    +0.000 HD
ENDBRANCH   2  24
BRANCH   1  27
ATOM     27  C   UNL     1       3.258   4.943  19.791  0.00  0.00    +0.000 C 
BRANCH  27  28
ATOM     28  C   UNL     1       2.172   3.917  19.441  0.00  0.00    +0.000 C 
BRANCH  28  30
ATOM     29  C   UNL     1       1.725   2.966  21.534  0.00  0.00    +0.000 C 
ATOM     30  O   UNL     1       1.226   3.816  20.505  0.00  0.00    +0.000 OA
ENDBRANCH  28  30
ENDBRANCH  27  28
ENDBRANCH   1  27
TORSDOF 7
ENDMDL
MODEL 9
REMARK VINA RESULT:      -6.6      3.379      7.687
REMARK  Name = 
REMARK  9 active torsions:
REMARK  status: ('A' for Active; 'I' for Inactive)
REMARK    1  A    between atoms: C_1  and  O_2
REMARK    2  A    between atoms: O_2  and  C_3
REMARK    3  A    between atoms: C_3  and  C_4
REMARK    4  A    between atoms: C_4  and  N_5
REMARK    5  A    between atoms: C_6  and  N_7
REMARK    6  A    between atoms: C_8  and  C_9
REMARK    7  A    between atoms: N_11  and  S_12
REMARK    8  A    between atoms: S_12  and  C_15
REMARK    9  A    between atoms: C_18  and  C_19
REMARK                            x       y       z     vdW  Elec       q    Type
REMARK                         _______ _______ _______ _____ _____    ______ ____
ROOT
ATOM      1  N   UNL     1       2.659   4.587  18.836  0.00  0.00    +0.000 N 
ATOM      2  C   UNL     1       2.171   5.675  19.568  0.00  0.00    +0.000 A 
ATOM      3  C   UNL     1       2.431   6.942  19.149  0.00  0.00    +0.000 A 
ATOM      4  C   UNL     1       3.290   7.132  17.963  0.00  0.00    +0.000 A 
ATOM      5  O   UNL     1       3.576   8.252  17.541  0.00  0.00    +0.000 OA
ATOM      6  N   UNL     1       3.766   6.010  17.360  0.00  0.00    +0.000 N 
ATOM      7  C   UNL     1       3.450   4.730  17.704  0.00  0.00    +0.000 A 
ATOM      8  O   UNL     1       3.860   3.802  17.010  0.00  0.00    +0.000 OA
ATOM      9  H   UNL     1       4.336   6.119  16.533  0.00  0.00    +0.000 HD
ENDROOT
BRANCH   3  10
ATOM     10  C   UNL     1       1.837   8.100  19.889  0.00  0.00    +0.000 C 
ATOM     11  O   UNL     1       1.848   8.148  21.112  0.00  0.00    +0.000 OA
ATOM     12  N   UNL     1       1.297   9.143  19.134  0.00  0.00    +0.000 N 
ATOM     13  H   UNL     1       1.368   9.165  18.114  0.00  0.00    +0.000 HD
BRANCH  12  14
ATOM     14  S   UNL     1       0.551  10.469  19.821  0.00  0.00    +0.000 S 
ATOM     15  O   UNL     1       0.157  10.070  21.153  0.00  0.00    +0.000 OA
ATOM     16  O   UNL     1       1.401  11.621  19.604  0.00  0.00    +0.000 OA
BRANCH  14  17
ATOM     17  C   UNL     1      -0.941  10.653  18.869  0.00  0.00    +0.000 A 
ATOM     18  C   UNL     1      -1.078   9.936  17.679  0.00  0.00    +0.000 A 
ATOM     19  C   UNL     1      -2.218  10.119  16.893  0.00  0.00    +0.000 A 
ATOM     20  C   UNL     1      -3.224  11.010  17.293  0.00  0.00    +0.000 A 
ATOM     21  C   UNL     1      -4.443  11.221  16.443  0.00  0.00    +0.000 C 
ATOM     22  C   UNL     1      -3.081  11.709  18.499  0.00  0.00    +0.000 A 
ATOM     23  C   UNL     1      -1.942  11.533  19.290  0.00  0.00    +0.000 A 
ENDBRANCH  14  17
ENDBRANCH  12  14
ENDBRANCH   3  10
BRANCH   2  24
ATOM     24  N   UNL     1       1.391   5.411  20.683  0.00  0.00    +0.000 N 
ATOM     25  H   UNL     1       0.592   4.808  20.520  0.00  0.00    +0.000 HD
ATOM     26  H   UNL     1       1.917   5.121  21.519  0.00  0.00    +0.000 HD
ENDBRANCH   2  24
BRANCH   1  27
ATOM     27  C   UNL     1       2.219   3.220  19.180  0.00  0.00    +0.000 C 
BRANCH  27  28
ATOM     28  C   UNL     1       3.213   2.489  20.092  0.00  0.00    +0.000 C 
BRANCH  28  30
ATOM     29  C   UNL     1       1.627   2.350  21.809  0.00  0.00    +0.000 C 
ATOM     30  O   UNL     1       2.939   2.784  21.461  0.00  0.00    +0.000 OA
ENDBRANCH  28  30
ENDBRANCH  27  28
ENDBRANCH   1  27
TORSDOF 7
ENDMDL
