MODEL 1
REMARK VINA RESULT:      -6.5      0.000      0.000
REMARK  Name = 
REMARK  7 active torsions:
REMARK  status: ('A' for Active; 'I' for Inactive)
REMARK    1  A    between atoms: C_1  and  C_2
REMARK    2  A    between atoms: C_2  and  C_3
REMARK    3  A    between atoms: C_2  and  N_24
REMARK    4  A    between atoms: C_3  and  C_4
REMARK    5  A    between atoms: C_4  and  C_5
REMARK    6  A    between atoms: C_4  and  C_12
REMARK    7  A    between atoms: C_4  and  C_18
REMARK                            x       y       z     vdW  Elec       q    Type
REMARK                         _______ _______ _______ _____ _____    ______ ____
ROOT
ATOM      1  C   UNL     1      -0.655  11.402  19.433  0.00  0.00    +0.000 C 
ENDROOT
BRANCH   1   2
ATOM      2  C   UNL     1       0.020  12.751  18.948  0.00  0.00    +0.000 C 
ATOM      3  O   UNL     1      -0.532  13.470  18.100  0.00  0.00    +0.000 OA
ATOM      4  N   UNL     1       1.184  13.249  19.497  0.00  0.00    +0.000 N 
ATOM      5  C   UNL     1       2.148  12.627  20.382  0.00  0.00    +0.000 C 
ATOM      6  C   UNL     1       2.954  13.798  20.915  0.00  0.00    +0.000 C 
ATOM      7  C   UNL     1       2.997  14.770  19.745  0.00  0.00    +0.000 C 
ATOM      8  C   UNL     1       1.689  14.524  19.008  0.00  0.00    +0.000 C 
ENDBRANCH   1   2
BRANCH   1   9
ATOM      9  C   UNL     1       0.321  10.168  19.308  0.00  0.00    +0.000 A 
ATOM     10  C   UNL     1       1.072   9.884  18.143  0.00  0.00    +0.000 A 
ATOM     11  C   UNL     1       1.979   8.821  18.087  0.00  0.00    +0.000 A 
ATOM     12  C   UNL     1       2.165   8.009  19.198  0.00  0.00    +0.000 A 
ATOM     13  C   UNL     1       1.427   8.247  20.352  0.00  0.00    +0.000 A 
ATOM     14  C   UNL     1       0.512   9.305  20.404  0.00  0.00    +0.000 A 
ENDBRANCH   1   9
BRANCH   1  15
ATOM     15  C   UNL     1      -1.916  11.066  18.551  0.00  0.00    +0.000 A 
ATOM     16  C   UNL     1      -1.889  10.037  17.589  0.00  0.00    +0.000 A 
ATOM     17  C   UNL     1      -2.958   9.809  16.722  0.00  0.00    +0.000 A 
ATOM     18  C   UNL     1      -4.103  10.593  16.813  0.00  0.00    +0.000 A 
ATOM     19  C   UNL     1      -4.200  11.545  17.820  0.00  0.00    +0.000 A 
ATOM     20  C   UNL     1      -3.136  11.743  18.707  0.00  0.00    +0.000 A 
ENDBRANCH   1  15
BRANCH   1  21
ATOM     21  C   UNL     1      -1.070  11.614  20.954  0.00  0.00    +0.000 C 
BRANCH  21  23
ATOM     22  C   UNL     1      -0.565  13.705  22.332  0.00  0.00    +0.000 C 
ATOM     23  C   UNL     1      -1.638  12.965  21.518  0.00  0.00    +0.000 C 
BRANCH  23  24
ATOM     24  N   UNL     1      -2.849  12.703  22.383  0.00  0.00    +0.000 NA
ATOM     25  C   UNL     1      -4.154  12.770  21.664  0.00  0.00    +0.000 C 
ATOM     26  C   UNL     1      -4.514  14.189  21.200  0.00  0.00    +0.000 C 
ATOM     27  O   UNL     1      -4.647  15.064  22.324  0.00  0.00    +0.000 OA
ATOM     28  C   UNL     1      -3.434  15.081  23.092  0.00  0.00    +0.000 C 
ATOM     29  C   UNL     1      -3.005  13.663  23.517  0.00  0.00    +0.000 C 
ENDBRANCH  23  24
ENDBRANCH  21  23
ENDBRANCH   1  21
TORSDOF 6
ENDMDL
MODEL 2
REMARK VINA RESULT:      -6.4      0.357      1.307
REMARK  Name = 
REMARK  7 active torsions:
REMARK  status: ('A' for Active; 'I' for Inactive)
REMARK    1  A    between atoms: C_1  and  C_2
REMARK    2  A    between atoms: C_2  and  C_3
REMARK    3  A    between atoms: C_2  and  N_24
REMARK    4  A    between atoms: C_3  and  C_4
REMARK    5  A    between atoms: C_4  and  C_5
REMARK    6  A    between atoms: C_4  and  C_12
REMARK    7  A    between atoms: C_4  and  C_18
REMARK                            x       y       z     vdW  Elec       q    Type
REMARK                         _______ _______ _______ _____ _____    ______ ____
ROOT
ATOM      1  C   UNL     1      -0.527  11.573  19.619  0.00  0.00    +0.000 C 
ENDROOT
BRANCH   1   2
ATOM      2  C   UNL     1       0.106  12.916  19.065  0.00  0.00    +0.000 C 
ATOM      3  O   UNL     1      -0.485  13.592  18.208  0.00  0.00    +0.000 OA
ATOM      4  N   UNL     1       1.277  13.456  19.560  0.00  0.00    +0.000 N 
ATOM      5  C   UNL     1       2.278  12.885  20.437  0.00  0.00    +0.000 C 
ATOM      6  C   UNL     1       3.076  14.090  20.902  0.00  0.00    +0.000 C 
ATOM      7  C   UNL     1       3.065  15.018  19.696  0.00  0.00    +0.000 C 
ATOM      8  C   UNL     1       1.742  14.721  19.009  0.00  0.00    +0.000 C 
ENDBRANCH   1   2
BRANCH   1   9
ATOM      9  C   UNL     1       0.447  10.343  19.457  0.00  0.00    +0.000 A 
ATOM     10  C   UNL     1       0.663   9.380  20.472  0.00  0.00    +0.000 A 
ATOM     11  C   UNL     1       1.483   8.265  20.272  0.00  0.00    +0.000 A 
ATOM     12  C   UNL     1       2.110   8.075  19.049  0.00  0.00    +0.000 A 
ATOM     13  C   UNL     1       1.937   9.013  18.036  0.00  0.00    +0.000 A 
ATOM     14  C   UNL     1       1.125  10.135  18.240  0.00  0.00    +0.000 A 
ENDBRANCH   1   9
BRANCH   1  15
ATOM     15  C   UNL     1      -1.839  11.213  18.827  0.00  0.00    +0.000 A 
ATOM     16  C   UNL     1      -3.014  11.979  18.960  0.00  0.00    +0.000 A 
ATOM     17  C   UNL     1      -4.214  11.601  18.356  0.00  0.00    +0.000 A 
ATOM     18  C   UNL     1      -4.265  10.453  17.573  0.00  0.00    +0.000 A 
ATOM     19  C   UNL     1      -3.098   9.736  17.338  0.00  0.00    +0.000 A 
ATOM     20  C   UNL     1      -1.892  10.142  17.920  0.00  0.00    +0.000 A 
ENDBRANCH   1  15
BRANCH   1  21
ATOM     21  C   UNL     1      -0.845  11.814  21.158  0.00  0.00    +0.000 C 
BRANCH  21  23
ATOM     22  C   UNL     1      -0.476  14.018  22.398  0.00  0.00    +0.000 C 
ATOM     23  C   UNL     1      -1.518  13.122  21.711  0.00  0.00    +0.000 C 
BRANCH  23  24
ATOM     24  N   UNL     1      -2.618  12.772  22.687  0.00  0.00    +0.000 NA
ATOM     25  C   UNL     1      -3.978  12.673  22.084  0.00  0.00    +0.000 C 
ATOM     26  C   UNL     1      -4.525  14.026  21.606  0.00  0.00    +0.000 C 
ATOM     27  O   UNL     1      -4.656  14.929  22.709  0.00  0.00    +0.000 OA
ATOM     28  C   UNL     1      -3.392  15.104  23.367  0.00  0.00    +0.000 C 
ATOM     29  C   UNL     1      -2.780  13.756  23.798  0.00  0.00    +0.000 C 
ENDBRANCH  23  24
ENDBRANCH  21  23
ENDBRANCH   1  21
TORSDOF 6
ENDMDL
MODEL 3
REMARK VINA RESULT:      -6.3      0.498      1.048
REMARK  Name = 
REMARK  7 active torsions:
REMARK  status: ('A' for Active; 'I' for Inactive)
REMARK    1  A    between atoms: C_1  and  C_2
REMARK    2  A    between atoms: C_2  and  C_3
REMARK    3  A    between atoms: C_2  and  N_24
REMARK    4  A    between atoms: C_3  and  C_4
REMARK    5  A    between atoms: C_4  and  C_5
REMARK    6  A    between atoms: C_4  and  C_12
REMARK    7  A    between atoms: C_4  and  C_18
REMARK                            x       y       z     vdW  Elec       q    Type
REMARK                         _______ _______ _______ _____ _____    ______ ____
ROOT
ATOM      1  C   UNL     1      -0.696  11.464  19.374  0.00  0.00    +0.000 C 
ENDROOT
BRANCH   1   2
ATOM      2  C   UNL     1      -0.031  12.828  18.918  0.00  0.00    +0.000 C 
ATOM      3  O   UNL     1      -0.560  13.535  18.046  0.00  0.00    +0.000 OA
ATOM      4  N   UNL     1       1.097  13.352  19.518  0.00  0.00    +0.000 N 
ATOM      5  C   UNL     1       2.034  12.751  20.445  0.00  0.00    +0.000 C 
ATOM      6  C   UNL     1       2.790  13.940  21.012  0.00  0.00    +0.000 C 
ATOM      7  C   UNL     1       2.863  14.913  19.844  0.00  0.00    +0.000 C 
ATOM      8  C   UNL     1       1.595  14.638  19.051  0.00  0.00    +0.000 C 
ENDBRANCH   1   2
BRANCH   1   9
ATOM      9  C   UNL     1       0.331  10.267  19.363  0.00  0.00    +0.000 A 
ATOM     10  C   UNL     1       0.499   9.374  20.448  0.00  0.00    +0.000 A 
ATOM     11  C   UNL     1       1.371   8.283  20.381  0.00  0.00    +0.000 A 
ATOM     12  C   UNL     1       2.101   8.048  19.224  0.00  0.00    +0.000 A 
ATOM     13  C   UNL     1       1.976   8.917  18.146  0.00  0.00    +0.000 A 
ATOM     14  C   UNL     1       1.111  10.016  18.217  0.00  0.00    +0.000 A 
ENDBRANCH   1   9
BRANCH   1  15
ATOM     15  C   UNL     1      -1.862  11.063  18.394  0.00  0.00    +0.000 A 
ATOM     16  C   UNL     1      -1.666  10.123  17.363  0.00  0.00    +0.000 A 
ATOM     17  C   UNL     1      -2.654   9.848  16.417  0.00  0.00    +0.000 A 
ATOM     18  C   UNL     1      -3.885  10.492  16.493  0.00  0.00    +0.000 A 
ATOM     19  C   UNL     1      -4.143  11.345  17.559  0.00  0.00    +0.000 A 
ATOM     20  C   UNL     1      -3.157  11.588  18.522  0.00  0.00    +0.000 A 
ENDBRANCH   1  15
BRANCH   1  21
ATOM     21  C   UNL     1      -1.250  11.691  20.847  0.00  0.00    +0.000 C 
BRANCH  21  23
ATOM     22  C   UNL     1      -0.689  13.390  22.671  0.00  0.00    +0.000 C 
ATOM     23  C   UNL     1      -1.571  13.107  21.445  0.00  0.00    +0.000 C 
BRANCH  23  24
ATOM     24  N   UNL     1      -3.030  13.194  21.831  0.00  0.00    +0.000 NA
ATOM     25  C   UNL     1      -3.877  13.983  20.892  0.00  0.00    +0.000 C 
ATOM     26  C   UNL     1      -3.554  15.484  20.905  0.00  0.00    +0.000 C 
ATOM     27  O   UNL     1      -3.797  16.037  22.202  0.00  0.00    +0.000 OA
ATOM     28  C   UNL     1      -3.020  15.348  23.194  0.00  0.00    +0.000 C 
ATOM     29  C   UNL     1      -3.269  13.827  23.162  0.00  0.00    +0.000 C 
ENDBRANCH  23  24
ENDBRANCH  21  23
ENDBRANCH   1  21
TORSDOF 6
ENDMDL
MODEL 4
REMARK VINA RESULT:      -6.2      1.416      4.321
REMARK  Name = 
REMARK  7 active torsions:
REMARK  status: ('A' for Active; 'I' for Inactive)
REMARK    1  A    between atoms: C_1  and  C_2
REMARK    2  A    between atoms: C_2  and  C_3
REMARK    3  A    between atoms: C_2  and  N_24
REMARK    4  A    between atoms: C_3  and  C_4
REMARK    5  A    between atoms: C_4  and  C_5
REMARK    6  A    between atoms: C_4  and  C_12
REMARK    7  A    between atoms: C_4  and  C_18
REMARK                            x       y       z     vdW  Elec       q    Type
REMARK                         _______ _______ _______ _____ _____    ______ ____
ROOT
ATOM      1  C   UNL     1      -0.719  11.127  20.124  0.00  0.00    +0.000 C 
ENDROOT
BRANCH   1   2
ATOM      2  C   UNL     1       0.087   9.798  20.434  0.00  0.00    +0.000 C 
ATOM      3  O   UNL     1      -0.137   9.144  21.464  0.00  0.00    +0.000 OA
ATOM      4  N   UNL     1       0.994   9.246  19.552  0.00  0.00    +0.000 N 
ATOM      5  C   UNL     1       1.592   9.794  18.352  0.00  0.00    +0.000 C 
ATOM      6  C   UNL     1       2.171   8.578  17.651  0.00  0.00    +0.000 C 
ATOM      7  C   UNL     1       2.618   7.680  18.795  0.00  0.00    +0.000 C 
ATOM      8  C   UNL     1       1.641   7.995  19.918  0.00  0.00    +0.000 C 
ENDBRANCH   1   2
BRANCH   1   9
ATOM      9  C   UNL     1      -1.652  10.977  18.860  0.00  0.00    +0.000 A 
ATOM     10  C   UNL     1      -1.366  10.110  17.779  0.00  0.00    +0.000 A 
ATOM     11  C   UNL     1      -2.248   9.951  16.704  0.00  0.00    +0.000 A 
ATOM     12  C   UNL     1      -3.445  10.652  16.680  0.00  0.00    +0.000 A 
ATOM     13  C   UNL     1      -3.748  11.529  17.716  0.00  0.00    +0.000 A 
ATOM     14  C   UNL     1      -2.861  11.697  18.786  0.00  0.00    +0.000 A 
ENDBRANCH   1   9
BRANCH   1  15
ATOM     15  C   UNL     1       0.269  12.313  19.812  0.00  0.00    +0.000 A 
ATOM     16  C   UNL     1       1.492  12.452  20.499  0.00  0.00    +0.000 A 
ATOM     17  C   UNL     1       2.319  13.561  20.316  0.00  0.00    +0.000 A 
ATOM     18  C   UNL     1       1.956  14.555  19.413  0.00  0.00    +0.000 A 
ATOM     19  C   UNL     1       0.809  14.393  18.645  0.00  0.00    +0.000 A 
ATOM     20  C   UNL     1       0.004  13.261  18.811  0.00  0.00    +0.000 A 
ENDBRANCH   1  15
BRANCH   1  21
ATOM     21  C   UNL     1      -1.596  11.446  21.412  0.00  0.00    +0.000 C 
BRANCH  21  23
ATOM     22  C   UNL     1      -0.855  13.444  22.823  0.00  0.00    +0.000 C 
ATOM     23  C   UNL     1      -1.945  12.903  21.884  0.00  0.00    +0.000 C 
BRANCH  23  24
ATOM     24  N   UNL     1      -3.283  12.918  22.587  0.00  0.00    +0.000 NA
ATOM     25  C   UNL     1      -4.464  12.843  21.680  0.00  0.00    +0.000 C 
ATOM     26  C   UNL     1      -4.647  14.106  20.824  0.00  0.00    +0.000 C 
ATOM     27  O   UNL     1      -4.872  15.246  21.658  0.00  0.00    +0.000 OA
ATOM     28  C   UNL     1      -3.782  15.418  22.577  0.00  0.00    +0.000 C 
ATOM     29  C   UNL     1      -3.525  14.144  23.405  0.00  0.00    +0.000 C 
ENDBRANCH  23  24
ENDBRANCH  21  23
ENDBRANCH   1  21
TORSDOF 6
ENDMDL
MODEL 5
REMARK VINA RESULT:      -6.2      2.262      5.110
REMARK  Name = 
REMARK  7 active torsions:
REMARK  status: ('A' for Active; 'I' for Inactive)
REMARK    1  A    between atoms: C_1  and  C_2
REMARK    2  A    between atoms: C_2  and  C_3
REMARK    3  A    between atoms: C_2  and  N_24
REMARK    4  A    between atoms: C_3  and  C_4
REMARK    5  A    between atoms: C_4  and  C_5
REMARK    6  A    between atoms: C_4  and  C_12
REMARK    7  A    between atoms: C_4  and  C_18
REMARK                            x       y       z     vdW  Elec       q    Type
REMARK                         _______ _______ _______ _____ _____    ______ ____
ROOT
ATOM      1  C   UNL     1      -0.465  11.327  19.674  0.00  0.00    +0.000 C 
ENDROOT
BRANCH   1   2
ATOM      2  C   UNL     1       0.269  10.030  20.213  0.00  0.00    +0.000 C 
ATOM      3  O   UNL     1       0.045   9.602  21.356  0.00  0.00    +0.000 OA
ATOM      4  N   UNL     1       1.105   9.259  19.431  0.00  0.00    +0.000 N 
ATOM      5  C   UNL     1       1.689   9.526  18.132  0.00  0.00    +0.000 C 
ATOM      6  C   UNL     1       2.163   8.162  17.665  0.00  0.00    +0.000 C 
ATOM      7  C   UNL     1       2.598   7.471  18.949  0.00  0.00    +0.000 C 
ATOM      8  C   UNL     1       1.688   8.060  20.016  0.00  0.00    +0.000 C 
ENDBRANCH   1   2
BRANCH   1   9
ATOM      9  C   UNL     1      -1.311  12.044  20.797  0.00  0.00    +0.000 A 
ATOM     10  C   UNL     1      -2.636  12.500  20.602  0.00  0.00    +0.000 A 
ATOM     11  C   UNL     1      -3.382  13.072  21.638  0.00  0.00    +0.000 A 
ATOM     12  C   UNL     1      -2.826  13.203  22.903  0.00  0.00    +0.000 A 
ATOM     13  C   UNL     1      -1.518  12.785  23.123  0.00  0.00    +0.000 A 
ATOM     14  C   UNL     1      -0.767  12.222  22.084  0.00  0.00    +0.000 A 
ENDBRANCH   1   9
BRANCH   1  15
ATOM     15  C   UNL     1      -1.474  10.953  18.524  0.00  0.00    +0.000 A 
ATOM     16  C   UNL     1      -1.615  11.759  17.377  0.00  0.00    +0.000 A 
ATOM     17  C   UNL     1      -2.587  11.503  16.409  0.00  0.00    +0.000 A 
ATOM     18  C   UNL     1      -3.433  10.408  16.551  0.00  0.00    +0.000 A 
ATOM     19  C   UNL     1      -3.248   9.536  17.616  0.00  0.00    +0.000 A 
ATOM     20  C   UNL     1      -2.248   9.783  18.563  0.00  0.00    +0.000 A 
ENDBRANCH   1  15
BRANCH   1  21
ATOM     21  C   UNL     1       0.666  12.308  19.136  0.00  0.00    +0.000 C 
BRANCH  21  23
ATOM     22  C   UNL     1      -0.216  14.658  18.660  0.00  0.00    +0.000 C 
ATOM     23  C   UNL     1       0.750  13.828  19.520  0.00  0.00    +0.000 C 
BRANCH  23  24
ATOM     24  N   UNL     1       2.162  14.336  19.341  0.00  0.00    +0.000 NA
ATOM     25  C   UNL     1       3.092  13.998  20.457  0.00  0.00    +0.000 C 
ATOM     26  C   UNL     1       2.756  14.731  21.764  0.00  0.00    +0.000 C 
ATOM     27  O   UNL     1       2.865  16.146  21.586  0.00  0.00    +0.000 OA
ATOM     28  C   UNL     1       1.999  16.586  20.528  0.00  0.00    +0.000 C 
ATOM     29  C   UNL     1       2.263  15.821  19.216  0.00  0.00    +0.000 C 
ENDBRANCH  23  24
ENDBRANCH  21  23
ENDBRANCH   1  21
TORSDOF 6
ENDMDL
MODEL 6
REMARK VINA RESULT:      -6.1      1.636      4.776
REMARK  Name = 
REMARK  7 active torsions:
REMARK  status: ('A' for Active; 'I' for Inactive)
REMARK    1  A    between atoms: C_1  and  C_2
REMARK    2  A    between atoms: C_2  and  C_3
REMARK    3  A    between atoms: C_2  and  N_24
REMARK    4  A    between atoms: C_3  and  C_4
REMARK    5  A    between atoms: C_4  and  C_5
REMARK    6  A    between atoms: C_4  and  C_12
REMARK    7  A    between atoms: C_4  and  C_18
REMARK                            x       y       z     vdW  Elec       q    Type
REMARK                         _______ _______ _______ _____ _____    ______ ____
ROOT
ATOM      1  C   UNL     1      -0.646  10.947  19.290  0.00  0.00    +0.000 C 
ENDROOT
BRANCH   1   2
ATOM      2  C   UNL     1      -1.637  10.683  18.081  0.00  0.00    +0.000 C 
ATOM      3  O   UNL     1      -1.292   9.983  17.117  0.00  0.00    +0.000 OA
ATOM      4  N   UNL     1      -2.946  11.121  18.074  0.00  0.00    +0.000 N 
ATOM      5  C   UNL     1      -3.630  12.057  18.942  0.00  0.00    +0.000 C 
ATOM      6  C   UNL     1      -5.100  11.801  18.659  0.00  0.00    +0.000 C 
ATOM      7  C   UNL     1      -5.127  11.446  17.179  0.00  0.00    +0.000 C 
ATOM      8  C   UNL     1      -3.783  10.778  16.932  0.00  0.00    +0.000 C 
ENDBRANCH   1   2
BRANCH   1   9
ATOM      9  C   UNL     1       0.145  12.303  19.127  0.00  0.00    +0.000 A 
ATOM     10  C   UNL     1      -0.340  13.403  18.378  0.00  0.00    +0.000 A 
ATOM     11  C   UNL     1       0.355  14.614  18.308  0.00  0.00    +0.000 A 
ATOM     12  C   UNL     1       1.555  14.766  18.988  0.00  0.00    +0.000 A 
ATOM     13  C   UNL     1       2.071  13.699  19.716  0.00  0.00    +0.000 A 
ATOM     14  C   UNL     1       1.381  12.482  19.777  0.00  0.00    +0.000 A 
ENDBRANCH   1   9
BRANCH   1  15
ATOM     15  C   UNL     1       0.436   9.807  19.377  0.00  0.00    +0.000 A 
ATOM     16  C   UNL     1       1.260   9.488  18.279  0.00  0.00    +0.000 A 
ATOM     17  C   UNL     1       2.138   8.404  18.305  0.00  0.00    +0.000 A 
ATOM     18  C   UNL     1       2.236   7.619  19.449  0.00  0.00    +0.000 A 
ATOM     19  C   UNL     1       1.514   7.972  20.582  0.00  0.00    +0.000 A 
ATOM     20  C   UNL     1       0.662   9.082  20.558  0.00  0.00    +0.000 A 
ENDBRANCH   1  15
BRANCH   1  21
ATOM     21  C   UNL     1      -1.529  10.990  20.611  0.00  0.00    +0.000 C 
BRANCH  21  23
ATOM     22  C   UNL     1      -0.983  11.042  23.107  0.00  0.00    +0.000 C 
ATOM     23  C   UNL     1      -1.197  11.898  21.848  0.00  0.00    +0.000 C 
BRANCH  23  24
ATOM     24  N   UNL     1      -2.313  12.889  22.085  0.00  0.00    +0.000 NA
ATOM     25  C   UNL     1      -2.206  14.149  21.295  0.00  0.00    +0.000 C 
ATOM     26  C   UNL     1      -1.027  15.033  21.730  0.00  0.00    +0.000 C 
ATOM     27  O   UNL     1      -1.185  15.443  23.091  0.00  0.00    +0.000 OA
ATOM     28  C   UNL     1      -1.294  14.297  23.950  0.00  0.00    +0.000 C 
ATOM     29  C   UNL     1      -2.425  13.351  23.501  0.00  0.00    +0.000 C 
ENDBRANCH  23  24
ENDBRANCH  21  23
ENDBRANCH   1  21
TORSDOF 6
ENDMDL
MODEL 7
REMARK VINA RESULT:      -6.1      1.883      5.321
REMARK  Name = 
REMARK  7 active torsions:
REMARK  status: ('A' for Active; 'I' for Inactive)
REMARK    1  A    between atoms: C_1  and  C_2
REMARK    2  A    between atoms: C_2  and  C_3
REMARK    3  A    between atoms: C_2  and  N_24
REMARK    4  A    between atoms: C_3  and  C_4
REMARK    5  A    between atoms: C_4  and  C_5
REMARK    6  A    between atoms: C_4  and  C_12
REMARK    7  A    between atoms: C_4  and  C_18
REMARK                            x       y       z     vdW  Elec       q    Type
REMARK                         _______ _______ _______ _____ _____    ______ ____
ROOT
ATOM      1  C   UNL     1       0.134  11.230  19.255  0.00  0.00    +0.000 C 
ENDROOT
BRANCH   1   2
ATOM      2  C   UNL     1      -0.185  11.528  20.778  0.00  0.00    +0.000 C 
ATOM      3  O   UNL     1       0.630  11.238  21.668  0.00  0.00    +0.000 OA
ATOM      4  N   UNL     1      -1.317  12.203  21.192  0.00  0.00    +0.000 N 
ATOM      5  C   UNL     1      -2.518  12.556  20.465  0.00  0.00    +0.000 C 
ATOM      6  C   UNL     1      -3.177  13.602  21.347  0.00  0.00    +0.000 C 
ATOM      7  C   UNL     1      -2.834  13.152  22.759  0.00  0.00    +0.000 C 
ATOM      8  C   UNL     1      -1.485  12.465  22.614  0.00  0.00    +0.000 C 
ENDBRANCH   1   2
BRANCH   1   9
ATOM      9  C   UNL     1      -1.175  10.972  18.411  0.00  0.00    +0.000 A 
ATOM     10  C   UNL     1      -1.629  11.843  17.392  0.00  0.00    +0.000 A 
ATOM     11  C   UNL     1      -2.756  11.552  16.617  0.00  0.00    +0.000 A 
ATOM     12  C   UNL     1      -3.464  10.378  16.836  0.00  0.00    +0.000 A 
ATOM     13  C   UNL     1      -3.058   9.510  17.844  0.00  0.00    +0.000 A 
ATOM     14  C   UNL     1      -1.935   9.807  18.627  0.00  0.00    +0.000 A 
ENDBRANCH   1   9
BRANCH   1  15
ATOM     15  C   UNL     1       1.017   9.933  19.119  0.00  0.00    +0.000 A 
ATOM     16  C   UNL     1       1.741   9.656  17.942  0.00  0.00    +0.000 A 
ATOM     17  C   UNL     1       2.430   8.456  17.765  0.00  0.00    +0.000 A 
ATOM     18  C   UNL     1       2.437   7.504  18.780  0.00  0.00    +0.000 A 
ATOM     19  C   UNL     1       1.819   7.794  19.990  0.00  0.00    +0.000 A 
ATOM     20  C   UNL     1       1.160   9.015  20.171  0.00  0.00    +0.000 A 
ENDBRANCH   1  15
BRANCH   1  21
ATOM     21  C   UNL     1       0.904  12.500  18.688  0.00  0.00    +0.000 C 
BRANCH  21  23
ATOM     22  C   UNL     1      -0.135  14.833  18.761  0.00  0.00    +0.000 C 
ATOM     23  C   UNL     1       0.908  13.901  19.397  0.00  0.00    +0.000 C 
BRANCH  23  24
ATOM     24  N   UNL     1       2.280  14.529  19.309  0.00  0.00    +0.000 NA
ATOM     25  C   UNL     1       3.210  14.150  20.411  0.00  0.00    +0.000 C 
ATOM     26  C   UNL     1       2.792  14.720  21.775  0.00  0.00    +0.000 C 
ATOM     27  O   UNL     1       2.795  16.150  21.741  0.00  0.00    +0.000 OA
ATOM     28  C   UNL     1       1.919  16.629  20.709  0.00  0.00    +0.000 C 
ATOM     29  C   UNL     1       2.267  16.022  19.335  0.00  0.00    +0.000 C 
ENDBRANCH  23  24
ENDBRANCH  21  23
ENDBRANCH   1  21
TORSDOF 6
ENDMDL
MODEL 8
REMARK VINA RESULT:      -6.1      1.786      4.643
REMARK  Name = 
REMARK  7 active torsions:
REMARK  status: ('A' for Active; 'I' for Inactive)
REMARK    1  A    between atoms: C_1  and  C_2
REMARK    2  A    between atoms: C_2  and  C_3
REMARK    3  A    between atoms: C_2  and  N_24
REMARK    4  A    between atoms: C_3  and  C_4
REMARK    5  A    between atoms: C_4  and  C_5
REMARK    6  A    between atoms: C_4  and  C_12
REMARK    7  A    between atoms: C_4  and  C_18
REMARK                            x       y       z     vdW  Elec       q    Type
REMARK                         _______ _______ _______ _____ _____    ______ ____
ROOT
ATOM      1  C   UNL     1      -0.239  11.490  19.682  0.00  0.00    +0.000 C 
ENDROOT
BRANCH   1   2
ATOM      2  C   UNL     1      -0.975  11.385  21.081  0.00  0.00    +0.000 C 
ATOM      3  O   UNL     1      -1.010  10.311  21.702  0.00  0.00    +0.000 OA
ATOM      4  N   UNL     1      -1.521  12.475  21.728  0.00  0.00    +0.000 N 
ATOM      5  C   UNL     1      -1.780  13.818  21.251  0.00  0.00    +0.000 C 
ATOM      6  C   UNL     1      -2.007  14.614  22.525  0.00  0.00    +0.000 C 
ATOM      7  C   UNL     1      -2.691  13.621  23.453  0.00  0.00    +0.000 C 
ATOM      8  C   UNL     1      -2.130  12.271  23.034  0.00  0.00    +0.000 C 
ENDBRANCH   1   2
BRANCH   1   9
ATOM      9  C   UNL     1       0.578  10.184  19.338  0.00  0.00    +0.000 A 
ATOM     10  C   UNL     1       1.048   9.879  18.038  0.00  0.00    +0.000 A 
ATOM     11  C   UNL     1       1.826   8.746  17.780  0.00  0.00    +0.000 A 
ATOM     12  C   UNL     1       2.162   7.884  18.814  0.00  0.00    +0.000 A 
ATOM     13  C   UNL     1       1.698   8.143  20.100  0.00  0.00    +0.000 A 
ATOM     14  C   UNL     1       0.910   9.271  20.357  0.00  0.00    +0.000 A 
ENDBRANCH   1   9
BRANCH   1  15
ATOM     15  C   UNL     1       0.796  12.677  19.689  0.00  0.00    +0.000 A 
ATOM     16  C   UNL     1       0.754  13.697  18.718  0.00  0.00    +0.000 A 
ATOM     17  C   UNL     1       1.735  14.686  18.644  0.00  0.00    +0.000 A 
ATOM     18  C   UNL     1       2.778  14.698  19.564  0.00  0.00    +0.000 A 
ATOM     19  C   UNL     1       2.788  13.768  20.596  0.00  0.00    +0.000 A 
ATOM     20  C   UNL     1       1.781  12.800  20.682  0.00  0.00    +0.000 A 
ENDBRANCH   1  15
BRANCH   1  21
ATOM     21  C   UNL     1      -1.365  11.730  18.585  0.00  0.00    +0.000 C 
BRANCH  21  23
ATOM     22  C   UNL     1      -2.693   9.771  17.621  0.00  0.00    +0.000 C 
ATOM     23  C   UNL     1      -2.742  10.974  18.575  0.00  0.00    +0.000 C 
BRANCH  23  24
ATOM     24  N   UNL     1      -3.852  11.913  18.161  0.00  0.00    +0.000 NA
ATOM     25  C   UNL     1      -4.372  12.783  19.255  0.00  0.00    +0.000 C 
ATOM     26  C   UNL     1      -5.133  12.001  20.336  0.00  0.00    +0.000 C 
ATOM     27  O   UNL     1      -6.282  11.359  19.773  0.00  0.00    +0.000 OA
ATOM     28  C   UNL     1      -5.893  10.484  18.703  0.00  0.00    +0.000 C 
ATOM     29  C   UNL     1      -5.065  11.223  17.632  0.00  0.00    +0.000 C 
ENDBRANCH  23  24
ENDBRANCH  21  23
ENDBRANCH   1  21
TORSDOF 6
ENDMDL
MODEL 9
REMARK VINA RESULT:      -6.1      1.245      1.731
REMARK  Name = 
REMARK  7 active torsions:
REMARK  status: ('A' for Active; 'I' for Inactive)
REMARK    1  A    between atoms: C_1  and  C_2
REMARK    2  A    between atoms: C_2  and  C_3
REMARK    3  A    between atoms: C_2  and  N_24
REMARK    4  A    between atoms: C_3  and  C_4
REMARK    5  A    between atoms: C_4  and  C_5
REMARK    6  A    between atoms: C_4  and  C_12
REMARK    7  A    between atoms: C_4  and  C_18
REMARK                            x       y       z     vdW  Elec       q    Type
REMARK                         _______ _______ _______ _____ _____    ______ ____
ROOT
ATOM      1  C   UNL     1      -0.922  12.087  20.027  0.00  0.00    +0.000 C 
ENDROOT
BRANCH   1   2
ATOM      2  C   UNL     1       0.024  12.923  19.069  0.00  0.00    +0.000 C 
ATOM      3  O   UNL     1      -0.346  13.238  17.927  0.00  0.00    +0.000 OA
ATOM      4  N   UNL     1       1.245  13.425  19.470  0.00  0.00    +0.000 N 
ATOM      5  C   UNL     1       2.035  13.145  20.651  0.00  0.00    +0.000 C 
ATOM      6  C   UNL     1       3.041  14.282  20.688  0.00  0.00    +0.000 C 
ATOM      7  C   UNL     1       3.315  14.570  19.219  0.00  0.00    +0.000 C 
ATOM      8  C   UNL     1       2.010  14.222  18.521  0.00  0.00    +0.000 C 
ENDBRANCH   1   2
BRANCH   1   9
ATOM      9  C   UNL     1      -0.227  10.771  20.552  0.00  0.00    +0.000 A 
ATOM     10  C   UNL     1       0.601   9.952  19.747  0.00  0.00    +0.000 A 
ATOM     11  C   UNL     1       1.256   8.829  20.261  0.00  0.00    +0.000 A 
ATOM     12  C   UNL     1       1.107   8.491  21.599  0.00  0.00    +0.000 A 
ATOM     13  C   UNL     1       0.284   9.262  22.414  0.00  0.00    +0.000 A 
ATOM     14  C   UNL     1      -0.380  10.380  21.897  0.00  0.00    +0.000 A 
ENDBRANCH   1   9
BRANCH   1  15
ATOM     15  C   UNL     1      -2.221  11.631  19.262  0.00  0.00    +0.000 A 
ATOM     16  C   UNL     1      -2.193  10.579  18.325  0.00  0.00    +0.000 A 
ATOM     17  C   UNL     1      -3.308  10.246  17.556  0.00  0.00    +0.000 A 
ATOM     18  C   UNL     1      -4.500  10.943  17.725  0.00  0.00    +0.000 A 
ATOM     19  C   UNL     1      -4.588  11.914  18.714  0.00  0.00    +0.000 A 
ATOM     20  C   UNL     1      -3.473  12.218  19.504  0.00  0.00    +0.000 A 
ENDBRANCH   1  15
BRANCH   1  21
ATOM     21  C   UNL     1      -1.291  13.032  21.252  0.00  0.00    +0.000 C 
BRANCH  21  23
ATOM     22  C   UNL     1      -1.683  15.443  20.501  0.00  0.00    +0.000 C 
ATOM     23  C   UNL     1      -2.324  14.211  21.157  0.00  0.00    +0.000 C 
BRANCH  23  24
ATOM     24  N   UNL     1      -2.836  14.570  22.534  0.00  0.00    +0.000 NA
ATOM     25  C   UNL     1      -2.540  13.561  23.591  0.00  0.00    +0.000 C 
ATOM     26  C   UNL     1      -3.312  12.247  23.402  0.00  0.00    +0.000 C 
ATOM     27  O   UNL     1      -4.722  12.481  23.475  0.00  0.00    +0.000 OA
ATOM     28  C   UNL     1      -5.122  13.443  22.487  0.00  0.00    +0.000 C 
ATOM     29  C   UNL     1      -4.316  14.752  22.603  0.00  0.00    +0.000 C 
ENDBRANCH  23  24
ENDBRANCH  21  23
ENDBRANCH   1  21
TORSDOF 6
ENDMDL
