MODEL 1
REMARK VINA RESULT:      -6.8      0.000      0.000
REMARK  Name = 
REMARK  5 active torsions:
REMARK  status: ('A' for Active; 'I' for Inactive)
REMARK    1  A    between atoms: C_1  and  C_2
REMARK    2  A    between atoms: C_2  and  N_3
REMARK    3  A    between atoms: C_2  and  C_12
REMARK    4  A    between atoms: N_3  and  C_4
REMARK    5  A    between atoms: C_27  and  N_28
REMARK                            x       y       z     vdW  Elec       q    Type
REMARK                         _______ _______ _______ _____ _____    ______ ____
ROOT
ATOM      1  C   UNL     1      -1.745  13.015  19.942  0.00  0.00    +0.000 A 
ATOM      2  N   UNL     1      -1.455  12.473  18.798  0.00  0.00    +0.000 NA
ATOM      3  C   UNL     1      -2.452  11.887  18.028  0.00  0.00    +0.000 A 
ATOM      4  C   UNL     1      -2.078  11.418  16.766  0.00  0.00    +0.000 A 
ATOM      5  C   UNL     1      -3.008  10.827  15.920  0.00  0.00    +0.000 A 
ATOM      6  C   UNL     1      -4.327  10.696  16.349  0.00  0.00    +0.000 A 
ATOM      7  C   UNL     1      -4.714  11.154  17.618  0.00  0.00    +0.000 A 
ATOM      8 CL   UNL     1      -6.383  10.940  18.010  0.00  0.00    +0.000 Cl
ATOM      9  C   UNL     1      -3.772  11.756  18.468  0.00  0.00    +0.000 A 
ATOM     10  C   UNL     1      -4.065  12.315  19.813  0.00  0.00    +0.000 A 
ATOM     11  O   UNL     1      -5.174  12.160  20.318  0.00  0.00    +0.000 OA
ATOM     12  N   UNL     1      -3.029  13.021  20.443  0.00  0.00    +0.000 N 
ATOM     13  C   UNL     1      -3.377  13.793  21.579  0.00  0.00    +0.000 A 
ATOM     14  C   UNL     1      -3.962  13.200  22.700  0.00  0.00    +0.000 A 
ATOM     15  N   UNL     1      -4.149  13.851  23.880  0.00  0.00    +0.000 NA
ATOM     16  C   UNL     1      -3.790  15.145  23.901  0.00  0.00    +0.000 A 
ATOM     17  C   UNL     1      -3.285  15.762  22.760  0.00  0.00    +0.000 A 
ATOM     18  N   UNL     1      -3.057  15.106  21.592  0.00  0.00    +0.000 NA
ENDROOT
BRANCH  16  19
ATOM     19  N   UNL     1      -3.853  15.795  25.129  0.00  0.00    +0.000 N 
ATOM     20  H   UNL     1      -4.727  16.314  25.162  0.00  0.00    +0.000 HD
ATOM     21  H   UNL     1      -3.047  16.380  25.310  0.00  0.00    +0.000 HD
ENDBRANCH  16  19
BRANCH   1  23
ATOM     22  C   UNL     1       0.059  14.931  20.148  0.00  0.00    +0.000 C 
ATOM     23  C   UNL     1      -0.505  13.620  20.683  0.00  0.00    +0.000 C 
BRANCH  23  24
ATOM     24  N   UNL     1       0.525  12.582  20.814  0.00  0.00    +0.000 N 
ATOM     25  H   UNL     1       0.995  12.379  19.934  0.00  0.00    +0.000 HD
BRANCH  24  26
ATOM     26  C   UNL     1       0.184  11.380  21.454  0.00  0.00    +0.000 A 
ATOM     27  N   UNL     1      -0.393  11.422  22.670  0.00  0.00    +0.000 NA
ATOM     28  C   UNL     1      -0.635  10.248  23.270  0.00  0.00    +0.000 A 
ATOM     29  N   UNL     1      -0.344   9.034  22.786  0.00  0.00    +0.000 NA
ATOM     30  C   UNL     1       0.236   9.009  21.577  0.00  0.00    +0.000 A 
ATOM     31  N   UNL     1       0.617   7.740  21.129  0.00  0.00    +0.000 N 
ATOM     32  C   UNL     1       0.516  10.164  20.856  0.00  0.00    +0.000 A 
ATOM     33 CL   UNL     1       1.217  10.091  19.275  0.00  0.00    +0.000 Cl
ATOM     34  H   UNL     1       0.250   7.043  21.770  0.00  0.00    +0.000 HD
ATOM     35  H   UNL     1       0.371   7.578  20.160  0.00  0.00    +0.000 HD
ENDBRANCH  24  26
ENDBRANCH  23  24
ENDBRANCH   1  23
TORSDOF 4
ENDMDL
MODEL 2
REMARK VINA RESULT:      -6.8      2.883      5.815
REMARK  Name = 
REMARK  5 active torsions:
REMARK  status: ('A' for Active; 'I' for Inactive)
REMARK    1  A    between atoms: C_1  and  C_2
REMARK    2  A    between atoms: C_2  and  N_3
REMARK    3  A    between atoms: C_2  and  C_12
REMARK    4  A    between atoms: N_3  and  C_4
REMARK    5  A    between atoms: C_27  and  N_28
REMARK                            x       y       z     vdW  Elec       q    Type
REMARK                         _______ _______ _______ _____ _____    ______ ____
ROOT
ATOM      1  C   UNL     1      -0.359  12.620  19.881  0.00  0.00    +0.000 A 
ATOM      2  N   UNL     1       0.582  12.725  18.993  0.00  0.00    +0.000 NA
ATOM      3  C   UNL     1       1.712  13.490  19.256  0.00  0.00    +0.000 A 
ATOM      4  C   UNL     1       2.724  13.469  18.292  0.00  0.00    +0.000 A 
ATOM      5  C   UNL     1       3.895  14.195  18.472  0.00  0.00    +0.000 A 
ATOM      6  C   UNL     1       4.049  14.958  19.628  0.00  0.00    +0.000 A 
ATOM      7  C   UNL     1       3.036  14.995  20.598  0.00  0.00    +0.000 A 
ATOM      8 CL   UNL     1       3.371  15.969  21.986  0.00  0.00    +0.000 Cl
ATOM      9  C   UNL     1       1.856  14.256  20.416  0.00  0.00    +0.000 A 
ATOM     10  C   UNL     1       0.733  14.182  21.385  0.00  0.00    +0.000 A 
ATOM     11  O   UNL     1       0.732  14.893  22.386  0.00  0.00    +0.000 OA
ATOM     12  N   UNL     1      -0.288  13.263  21.099  0.00  0.00    +0.000 N 
ATOM     13  C   UNL     1      -1.206  12.978  22.141  0.00  0.00    +0.000 A 
ATOM     14  C   UNL     1      -1.968  13.992  22.724  0.00  0.00    +0.000 A 
ATOM     15  N   UNL     1      -2.989  13.756  23.594  0.00  0.00    +0.000 NA
ATOM     16  C   UNL     1      -3.195  12.470  23.922  0.00  0.00    +0.000 A 
ATOM     17  C   UNL     1      -2.383  11.464  23.407  0.00  0.00    +0.000 A 
ATOM     18  N   UNL     1      -1.391  11.691  22.506  0.00  0.00    +0.000 NA
ENDROOT
BRANCH  16  19
ATOM     19  N   UNL     1      -4.310  12.193  24.706  0.00  0.00    +0.000 N 
ATOM     20  H   UNL     1      -4.354  11.186  24.840  0.00  0.00    +0.000 HD
ATOM     21  H   UNL     1      -5.168  12.572  24.325  0.00  0.00    +0.000 HD
ENDBRANCH  16  19
BRANCH   1  23
ATOM     22  C   UNL     1      -1.251  10.558  18.495  0.00  0.00    +0.000 C 
ATOM     23  C   UNL     1      -1.561  11.730  19.421  0.00  0.00    +0.000 C 
BRANCH  23  24
ATOM     24  N   UNL     1      -2.619  12.597  18.889  0.00  0.00    +0.000 N 
ATOM     25  H   UNL     1      -2.402  13.588  18.983  0.00  0.00    +0.000 HD
BRANCH  24  26
ATOM     26  C   UNL     1      -3.943  12.364  19.296  0.00  0.00    +0.000 A 
ATOM     27  N   UNL     1      -4.313  12.687  20.549  0.00  0.00    +0.000 NA
ATOM     28  C   UNL     1      -5.566  12.381  20.912  0.00  0.00    +0.000 A 
ATOM     29  N   UNL     1      -6.485  11.769  20.154  0.00  0.00    +0.000 NA
ATOM     30  C   UNL     1      -6.099  11.447  18.911  0.00  0.00    +0.000 A 
ATOM     31  N   UNL     1      -7.038  10.726  18.167  0.00  0.00    +0.000 N 
ATOM     32  C   UNL     1      -4.829  11.733  18.423  0.00  0.00    +0.000 A 
ATOM     33 CL   UNL     1      -4.384  11.351  16.794  0.00  0.00    +0.000 Cl
ATOM     34  H   UNL     1      -7.912  10.697  18.683  0.00  0.00    +0.000 HD
ATOM     35  H   UNL     1      -7.132  11.069  17.219  0.00  0.00    +0.000 HD
ENDBRANCH  24  26
ENDBRANCH  23  24
ENDBRANCH   1  23
TORSDOF 4
ENDMDL
MODEL 3
REMARK VINA RESULT:      -6.7      3.018      5.571
REMARK  Name = 
REMARK  5 active torsions:
REMARK  status: ('A' for Active; 'I' for Inactive)
REMARK    1  A    between atoms: C_1  and  C_2
REMARK    2  A    between atoms: C_2  and  N_3
REMARK    3  A    between atoms: C_2  and  C_12
REMARK    4  A    between atoms: N_3  and  C_4
REMARK    5  A    between atoms: C_27  and  N_28
REMARK                            x       y       z     vdW  Elec       q    Type
REMARK                         _______ _______ _______ _____ _____    ______ ____
ROOT
ATOM      1  C   UNL     1      -4.901  12.750  19.860  0.00  0.00    +0.000 A 
ATOM      2  N   UNL     1      -5.100  12.278  18.667  0.00  0.00    +0.000 NA
ATOM      3  C   UNL     1      -4.089  11.589  18.009  0.00  0.00    +0.000 A 
ATOM      4  C   UNL     1      -4.414  11.023  16.773  0.00  0.00    +0.000 A 
ATOM      5  C   UNL     1      -3.471  10.307  16.046  0.00  0.00    +0.000 A 
ATOM      6  C   UNL     1      -2.185  10.163  16.561  0.00  0.00    +0.000 A 
ATOM      7  C   UNL     1      -1.843  10.734  17.797  0.00  0.00    +0.000 A 
ATOM      8 CL   UNL     1      -0.218  10.461  18.318  0.00  0.00    +0.000 Cl
ATOM      9  C   UNL     1      -2.799  11.453  18.531  0.00  0.00    +0.000 A 
ATOM     10  C   UNL     1      -2.572  12.067  19.864  0.00  0.00    +0.000 A 
ATOM     11  O   UNL     1      -1.447  12.079  20.356  0.00  0.00    +0.000 OA
ATOM     12  N   UNL     1      -3.695  12.605  20.511  0.00  0.00    +0.000 N 
ATOM     13  C   UNL     1      -3.551  12.929  21.884  0.00  0.00    +0.000 A 
ATOM     14  C   UNL     1      -2.585  13.844  22.308  0.00  0.00    +0.000 A 
ATOM     15  N   UNL     1      -2.519  14.331  23.577  0.00  0.00    +0.000 NA
ATOM     16  C   UNL     1      -3.415  13.831  24.444  0.00  0.00    +0.000 A 
ATOM     17  C   UNL     1      -4.326  12.856  24.046  0.00  0.00    +0.000 A 
ATOM     18  N   UNL     1      -4.422  12.400  22.770  0.00  0.00    +0.000 NA
ENDROOT
BRANCH  16  19
ATOM     19  N   UNL     1      -3.450  14.404  25.711  0.00  0.00    +0.000 N 
ATOM     20  H   UNL     1      -2.491  14.579  26.000  0.00  0.00    +0.000 HD
ATOM     21  H   UNL     1      -3.963  13.848  26.385  0.00  0.00    +0.000 HD
ENDBRANCH  16  19
BRANCH   1  23
ATOM     22  C   UNL     1      -7.515  12.899  20.201  0.00  0.00    +0.000 C 
ATOM     23  C   UNL     1      -6.139  13.506  20.451  0.00  0.00    +0.000 C 
BRANCH  23  24
ATOM     24  N   UNL     1      -6.070  14.917  20.051  0.00  0.00    +0.000 N 
ATOM     25  H   UNL     1      -5.764  15.039  19.087  0.00  0.00    +0.000 HD
BRANCH  24  26
ATOM     26  C   UNL     1      -5.382  15.815  20.882  0.00  0.00    +0.000 A 
ATOM     27  N   UNL     1      -4.256  16.398  20.431  0.00  0.00    +0.000 NA
ATOM     28  C   UNL     1      -3.598  17.193  21.286  0.00  0.00    +0.000 A 
ATOM     29  N   UNL     1      -3.942  17.453  22.554  0.00  0.00    +0.000 NA
ATOM     30  C   UNL     1      -5.062  16.859  22.991  0.00  0.00    +0.000 A 
ATOM     31  N   UNL     1      -5.355  17.067  24.342  0.00  0.00    +0.000 N 
ATOM     32  C   UNL     1      -5.834  16.030  22.184  0.00  0.00    +0.000 A 
ATOM     33 CL   UNL     1      -7.304  15.324  22.765  0.00  0.00    +0.000 Cl
ATOM     34  H   UNL     1      -4.711  17.758  24.714  0.00  0.00    +0.000 HD
ATOM     35  H   UNL     1      -6.331  17.286  24.501  0.00  0.00    +0.000 HD
ENDBRANCH  24  26
ENDBRANCH  23  24
ENDBRANCH   1  23
TORSDOF 4
ENDMDL
MODEL 4
REMARK VINA RESULT:      -6.6      3.173      6.033
REMARK  Name = 
REMARK  5 active torsions:
REMARK  status: ('A' for Active; 'I' for Inactive)
REMARK    1  A    between atoms: C_1  and  C_2
REMARK    2  A    between atoms: C_2  and  N_3
REMARK    3  A    between atoms: C_2  and  C_12
REMARK    4  A    between atoms: N_3  and  C_4
REMARK    5  A    between atoms: C_27  and  N_28
REMARK                            x       y       z     vdW  Elec       q    Type
REMARK                         _______ _______ _______ _____ _____    ______ ____
ROOT
ATOM      1  C   UNL     1      -0.792  12.581  20.639  0.00  0.00    +0.000 A 
ATOM      2  N   UNL     1      -1.885  12.307  21.285  0.00  0.00    +0.000 NA
ATOM      3  C   UNL     1      -2.214  13.011  22.436  0.00  0.00    +0.000 A 
ATOM      4  C   UNL     1      -3.455  12.728  23.014  0.00  0.00    +0.000 A 
ATOM      5  C   UNL     1      -3.874  13.390  24.161  0.00  0.00    +0.000 A 
ATOM      6  C   UNL     1      -3.037  14.340  24.740  0.00  0.00    +0.000 A 
ATOM      7  C   UNL     1      -1.785  14.627  24.176  0.00  0.00    +0.000 A 
ATOM      8 CL   UNL     1      -0.860  15.838  24.991  0.00  0.00    +0.000 Cl
ATOM      9  C   UNL     1      -1.366  13.961  23.013  0.00  0.00    +0.000 A 
ATOM     10  C   UNL     1      -0.086  14.204  22.300  0.00  0.00    +0.000 A 
ATOM     11  O   UNL     1       0.760  14.950  22.786  0.00  0.00    +0.000 OA
ATOM     12  N   UNL     1       0.084  13.556  21.067  0.00  0.00    +0.000 N 
ATOM     13  C   UNL     1       1.156  13.997  20.252  0.00  0.00    +0.000 A 
ATOM     14  C   UNL     1       2.474  13.954  20.714  0.00  0.00    +0.000 A 
ATOM     15  N   UNL     1       3.554  14.188  19.920  0.00  0.00    +0.000 NA
ATOM     16  C   UNL     1       3.285  14.533  18.649  0.00  0.00    +0.000 A 
ATOM     17  C   UNL     1       1.971  14.659  18.208  0.00  0.00    +0.000 A 
ATOM     18  N   UNL     1       0.891  14.384  18.985  0.00  0.00    +0.000 NA
ENDROOT
BRANCH  16  19
ATOM     19  N   UNL     1       4.371  14.653  17.788  0.00  0.00    +0.000 N 
ATOM     20  H   UNL     1       4.550  13.736  17.384  0.00  0.00    +0.000 HD
ATOM     21  H   UNL     1       5.190  15.046  18.235  0.00  0.00    +0.000 HD
ENDBRANCH  16  19
BRANCH   1  23
ATOM     22  C   UNL     1      -1.512  11.901  18.192  0.00  0.00    +0.000 C 
ATOM     23  C   UNL     1      -0.570  11.689  19.372  0.00  0.00    +0.000 C 
BRANCH  23  24
ATOM     24  N   UNL     1      -0.503  10.282  19.786  0.00  0.00    +0.000 N 
ATOM     25  H   UNL     1      -0.627  10.160  20.790  0.00  0.00    +0.000 HD
BRANCH  24  26
ATOM     26  C   UNL     1       0.583   9.507  19.348  0.00  0.00    +0.000 A 
ATOM     27  N   UNL     1       1.065   9.693  18.105  0.00  0.00    +0.000 NA
ATOM     28  C   UNL     1       2.055   8.882  17.708  0.00  0.00    +0.000 A 
ATOM     29  N   UNL     1       2.604   7.892  18.422  0.00  0.00    +0.000 NA
ATOM     30  C   UNL     1       2.110   7.714  19.656  0.00  0.00    +0.000 A 
ATOM     31  N   UNL     1       2.629   6.619  20.351  0.00  0.00    +0.000 N 
ATOM     32  C   UNL     1       1.095   8.510  20.177  0.00  0.00    +0.000 A 
ATOM     33 CL   UNL     1       0.518   8.286  21.794  0.00  0.00    +0.000 Cl
ATOM     34  H   UNL     1       3.403   6.231  19.820  0.00  0.00    +0.000 HD
ATOM     35  H   UNL     1       2.859   6.839  21.313  0.00  0.00    +0.000 HD
ENDBRANCH  24  26
ENDBRANCH  23  24
ENDBRANCH   1  23
TORSDOF 4
ENDMDL
MODEL 5
REMARK VINA RESULT:      -6.6      2.965      6.115
REMARK  Name = 
REMARK  5 active torsions:
REMARK  status: ('A' for Active; 'I' for Inactive)
REMARK    1  A    between atoms: C_1  and  C_2
REMARK    2  A    between atoms: C_2  and  N_3
REMARK    3  A    between atoms: C_2  and  C_12
REMARK    4  A    between atoms: N_3  and  C_4
REMARK    5  A    between atoms: C_27  and  N_28
REMARK                            x       y       z     vdW  Elec       q    Type
REMARK                         _______ _______ _______ _____ _____    ______ ____
ROOT
ATOM      1  C   UNL     1      -4.872  12.641  19.797  0.00  0.00    +0.000 A 
ATOM      2  N   UNL     1      -5.044  12.097  18.631  0.00  0.00    +0.000 NA
ATOM      3  C   UNL     1      -3.997  11.431  18.007  0.00  0.00    +0.000 A 
ATOM      4  C   UNL     1      -4.291  10.785  16.803  0.00  0.00    +0.000 A 
ATOM      5  C   UNL     1      -3.310  10.085  16.111  0.00  0.00    +0.000 A 
ATOM      6  C   UNL     1      -2.017  10.039  16.628  0.00  0.00    +0.000 A 
ATOM      7  C   UNL     1      -1.707  10.691  17.831  0.00  0.00    +0.000 A 
ATOM      8 CL   UNL     1      -0.069  10.537  18.361  0.00  0.00    +0.000 Cl
ATOM      9  C   UNL     1      -2.702  11.394  18.531  0.00  0.00    +0.000 A 
ATOM     10  C   UNL     1      -2.509  12.088  19.829  0.00  0.00    +0.000 A 
ATOM     11  O   UNL     1      -1.385  12.187  20.316  0.00  0.00    +0.000 OA
ATOM     12  N   UNL     1      -3.659  12.596  20.451  0.00  0.00    +0.000 N 
ATOM     13  C   UNL     1      -3.532  12.999  21.804  0.00  0.00    +0.000 A 
ATOM     14  C   UNL     1      -2.618  13.987  22.177  0.00  0.00    +0.000 A 
ATOM     15  N   UNL     1      -2.579  14.541  23.419  0.00  0.00    +0.000 NA
ATOM     16  C   UNL     1      -3.446  14.038  24.314  0.00  0.00    +0.000 A 
ATOM     17  C   UNL     1      -4.301  12.996  23.970  0.00  0.00    +0.000 A 
ATOM     18  N   UNL     1      -4.373  12.469  22.719  0.00  0.00    +0.000 NA
ENDROOT
BRANCH  16  19
ATOM     19  N   UNL     1      -3.512  14.674  25.550  0.00  0.00    +0.000 N 
ATOM     20  H   UNL     1      -4.453  14.547  25.915  0.00  0.00    +0.000 HD
ATOM     21  H   UNL     1      -3.240  15.649  25.510  0.00  0.00    +0.000 HD
ENDBRANCH  16  19
BRANCH   1  23
ATOM     22  C   UNL     1      -7.232  12.478  20.969  0.00  0.00    +0.000 C 
ATOM     23  C   UNL     1      -6.149  13.356  20.352  0.00  0.00    +0.000 C 
BRANCH  23  24
ATOM     24  N   UNL     1      -6.679  14.253  19.318  0.00  0.00    +0.000 N 
ATOM     25  H   UNL     1      -6.576  13.875  18.377  0.00  0.00    +0.000 HD
BRANCH  24  26
ATOM     26  C   UNL     1      -6.280  15.599  19.331  0.00  0.00    +0.000 A 
ATOM     27  N   UNL     1      -5.808  16.135  20.473  0.00  0.00    +0.000 NA
ATOM     28  C   UNL     1      -5.507  17.440  20.454  0.00  0.00    +0.000 A 
ATOM     29  N   UNL     1      -5.642  18.271  19.413  0.00  0.00    +0.000 NA
ATOM     30  C   UNL     1      -6.118  17.725  18.285  0.00  0.00    +0.000 A 
ATOM     31  N   UNL     1      -6.341  18.625  17.238  0.00  0.00    +0.000 N 
ATOM     32  C   UNL     1      -6.447  16.377  18.186  0.00  0.00    +0.000 A 
ATOM     33 CL   UNL     1      -7.009  15.695  16.697  0.00  0.00    +0.000 Cl
ATOM     34  H   UNL     1      -5.963  19.530  17.499  0.00  0.00    +0.000 HD
ATOM     35  H   UNL     1      -6.004  18.279  16.348  0.00  0.00    +0.000 HD
ENDBRANCH  24  26
ENDBRANCH  23  24
ENDBRANCH   1  23
TORSDOF 4
ENDMDL
MODEL 6
REMARK VINA RESULT:      -6.6      3.002      6.381
REMARK  Name = 
REMARK  5 active torsions:
REMARK  status: ('A' for Active; 'I' for Inactive)
REMARK    1  A    between atoms: C_1  and  C_2
REMARK    2  A    between atoms: C_2  and  N_3
REMARK    3  A    between atoms: C_2  and  C_12
REMARK    4  A    between atoms: N_3  and  C_4
REMARK    5  A    between atoms: C_27  and  N_28
REMARK                            x       y       z     vdW  Elec       q    Type
REMARK                         _______ _______ _______ _____ _____    ______ ____
ROOT
ATOM      1  C   UNL     1       0.758   9.532  21.028  0.00  0.00    +0.000 A 
ATOM      2  N   UNL     1       0.934   8.269  21.274  0.00  0.00    +0.000 NA
ATOM      3  C   UNL     1       1.631   7.471  20.376  0.00  0.00    +0.000 A 
ATOM      4  C   UNL     1       1.867   6.148  20.761  0.00  0.00    +0.000 A 
ATOM      5  C   UNL     1       2.564   5.278  19.932  0.00  0.00    +0.000 A 
ATOM      6  C   UNL     1       3.022   5.736  18.700  0.00  0.00    +0.000 A 
ATOM      7  C   UNL     1       2.784   7.059  18.297  0.00  0.00    +0.000 A 
ATOM      8 CL   UNL     1       3.424   7.493  16.751  0.00  0.00    +0.000 Cl
ATOM      9  C   UNL     1       2.084   7.938  19.139  0.00  0.00    +0.000 A 
ATOM     10  C   UNL     1       1.804   9.367  18.845  0.00  0.00    +0.000 A 
ATOM     11  O   UNL     1       2.081   9.837  17.744  0.00  0.00    +0.000 OA
ATOM     12  N   UNL     1       1.233  10.124  19.878  0.00  0.00    +0.000 N 
ATOM     13  C   UNL     1       1.227  11.532  19.714  0.00  0.00    +0.000 A 
ATOM     14  C   UNL     1       0.592  12.125  18.620  0.00  0.00    +0.000 A 
ATOM     15  N   UNL     1       0.396  13.467  18.505  0.00  0.00    +0.000 NA
ATOM     16  C   UNL     1       0.909  14.222  19.491  0.00  0.00    +0.000 A 
ATOM     17  C   UNL     1       1.615  13.641  20.540  0.00  0.00    +0.000 A 
ATOM     18  N   UNL     1       1.776  12.299  20.681  0.00  0.00    +0.000 NA
ENDROOT
BRANCH  16  19
ATOM     19  N   UNL     1       0.611  15.581  19.460  0.00  0.00    +0.000 N 
ATOM     20  H   UNL     1      -0.355  15.681  19.160  0.00  0.00    +0.000 HD
ATOM     21  H   UNL     1       1.253  16.115  18.886  0.00  0.00    +0.000 HD
ENDBRANCH  16  19
BRANCH   1  23
ATOM     22  C   UNL     1      -0.369   9.511  23.416  0.00  0.00    +0.000 C 
ATOM     23  C   UNL     1      -0.054  10.281  22.138  0.00  0.00    +0.000 C 
BRANCH  23  24
ATOM     24  N   UNL     1      -1.254  10.871  21.533  0.00  0.00    +0.000 N 
ATOM     25  H   UNL     1      -1.335  10.667  20.538  0.00  0.00    +0.000 HD
BRANCH  24  26
ATOM     26  C   UNL     1      -1.515  12.232  21.757  0.00  0.00    +0.000 A 
ATOM     27  N   UNL     1      -1.019  12.824  22.860  0.00  0.00    +0.000 NA
ATOM     28  C   UNL     1      -1.354  14.105  23.066  0.00  0.00    +0.000 A 
ATOM     29  N   UNL     1      -2.148  14.853  22.289  0.00  0.00    +0.000 NA
ATOM     30  C   UNL     1      -2.640  14.248  21.198  0.00  0.00    +0.000 A 
ATOM     31  N   UNL     1      -3.540  15.013  20.451  0.00  0.00    +0.000 N 
ATOM     32  C   UNL     1      -2.343  12.928  20.877  0.00  0.00    +0.000 A 
ATOM     33 CL   UNL     1      -2.953  12.195  19.431  0.00  0.00    +0.000 Cl
ATOM     34  H   UNL     1      -3.548  15.960  20.818  0.00  0.00    +0.000 HD
ATOM     35  H   UNL     1      -3.365  14.960  19.455  0.00  0.00    +0.000 HD
ENDBRANCH  24  26
ENDBRANCH  23  24
ENDBRANCH   1  23
TORSDOF 4
ENDMDL
MODEL 7
REMARK VINA RESULT:      -6.5      3.236      6.120
REMARK  Name = 
REMARK  5 active torsions:
REMARK  status: ('A' for Active; 'I' for Inactive)
REMARK    1  A    between atoms: C_1  and  C_2
REMARK    2  A    between atoms: C_2  and  N_3
REMARK    3  A    between atoms: C_2  and  C_12
REMARK    4  A    between atoms: N_3  and  C_4
REMARK    5  A    between atoms: C_27  and  N_28
REMARK                            x       y       z     vdW  Elec       q    Type
REMARK                         _______ _______ _______ _____ _____    ______ ____
ROOT
ATOM      1  C   UNL     1       1.022  12.558  19.470  0.00  0.00    +0.000 A 
ATOM      2  N   UNL     1       2.018  12.768  18.664  0.00  0.00    +0.000 NA
ATOM      3  C   UNL     1       2.920  13.793  18.917  0.00  0.00    +0.000 A 
ATOM      4  C   UNL     1       4.021  13.888  18.061  0.00  0.00    +0.000 A 
ATOM      5  C   UNL     1       4.981  14.876  18.242  0.00  0.00    +0.000 A 
ATOM      6  C   UNL     1       4.832  15.783  19.288  0.00  0.00    +0.000 A 
ATOM      7  C   UNL     1       3.727  15.704  20.149  0.00  0.00    +0.000 A 
ATOM      8 CL   UNL     1       3.681  16.884  21.410  0.00  0.00    +0.000 Cl
ATOM      9  C   UNL     1       2.761  14.702  19.967  0.00  0.00    +0.000 A 
ATOM     10  C   UNL     1       1.572  14.490  20.832  0.00  0.00    +0.000 A 
ATOM     11  O   UNL     1       1.302  15.295  21.719  0.00  0.00    +0.000 OA
ATOM     12  N   UNL     1       0.809  13.338  20.587  0.00  0.00    +0.000 N 
ATOM     13  C   UNL     1      -0.143  12.977  21.572  0.00  0.00    +0.000 A 
ATOM     14  C   UNL     1      -1.167  13.854  21.936  0.00  0.00    +0.000 A 
ATOM     15  N   UNL     1      -2.210  13.498  22.735  0.00  0.00    +0.000 NA
ATOM     16  C   UNL     1      -2.177  12.245  23.220  0.00  0.00    +0.000 A 
ATOM     17  C   UNL     1      -1.114  11.396  22.927  0.00  0.00    +0.000 A 
ATOM     18  N   UNL     1      -0.093  11.733  22.096  0.00  0.00    +0.000 NA
ENDROOT
BRANCH  16  19
ATOM     19  N   UNL     1      -3.292  11.818  23.933  0.00  0.00    +0.000 N 
ATOM     20  H   UNL     1      -3.318  12.335  24.809  0.00  0.00    +0.000 HD
ATOM     21  H   UNL     1      -3.315  10.816  24.073  0.00  0.00    +0.000 HD
ENDBRANCH  16  19
BRANCH   1  23
ATOM     22  C   UNL     1       0.773  10.046  18.698  0.00  0.00    +0.000 C 
ATOM     23  C   UNL     1       0.098  11.372  19.033  0.00  0.00    +0.000 C 
BRANCH  23  24
ATOM     24  N   UNL     1      -0.792  11.831  17.961  0.00  0.00    +0.000 N 
ATOM     25  H   UNL     1      -0.467  12.690  17.519  0.00  0.00    +0.000 HD
BRANCH  24  26
ATOM     26  C   UNL     1      -2.166  11.931  18.230  0.00  0.00    +0.000 A 
ATOM     27  N   UNL     1      -2.571  12.357  19.441  0.00  0.00    +0.000 NA
ATOM     28  C   UNL     1      -3.891  12.368  19.673  0.00  0.00    +0.000 A 
ATOM     29  N   UNL     1      -4.850  11.981  18.822  0.00  0.00    +0.000 NA
ATOM     30  C   UNL     1      -4.431  11.553  17.622  0.00  0.00    +0.000 A 
ATOM     31  N   UNL     1      -5.437  11.066  16.783  0.00  0.00    +0.000 N 
ATOM     32  C   UNL     1      -3.087  11.517  17.267  0.00  0.00    +0.000 A 
ATOM     33 CL   UNL     1      -2.587  11.008  15.690  0.00  0.00    +0.000 Cl
ATOM     34  H   UNL     1      -6.339  11.258  17.207  0.00  0.00    +0.000 HD
ATOM     35  H   UNL     1      -5.350  11.404  15.831  0.00  0.00    +0.000 HD
ENDBRANCH  24  26
ENDBRANCH  23  24
ENDBRANCH   1  23
TORSDOF 4
ENDMDL
MODEL 8
REMARK VINA RESULT:      -6.5      2.810      5.693
REMARK  Name = 
REMARK  5 active torsions:
REMARK  status: ('A' for Active; 'I' for Inactive)
REMARK    1  A    between atoms: C_1  and  C_2
REMARK    2  A    between atoms: C_2  and  N_3
REMARK    3  A    between atoms: C_2  and  C_12
REMARK    4  A    between atoms: N_3  and  C_4
REMARK    5  A    between atoms: C_27  and  N_28
REMARK                            x       y       z     vdW  Elec       q    Type
REMARK                         _______ _______ _______ _____ _____    ______ ____
ROOT
ATOM      1  C   UNL     1      -1.002  13.165  20.143  0.00  0.00    +0.000 A 
ATOM      2  N   UNL     1      -0.079  13.385  19.257  0.00  0.00    +0.000 NA
ATOM      3  C   UNL     1       0.898  14.345  19.489  0.00  0.00    +0.000 A 
ATOM      4  C   UNL     1       1.916  14.450  18.536  0.00  0.00    +0.000 A 
ATOM      5  C   UNL     1       2.942  15.374  18.686  0.00  0.00    +0.000 A 
ATOM      6  C   UNL     1       2.944  16.209  19.801  0.00  0.00    +0.000 A 
ATOM      7  C   UNL     1       1.924  16.120  20.761  0.00  0.00    +0.000 A 
ATOM      8 CL   UNL     1       2.064  17.206  22.098  0.00  0.00    +0.000 Cl
ATOM      9  C   UNL     1       0.891  15.181  20.608  0.00  0.00    +0.000 A 
ATOM     10  C   UNL     1      -0.219  14.964  21.571  0.00  0.00    +0.000 A 
ATOM     11  O   UNL     1      -0.358  15.715  22.533  0.00  0.00    +0.000 OA
ATOM     12  N   UNL     1      -1.064  13.871  21.325  0.00  0.00    +0.000 N 
ATOM     13  C   UNL     1      -1.936  13.485  22.374  0.00  0.00    +0.000 A 
ATOM     14  C   UNL     1      -2.870  14.382  22.897  0.00  0.00    +0.000 A 
ATOM     15  N   UNL     1      -3.849  14.018  23.770  0.00  0.00    +0.000 NA
ATOM     16  C   UNL     1      -3.838  12.734  24.163  0.00  0.00    +0.000 A 
ATOM     17  C   UNL     1      -2.857  11.858  23.709  0.00  0.00    +0.000 A 
ATOM     18  N   UNL     1      -1.904  12.205  22.805  0.00  0.00    +0.000 NA
ENDROOT
BRANCH  16  19
ATOM     19  N   UNL     1      -4.902  12.310  24.953  0.00  0.00    +0.000 N 
ATOM     20  H   UNL     1      -5.763  12.625  24.511  0.00  0.00    +0.000 HD
ATOM     21  H   UNL     1      -4.827  12.613  25.916  0.00  0.00    +0.000 HD
ENDBRANCH  16  19
BRANCH   1  23
ATOM     22  C   UNL     1      -1.498  10.895  18.890  0.00  0.00    +0.000 C 
ATOM     23  C   UNL     1      -2.027  12.059  19.721  0.00  0.00    +0.000 C 
BRANCH  23  24
ATOM     24  N   UNL     1      -3.193  12.702  19.102  0.00  0.00    +0.000 N 
ATOM     25  H   UNL     1      -3.120  13.718  19.084  0.00  0.00    +0.000 HD
BRANCH  24  26
ATOM     26  C   UNL     1      -4.473  12.329  19.541  0.00  0.00    +0.000 A 
ATOM     27  N   UNL     1      -4.917  12.775  20.732  0.00  0.00    +0.000 NA
ATOM     28  C   UNL     1      -6.115  12.336  21.138  0.00  0.00    +0.000 A 
ATOM     29  N   UNL     1      -6.912  11.482  20.484  0.00  0.00    +0.000 NA
ATOM     30  C   UNL     1      -6.454  11.042  19.303  0.00  0.00    +0.000 A 
ATOM     31  N   UNL     1      -7.254  10.081  18.678  0.00  0.00    +0.000 N 
ATOM     32  C   UNL     1      -5.233  11.446  18.775  0.00  0.00    +0.000 A 
ATOM     33 CL   UNL     1      -4.698  10.898  17.222  0.00  0.00    +0.000 Cl
ATOM     34  H   UNL     1      -8.125   9.994  19.193  0.00  0.00    +0.000 HD
ATOM     35  H   UNL     1      -7.379  10.259  17.688  0.00  0.00    +0.000 HD
ENDBRANCH  24  26
ENDBRANCH  23  24
ENDBRANCH   1  23
TORSDOF 4
ENDMDL
MODEL 9
REMARK VINA RESULT:      -6.5      2.608      6.077
REMARK  Name = 
REMARK  5 active torsions:
REMARK  status: ('A' for Active; 'I' for Inactive)
REMARK    1  A    between atoms: C_1  and  C_2
REMARK    2  A    between atoms: C_2  and  N_3
REMARK    3  A    between atoms: C_2  and  C_12
REMARK    4  A    between atoms: N_3  and  C_4
REMARK    5  A    between atoms: C_27  and  N_28
REMARK                            x       y       z     vdW  Elec       q    Type
REMARK                         _______ _______ _______ _____ _____    ______ ____
ROOT
ATOM      1  C   UNL     1      -2.507  12.265  19.808  0.00  0.00    +0.000 A 
ATOM      2  N   UNL     1      -2.586  12.694  21.031  0.00  0.00    +0.000 NA
ATOM      3  C   UNL     1      -3.820  12.779  21.664  0.00  0.00    +0.000 A 
ATOM      4  C   UNL     1      -3.811  13.150  23.012  0.00  0.00    +0.000 A 
ATOM      5  C   UNL     1      -4.995  13.253  23.731  0.00  0.00    +0.000 A 
ATOM      6  C   UNL     1      -6.203  12.988  23.090  0.00  0.00    +0.000 A 
ATOM      7  C   UNL     1      -6.227  12.624  21.735  0.00  0.00    +0.000 A 
ATOM      8 CL   UNL     1      -7.793  12.311  21.075  0.00  0.00    +0.000 Cl
ATOM      9  C   UNL     1      -5.028  12.516  21.012  0.00  0.00    +0.000 A 
ATOM     10  C   UNL     1      -4.918  12.102  19.590  0.00  0.00    +0.000 A 
ATOM     11  O   UNL     1      -5.931  11.943  18.913  0.00  0.00    +0.000 OA
ATOM     12  N   UNL     1      -3.624  11.897  19.089  0.00  0.00    +0.000 N 
ATOM     13  C   UNL     1      -3.516  11.233  17.841  0.00  0.00    +0.000 A 
ATOM     14  C   UNL     1      -4.122  11.754  16.696  0.00  0.00    +0.000 A 
ATOM     15  N   UNL     1      -3.904  11.265  15.445  0.00  0.00    +0.000 NA
ATOM     16  C   UNL     1      -3.102  10.191  15.366  0.00  0.00    +0.000 A 
ATOM     17  C   UNL     1      -2.563   9.618  16.514  0.00  0.00    +0.000 A 
ATOM     18  N   UNL     1      -2.744  10.128  17.760  0.00  0.00    +0.000 NA
ENDROOT
BRANCH  16  19
ATOM     19  N   UNL     1      -2.762   9.753  14.090  0.00  0.00    +0.000 N 
ATOM     20  H   UNL     1      -3.515  10.019  13.459  0.00  0.00    +0.000 HD
ATOM     21  H   UNL     1      -2.556   8.763  14.051  0.00  0.00    +0.000 HD
ENDBRANCH  16  19
BRANCH   1  23
ATOM     22  C   UNL     1       0.083  11.986  20.237  0.00  0.00    +0.000 C 
ATOM     23  C   UNL     1      -1.046  12.240  19.245  0.00  0.00    +0.000 C 
BRANCH  23  24
ATOM     24  N   UNL     1      -0.824  13.450  18.444  0.00  0.00    +0.000 N 
ATOM     25  H   UNL     1      -0.425  13.249  17.528  0.00  0.00    +0.000 HD
BRANCH  24  26
ATOM     26  C   UNL     1      -0.137  14.524  19.031  0.00  0.00    +0.000 A 
ATOM     27  N   UNL     1      -0.823  15.423  19.762  0.00  0.00    +0.000 NA
ATOM     28  C   UNL     1      -0.136  16.468  20.244  0.00  0.00    +0.000 A 
ATOM     29  N   UNL     1       1.167  16.716  20.057  0.00  0.00    +0.000 NA
ATOM     30  C   UNL     1       1.835  15.815  19.322  0.00  0.00    +0.000 A 
ATOM     31  N   UNL     1       3.170  16.137  19.059  0.00  0.00    +0.000 N 
ATOM     32  C   UNL     1       1.227  14.684  18.788  0.00  0.00    +0.000 A 
ATOM     33 CL   UNL     1       2.133  13.514  17.889  0.00  0.00    +0.000 Cl
ATOM     34  H   UNL     1       3.422  16.956  19.604  0.00  0.00    +0.000 HD
ATOM     35  H   UNL     1       3.794  15.350  19.186  0.00  0.00    +0.000 HD
ENDBRANCH  24  26
ENDBRANCH  23  24
ENDBRANCH   1  23
TORSDOF 4
ENDMDL
