MODEL 1
REMARK VINA RESULT:      -7.5      0.000      0.000
REMARK  Name = 
REMARK  10 active torsions:
REMARK  status: ('A' for Active; 'I' for Inactive)
REMARK    1  A    between atoms: C_1  and  C_2
REMARK    2  A    between atoms: C_2  and  C_4
REMARK    3  A    between atoms: C_9  and  N_10
REMARK    4  A    between atoms: C_11  and  C_13
REMARK    5  A    between atoms: C_13  and  S_14
REMARK    6  A    between atoms: S_14  and  C_15
REMARK    7  A    between atoms: C_15  and  C_16
REMARK    8  A    between atoms: C_18  and  O_19
REMARK    9  A    between atoms: C_21  and  C_22
REMARK   10  A    between atoms: C_23  and  C_24
REMARK                            x       y       z     vdW  Elec       q    Type
REMARK                         _______ _______ _______ _____ _____    ______ ____
ROOT
ATOM      1  S   UNL     1       1.661   4.200  20.079  0.00  0.00    +0.000 S 
ENDROOT
BRANCH   1   2
ATOM      2  C   UNL     1       1.440   4.015  18.278  0.00  0.00    +0.000 C 
BRANCH   2   4
ATOM      3  N   UNL     1       3.564   4.788  17.247  0.00  0.00    +0.000 N 
ATOM      4  C   UNL     1       2.776   3.691  17.610  0.00  0.00    +0.000 C 
ATOM      5  O   UNL     1       3.066   2.510  17.406  0.00  0.00    +0.000 OA
ATOM      6  H   UNL     1       3.289   5.700  17.628  0.00  0.00    +0.000 HD
BRANCH   3  12
ATOM      7  C   UNL     1       6.047   4.632  17.239  0.00  0.00    +0.000 A 
ATOM      8  C   UNL     1       7.251   4.534  16.514  0.00  0.00    +0.000 A 
ATOM      9  C   UNL     1       7.251   4.545  15.115  0.00  0.00    +0.000 A 
ATOM     10  C   UNL     1       6.046   4.684  14.449  0.00  0.00    +0.000 A 
ATOM     11  C   UNL     1       4.851   4.792  15.158  0.00  0.00    +0.000 A 
ATOM     12  C   UNL     1       4.810   4.740  16.563  0.00  0.00    +0.000 A 
BRANCH   7  14
ATOM     13  C   UNL     1       7.020   5.656  19.397  0.00  0.00    +0.000 C 
ATOM     14  C   UNL     1       6.163   4.597  18.729  0.00  0.00    +0.000 C 
ATOM     15  O   UNL     1       5.551   3.744  19.368  0.00  0.00    +0.000 OA
ENDBRANCH   7  14
ENDBRANCH   3  12
ENDBRANCH   2   4
ENDBRANCH   1   2
BRANCH   1  16
ATOM     16  C   UNL     1       2.863   5.590  20.128  0.00  0.00    +0.000 C 
BRANCH  16  17
ATOM     17  C   UNL     1       2.149   6.925  19.967  0.00  0.00    +0.000 A 
ATOM     18  N   UNL     1       2.329   7.556  18.789  0.00  0.00    +0.000 NA
ATOM     19  C   UNL     1       1.806   8.778  18.651  0.00  0.00    +0.000 A 
ATOM     20  C   UNL     1       1.087   9.402  19.665  0.00  0.00    +0.000 A 
ATOM     21  C   UNL     1       0.447  10.698  19.801  0.00  0.00    +0.000 A 
ATOM     22  C   UNL     1       0.434  11.765  18.752  0.00  0.00    +0.000 C 
ATOM     23  C   UNL     1      -0.156  10.833  21.043  0.00  0.00    +0.000 A 
ATOM     24  C   UNL     1      -0.914  12.005  21.583  0.00  0.00    +0.000 C 
ATOM     25  S   UNL     1       0.049   9.435  22.014  0.00  0.00    +0.000 S 
ATOM     26  C   UNL     1       0.949   8.638  20.809  0.00  0.00    +0.000 A 
ATOM     27  N   UNL     1       1.448   7.397  21.015  0.00  0.00    +0.000 NA
BRANCH  19  28
ATOM     28  O   UNL     1       2.053   9.350  17.439  0.00  0.00    +0.000 OA
ATOM     29  H   UNL     1       1.908  10.286  17.658  0.00  0.00    +0.000 HD
ENDBRANCH  19  28
ENDBRANCH  16  17
ENDBRANCH   1  16
TORSDOF 7
ENDMDL
MODEL 2
REMARK VINA RESULT:      -7.4      1.174      1.242
REMARK  Name = 
REMARK  10 active torsions:
REMARK  status: ('A' for Active; 'I' for Inactive)
REMARK    1  A    between atoms: C_1  and  C_2
REMARK    2  A    between atoms: C_2  and  C_4
REMARK    3  A    between atoms: C_9  and  N_10
REMARK    4  A    between atoms: C_11  and  C_13
REMARK    5  A    between atoms: C_13  and  S_14
REMARK    6  A    between atoms: S_14  and  C_15
REMARK    7  A    between atoms: C_15  and  C_16
REMARK    8  A    between atoms: C_18  and  O_19
REMARK    9  A    between atoms: C_21  and  C_22
REMARK   10  A    between atoms: C_23  and  C_24
REMARK                            x       y       z     vdW  Elec       q    Type
REMARK                         _______ _______ _______ _____ _____    ______ ____
ROOT
ATOM      1  S   UNL     1       1.904   3.993  19.445  0.00  0.00    +0.000 S 
ENDROOT
BRANCH   1   2
ATOM      2  C   UNL     1       3.228   2.980  18.705  0.00  0.00    +0.000 C 
BRANCH   2   4
ATOM      3  N   UNL     1       5.060   3.309  17.061  0.00  0.00    +0.000 N 
ATOM      4  C   UNL     1       3.753   3.641  17.431  0.00  0.00    +0.000 C 
ATOM      5  O   UNL     1       3.024   4.433  16.831  0.00  0.00    +0.000 OA
ATOM      6  H   UNL     1       5.488   2.512  17.543  0.00  0.00    +0.000 HD
BRANCH   3  12
ATOM      7  C   UNL     1       6.856   4.747  16.111  0.00  0.00    +0.000 A 
ATOM      8  C   UNL     1       7.573   5.203  14.988  0.00  0.00    +0.000 A 
ATOM      9  C   UNL     1       7.240   4.774  13.698  0.00  0.00    +0.000 A 
ATOM     10  C   UNL     1       6.169   3.913  13.539  0.00  0.00    +0.000 A 
ATOM     11  C   UNL     1       5.447   3.464  14.643  0.00  0.00    +0.000 A 
ATOM     12  C   UNL     1       5.782   3.840  15.956  0.00  0.00    +0.000 A 
BRANCH   7  14
ATOM     13  C   UNL     1       7.383   6.763  17.631  0.00  0.00    +0.000 C 
ATOM     14  C   UNL     1       7.305   5.260  17.442  0.00  0.00    +0.000 C 
ATOM     15  O   UNL     1       7.571   4.467  18.342  0.00  0.00    +0.000 OA
ENDBRANCH   7  14
ENDBRANCH   3  12
ENDBRANCH   2   4
ENDBRANCH   1   2
BRANCH   1  16
ATOM     16  C   UNL     1       2.900   5.337  20.209  0.00  0.00    +0.000 C 
BRANCH  16  17
ATOM     17  C   UNL     1       2.209   6.682  20.037  0.00  0.00    +0.000 A 
ATOM     18  N   UNL     1       2.402   7.300  18.854  0.00  0.00    +0.000 NA
ATOM     19  C   UNL     1       1.901   8.531  18.705  0.00  0.00    +0.000 A 
ATOM     20  C   UNL     1       1.192   9.175  19.713  0.00  0.00    +0.000 A 
ATOM     21  C   UNL     1       0.575  10.483  19.838  0.00  0.00    +0.000 A 
ATOM     22  C   UNL     1       0.581  11.542  18.780  0.00  0.00    +0.000 C 
ATOM     23  C   UNL     1      -0.027  10.639  21.078  0.00  0.00    +0.000 A 
ATOM     24  C   UNL     1      -0.765  11.829  21.607  0.00  0.00    +0.000 C 
ATOM     25  S   UNL     1       0.151   9.245  22.060  0.00  0.00    +0.000 S 
ATOM     26  C   UNL     1       1.039   8.424  20.863  0.00  0.00    +0.000 A 
ATOM     27  N   UNL     1       1.516   7.175  21.080  0.00  0.00    +0.000 NA
BRANCH  19  28
ATOM     28  O   UNL     1       2.159   9.088  17.489  0.00  0.00    +0.000 OA
ATOM     29  H   UNL     1       2.057   8.308  16.918  0.00  0.00    +0.000 HD
ENDBRANCH  19  28
ENDBRANCH  16  17
ENDBRANCH   1  16
TORSDOF 7
ENDMDL
MODEL 3
REMARK VINA RESULT:      -7.3      6.572      7.860
REMARK  Name = 
REMARK  10 active torsions:
REMARK  status: ('A' for Active; 'I' for Inactive)
REMARK    1  A    between atoms: C_1  and  C_2
REMARK    2  A    between atoms: C_2  and  C_4
REMARK    3  A    between atoms: C_9  and  N_10
REMARK    4  A    between atoms: C_11  and  C_13
REMARK    5  A    between atoms: C_13  and  S_14
REMARK    6  A    between atoms: S_14  and  C_15
REMARK    7  A    between atoms: C_15  and  C_16
REMARK    8  A    between atoms: C_18  and  O_19
REMARK    9  A    between atoms: C_21  and  C_22
REMARK   10  A    between atoms: C_23  and  C_24
REMARK                            x       y       z     vdW  Elec       q    Type
REMARK                         _______ _______ _______ _____ _____    ______ ____
ROOT
ATOM      1  S   UNL     1       7.587   8.986  17.678  0.00  0.00    +0.000 S 
ENDROOT
BRANCH   1   2
ATOM      2  C   UNL     1       7.614   7.202  18.058  0.00  0.00    +0.000 C 
BRANCH   2   4
ATOM      3  N   UNL     1       5.571   5.843  18.440  0.00  0.00    +0.000 N 
ATOM      4  C   UNL     1       6.361   6.523  17.507  0.00  0.00    +0.000 C 
ATOM      5  O   UNL     1       6.137   6.584  16.297  0.00  0.00    +0.000 OA
ATOM      6  H   UNL     1       5.773   6.016  19.430  0.00  0.00    +0.000 HD
BRANCH   3  12
ATOM      7  C   UNL     1       3.098   5.639  18.247  0.00  0.00    +0.000 A 
ATOM      8  C   UNL     1       1.971   4.866  17.906  0.00  0.00    +0.000 A 
ATOM      9  C   UNL     1       2.110   3.541  17.477  0.00  0.00    +0.000 A 
ATOM     10  C   UNL     1       3.377   2.989  17.420  0.00  0.00    +0.000 A 
ATOM     11  C   UNL     1       4.497   3.742  17.764  0.00  0.00    +0.000 A 
ATOM     12  C   UNL     1       4.398   5.089  18.158  0.00  0.00    +0.000 A 
BRANCH   7  14
ATOM     13  C   UNL     1       2.936   8.138  17.634  0.00  0.00    +0.000 C 
ATOM     14  C   UNL     1       2.834   7.045  18.681  0.00  0.00    +0.000 C 
ATOM     15  O   UNL     1       2.522   7.274  19.847  0.00  0.00    +0.000 OA
ENDBRANCH   7  14
ENDBRANCH   3  12
ENDBRANCH   2   4
ENDBRANCH   1   2
BRANCH   1  16
ATOM     16  C   UNL     1       9.033   9.559  18.659  0.00  0.00    +0.000 C 
BRANCH  16  17
ATOM     17  C   UNL     1       9.416  10.980  18.272  0.00  0.00    +0.000 A 
ATOM     18  N   UNL     1      10.653  11.144  17.762  0.00  0.00    +0.000 NA
ATOM     19  C   UNL     1      11.064  12.390  17.512  0.00  0.00    +0.000 A 
ATOM     20  C   UNL     1      10.264  13.503  17.748  0.00  0.00    +0.000 A 
ATOM     21  C   UNL     1      10.452  14.935  17.601  0.00  0.00    +0.000 A 
ATOM     22  C   UNL     1      11.704  15.591  17.111  0.00  0.00    +0.000 C 
ATOM     23  C   UNL     1       9.315  15.633  17.981  0.00  0.00    +0.000 A 
ATOM     24  C   UNL     1       9.095  17.113  17.985  0.00  0.00    +0.000 C 
ATOM     25  S   UNL     1       8.060  14.587  18.501  0.00  0.00    +0.000 S 
ATOM     26  C   UNL     1       9.009  13.198  18.243  0.00  0.00    +0.000 A 
ATOM     27  N   UNL     1       8.529  11.962  18.517  0.00  0.00    +0.000 NA
BRANCH  19  28
ATOM     28  O   UNL     1      12.332  12.465  17.017  0.00  0.00    +0.000 OA
ATOM     29  H   UNL     1      12.528  13.401  17.188  0.00  0.00    +0.000 HD
ENDBRANCH  19  28
ENDBRANCH  16  17
ENDBRANCH   1  16
TORSDOF 7
ENDMDL
MODEL 4
REMARK VINA RESULT:      -7.2      1.916      2.460
REMARK  Name = 
REMARK  10 active torsions:
REMARK  status: ('A' for Active; 'I' for Inactive)
REMARK    1  A    between atoms: C_1  and  C_2
REMARK    2  A    between atoms: C_2  and  C_4
REMARK    3  A    between atoms: C_9  and  N_10
REMARK    4  A    between atoms: C_11  and  C_13
REMARK    5  A    between atoms: C_13  and  S_14
REMARK    6  A    between atoms: S_14  and  C_15
REMARK    7  A    between atoms: C_15  and  C_16
REMARK    8  A    between atoms: C_18  and  O_19
REMARK    9  A    between atoms: C_21  and  C_22
REMARK   10  A    between atoms: C_23  and  C_24
REMARK                            x       y       z     vdW  Elec       q    Type
REMARK                         _______ _______ _______ _____ _____    ______ ____
ROOT
ATOM      1  S   UNL     1       1.449   5.382  20.658  0.00  0.00    +0.000 S 
ENDROOT
BRANCH   1   2
ATOM      2  C   UNL     1       2.773   4.147  20.436  0.00  0.00    +0.000 C 
BRANCH   2   4
ATOM      3  N   UNL     1       4.693   4.347  18.872  0.00  0.00    +0.000 N 
ATOM      4  C   UNL     1       3.309   4.195  19.005  0.00  0.00    +0.000 C 
ATOM      5  O   UNL     1       2.508   4.129  18.070  0.00  0.00    +0.000 OA
ATOM      6  H   UNL     1       5.255   4.214  19.719  0.00  0.00    +0.000 HD
BRANCH   3  12
ATOM      7  C   UNL     1       6.641   5.169  17.560  0.00  0.00    +0.000 A 
ATOM      8  C   UNL     1       7.341   5.225  16.339  0.00  0.00    +0.000 A 
ATOM      9  C   UNL     1       6.836   4.602  15.192  0.00  0.00    +0.000 A 
ATOM     10  C   UNL     1       5.617   3.952  15.268  0.00  0.00    +0.000 A 
ATOM     11  C   UNL     1       4.913   3.900  16.469  0.00  0.00    +0.000 A 
ATOM     12  C   UNL     1       5.411   4.477  17.652  0.00  0.00    +0.000 A 
BRANCH   7  14
ATOM     13  C   UNL     1       8.041   7.142  18.456  0.00  0.00    +0.000 C 
ATOM     14  C   UNL     1       7.279   5.858  18.725  0.00  0.00    +0.000 C 
ATOM     15  O   UNL     1       7.149   5.391  19.854  0.00  0.00    +0.000 OA
ENDBRANCH   7  14
ENDBRANCH   3  12
ENDBRANCH   2   4
ENDBRANCH   1   2
BRANCH   1  16
ATOM     16  C   UNL     1       2.273   6.881  19.983  0.00  0.00    +0.000 C 
BRANCH  16  17
ATOM     17  C   UNL     1       1.551   8.142  20.436  0.00  0.00    +0.000 A 
ATOM     18  N   UNL     1       1.143   8.161  21.721  0.00  0.00    +0.000 NA
ATOM     19  C   UNL     1       0.412   9.204  22.126  0.00  0.00    +0.000 A 
ATOM     20  C   UNL     1       0.075  10.254  21.280  0.00  0.00    +0.000 A 
ATOM     21  C   UNL     1      -0.707  11.468  21.434  0.00  0.00    +0.000 A 
ATOM     22  C   UNL     1      -1.404  11.887  22.690  0.00  0.00    +0.000 C 
ATOM     23  C   UNL     1      -0.735  12.201  20.257  0.00  0.00    +0.000 A 
ATOM     24  C   UNL     1      -1.426  13.502  19.992  0.00  0.00    +0.000 C 
ATOM     25  S   UNL     1       0.156  11.443  19.004  0.00  0.00    +0.000 S 
ATOM     26  C   UNL     1       0.579  10.128  19.998  0.00  0.00    +0.000 A 
ATOM     27  N   UNL     1       1.325   9.104  19.523  0.00  0.00    +0.000 NA
BRANCH  19  28
ATOM     28  O   UNL     1       0.026   9.134  23.432  0.00  0.00    +0.000 OA
ATOM     29  H   UNL     1      -0.900   8.859  23.322  0.00  0.00    +0.000 HD
ENDBRANCH  19  28
ENDBRANCH  16  17
ENDBRANCH   1  16
TORSDOF 7
ENDMDL
MODEL 5
REMARK VINA RESULT:      -7.0      1.012      1.163
REMARK  Name = 
REMARK  10 active torsions:
REMARK  status: ('A' for Active; 'I' for Inactive)
REMARK    1  A    between atoms: C_1  and  C_2
REMARK    2  A    between atoms: C_2  and  C_4
REMARK    3  A    between atoms: C_9  and  N_10
REMARK    4  A    between atoms: C_11  and  C_13
REMARK    5  A    between atoms: C_13  and  S_14
REMARK    6  A    between atoms: S_14  and  C_15
REMARK    7  A    between atoms: C_15  and  C_16
REMARK    8  A    between atoms: C_18  and  O_19
REMARK    9  A    between atoms: C_21  and  C_22
REMARK   10  A    between atoms: C_23  and  C_24
REMARK                            x       y       z     vdW  Elec       q    Type
REMARK                         _______ _______ _______ _____ _____    ______ ____
ROOT
ATOM      1  S   UNL     1       2.384   5.353  20.346  0.00  0.00    +0.000 S 
ENDROOT
BRANCH   1   2
ATOM      2  C   UNL     1       1.750   4.118  19.163  0.00  0.00    +0.000 C 
BRANCH   2   4
ATOM      3  N   UNL     1       3.853   4.719  17.985  0.00  0.00    +0.000 N 
ATOM      4  C   UNL     1       2.815   3.790  18.117  0.00  0.00    +0.000 C 
ATOM      5  O   UNL     1       2.688   2.767  17.442  0.00  0.00    +0.000 OA
ATOM      6  H   UNL     1       3.933   5.429  18.721  0.00  0.00    +0.000 HD
BRANCH   3  12
ATOM      7  C   UNL     1       6.267   4.886  17.405  0.00  0.00    +0.000 A 
ATOM      8  C   UNL     1       7.292   4.766  16.446  0.00  0.00    +0.000 A 
ATOM      9  C   UNL     1       7.001   4.428  15.120  0.00  0.00    +0.000 A 
ATOM     10  C   UNL     1       5.680   4.241  14.755  0.00  0.00    +0.000 A 
ATOM     11  C   UNL     1       4.658   4.367  15.694  0.00  0.00    +0.000 A 
ATOM     12  C   UNL     1       4.918   4.662  17.045  0.00  0.00    +0.000 A 
BRANCH   7  14
ATOM     13  C   UNL     1       7.919   6.117  18.956  0.00  0.00    +0.000 C 
ATOM     14  C   UNL     1       6.693   5.239  18.795  0.00  0.00    +0.000 C 
ATOM     15  O   UNL     1       6.037   4.838  19.753  0.00  0.00    +0.000 OA
ENDBRANCH   7  14
ENDBRANCH   3  12
ENDBRANCH   2   4
ENDBRANCH   1   2
BRANCH   1  16
ATOM     16  C   UNL     1       2.652   6.784  19.223  0.00  0.00    +0.000 C 
BRANCH  16  17
ATOM     17  C   UNL     1       1.753   7.949  19.613  0.00  0.00    +0.000 A 
ATOM     18  N   UNL     1       1.621   8.929  18.696  0.00  0.00    +0.000 NA
ATOM     19  C   UNL     1       0.928  10.017  19.043  0.00  0.00    +0.000 A 
ATOM     20  C   UNL     1       0.342  10.162  20.295  0.00  0.00    +0.000 A 
ATOM     21  C   UNL     1      -0.423  11.215  20.939  0.00  0.00    +0.000 A 
ATOM     22  C   UNL     1      -0.775  12.527  20.313  0.00  0.00    +0.000 C 
ATOM     23  C   UNL     1      -0.789  10.854  22.228  0.00  0.00    +0.000 A 
ATOM     24  C   UNL     1      -1.575  11.647  23.225  0.00  0.00    +0.000 C 
ATOM     25  S   UNL     1      -0.223   9.291  22.645  0.00  0.00    +0.000 S 
ATOM     26  C   UNL     1       0.525   9.076  21.131  0.00  0.00    +0.000 A 
ATOM     27  N   UNL     1       1.212   7.945  20.845  0.00  0.00    +0.000 NA
BRANCH  19  28
ATOM     28  O   UNL     1       0.861  10.964  18.065  0.00  0.00    +0.000 OA
ATOM     29  H   UNL     1       0.759  11.764  18.607  0.00  0.00    +0.000 HD
ENDBRANCH  19  28
ENDBRANCH  16  17
ENDBRANCH   1  16
TORSDOF 7
ENDMDL
MODEL 6
REMARK VINA RESULT:      -7.0      3.421      8.777
REMARK  Name = 
REMARK  10 active torsions:
REMARK  status: ('A' for Active; 'I' for Inactive)
REMARK    1  A    between atoms: C_1  and  C_2
REMARK    2  A    between atoms: C_2  and  C_4
REMARK    3  A    between atoms: C_9  and  N_10
REMARK    4  A    between atoms: C_11  and  C_13
REMARK    5  A    between atoms: C_13  and  S_14
REMARK    6  A    between atoms: S_14  and  C_15
REMARK    7  A    between atoms: C_15  and  C_16
REMARK    8  A    between atoms: C_18  and  O_19
REMARK    9  A    between atoms: C_21  and  C_22
REMARK   10  A    between atoms: C_23  and  C_24
REMARK                            x       y       z     vdW  Elec       q    Type
REMARK                         _______ _______ _______ _____ _____    ______ ____
ROOT
ATOM      1  S   UNL     1       0.699   9.374  20.640  0.00  0.00    +0.000 S 
ENDROOT
BRANCH   1   2
ATOM      2  C   UNL     1       0.093  11.093  20.651  0.00  0.00    +0.000 C 
BRANCH   2   4
ATOM      3  N   UNL     1      -1.711  10.554  19.030  0.00  0.00    +0.000 N 
ATOM      4  C   UNL     1      -0.647  11.404  19.350  0.00  0.00    +0.000 C 
ATOM      5  O   UNL     1      -0.256  12.345  18.656  0.00  0.00    +0.000 OA
ATOM      6  H   UNL     1      -2.038   9.926  19.772  0.00  0.00    +0.000 HD
BRANCH   3  12
ATOM      7  C   UNL     1      -3.748  11.277  17.798  0.00  0.00    +0.000 A 
ATOM      8  C   UNL     1      -4.471  11.344  16.591  0.00  0.00    +0.000 A 
ATOM      9  C   UNL     1      -3.981  10.750  15.423  0.00  0.00    +0.000 A 
ATOM     10  C   UNL     1      -2.781  10.063  15.479  0.00  0.00    +0.000 A 
ATOM     11  C   UNL     1      -2.062   9.982  16.670  0.00  0.00    +0.000 A 
ATOM     12  C   UNL     1      -2.504  10.606  17.851  0.00  0.00    +0.000 A 
BRANCH   7  14
ATOM     13  C   UNL     1      -5.853  11.798  19.194  0.00  0.00    +0.000 C 
ATOM     14  C   UNL     1      -4.360  11.958  18.980  0.00  0.00    +0.000 C 
ATOM     15  O   UNL     1      -3.647  12.598  19.750  0.00  0.00    +0.000 OA
ENDBRANCH   7  14
ENDBRANCH   3  12
ENDBRANCH   2   4
ENDBRANCH   1   2
BRANCH   1  16
ATOM     16  C   UNL     1       1.449   9.295  18.962  0.00  0.00    +0.000 C 
BRANCH  16  17
ATOM     17  C   UNL     1       2.292   8.037  18.809  0.00  0.00    +0.000 A 
ATOM     18  N   UNL     1       3.126   8.007  17.749  0.00  0.00    +0.000 NA
ATOM     19  C   UNL     1       3.803   6.878  17.521  0.00  0.00    +0.000 A 
ATOM     20  C   UNL     1       3.682   5.756  18.334  0.00  0.00    +0.000 A 
ATOM     21  C   UNL     1       4.256   4.423  18.312  0.00  0.00    +0.000 A 
ATOM     22  C   UNL     1       5.209   3.915  17.276  0.00  0.00    +0.000 C 
ATOM     23  C   UNL     1       3.804   3.663  19.380  0.00  0.00    +0.000 A 
ATOM     24  C   UNL     1       4.147   2.247  19.721  0.00  0.00    +0.000 C 
ATOM     25  S   UNL     1       2.716   4.536  20.378  0.00  0.00    +0.000 S 
ATOM     26  C   UNL     1       2.819   5.926  19.401  0.00  0.00    +0.000 A 
ATOM     27  N   UNL     1       2.107   7.040  19.693  0.00  0.00    +0.000 NA
BRANCH  19  28
ATOM     28  O   UNL     1       4.605   6.928  16.420  0.00  0.00    +0.000 OA
ATOM     29  H   UNL     1       5.379   6.443  16.749  0.00  0.00    +0.000 HD
ENDBRANCH  19  28
ENDBRANCH  16  17
ENDBRANCH   1  16
TORSDOF 7
ENDMDL
MODEL 7
REMARK VINA RESULT:      -6.9      6.798      7.752
REMARK  Name = 
REMARK  10 active torsions:
REMARK  status: ('A' for Active; 'I' for Inactive)
REMARK    1  A    between atoms: C_1  and  C_2
REMARK    2  A    between atoms: C_2  and  C_4
REMARK    3  A    between atoms: C_9  and  N_10
REMARK    4  A    between atoms: C_11  and  C_13
REMARK    5  A    between atoms: C_13  and  S_14
REMARK    6  A    between atoms: S_14  and  C_15
REMARK    7  A    between atoms: C_15  and  C_16
REMARK    8  A    between atoms: C_18  and  O_19
REMARK    9  A    between atoms: C_21  and  C_22
REMARK   10  A    between atoms: C_23  and  C_24
REMARK                            x       y       z     vdW  Elec       q    Type
REMARK                         _______ _______ _______ _____ _____    ______ ____
ROOT
ATOM      1  S   UNL     1       8.902   9.729  18.934  0.00  0.00    +0.000 S 
ENDROOT
BRANCH   1   2
ATOM      2  C   UNL     1       8.172   8.998  17.431  0.00  0.00    +0.000 C 
BRANCH   2   4
ATOM      3  N   UNL     1       6.431   7.281  16.996  0.00  0.00    +0.000 N 
ATOM      4  C   UNL     1       7.554   7.637  17.749  0.00  0.00    +0.000 C 
ATOM      5  O   UNL     1       8.049   6.958  18.651  0.00  0.00    +0.000 OA
ATOM      6  H   UNL     1       6.231   7.852  16.168  0.00  0.00    +0.000 HD
BRANCH   3  12
ATOM      7  C   UNL     1       5.770   4.991  16.280  0.00  0.00    +0.000 A 
ATOM      8  C   UNL     1       5.016   3.823  16.507  0.00  0.00    +0.000 A 
ATOM      9  C   UNL     1       4.135   3.734  17.591  0.00  0.00    +0.000 A 
ATOM     10  C   UNL     1       3.993   4.829  18.425  0.00  0.00    +0.000 A 
ATOM     11  C   UNL     1       4.728   5.992  18.204  0.00  0.00    +0.000 A 
ATOM     12  C   UNL     1       5.654   6.100  17.150  0.00  0.00    +0.000 A 
BRANCH   7  14
ATOM     13  C   UNL     1       6.276   4.146  13.897  0.00  0.00    +0.000 C 
ATOM     14  C   UNL     1       6.689   4.972  15.100  0.00  0.00    +0.000 C 
ATOM     15  O   UNL     1       7.723   5.635  15.123  0.00  0.00    +0.000 OA
ENDBRANCH   7  14
ENDBRANCH   3  12
ENDBRANCH   2   4
ENDBRANCH   1   2
BRANCH   1  16
ATOM     16  C   UNL     1      10.108  10.898  18.185  0.00  0.00    +0.000 C 
BRANCH  16  17
ATOM     17  C   UNL     1       9.692  12.339  18.444  0.00  0.00    +0.000 A 
ATOM     18  N   UNL     1      10.111  13.248  17.540  0.00  0.00    +0.000 NA
ATOM     19  C   UNL     1       9.857  14.537  17.790  0.00  0.00    +0.000 A 
ATOM     20  C   UNL     1       9.179  14.958  18.928  0.00  0.00    +0.000 A 
ATOM     21  C   UNL     1       8.798  16.255  19.457  0.00  0.00    +0.000 A 
ATOM     22  C   UNL     1       9.101  17.570  18.810  0.00  0.00    +0.000 C 
ATOM     23  C   UNL     1       8.113  16.127  20.656  0.00  0.00    +0.000 A 
ATOM     24  C   UNL     1       7.552  17.211  21.523  0.00  0.00    +0.000 C 
ATOM     25  S   UNL     1       7.938  14.488  21.127  0.00  0.00    +0.000 S 
ATOM     26  C   UNL     1       8.779  13.927  19.758  0.00  0.00    +0.000 A 
ATOM     27  N   UNL     1       8.999  12.605  19.566  0.00  0.00    +0.000 NA
BRANCH  19  28
ATOM     28  O   UNL     1      10.332  15.387  16.836  0.00  0.00    +0.000 OA
ATOM     29  H   UNL     1      11.257  15.092  16.788  0.00  0.00    +0.000 HD
ENDBRANCH  19  28
ENDBRANCH  16  17
ENDBRANCH   1  16
TORSDOF 7
ENDMDL
MODEL 8
REMARK VINA RESULT:      -6.9      1.876      2.384
REMARK  Name = 
REMARK  10 active torsions:
REMARK  status: ('A' for Active; 'I' for Inactive)
REMARK    1  A    between atoms: C_1  and  C_2
REMARK    2  A    between atoms: C_2  and  C_4
REMARK    3  A    between atoms: C_9  and  N_10
REMARK    4  A    between atoms: C_11  and  C_13
REMARK    5  A    between atoms: C_13  and  S_14
REMARK    6  A    between atoms: S_14  and  C_15
REMARK    7  A    between atoms: C_15  and  C_16
REMARK    8  A    between atoms: C_18  and  O_19
REMARK    9  A    between atoms: C_21  and  C_22
REMARK   10  A    between atoms: C_23  and  C_24
REMARK                            x       y       z     vdW  Elec       q    Type
REMARK                         _______ _______ _______ _____ _____    ______ ____
ROOT
ATOM      1  S   UNL     1       2.029   6.011  19.204  0.00  0.00    +0.000 S 
ENDROOT
BRANCH   1   2
ATOM      2  C   UNL     1       2.625   4.318  19.528  0.00  0.00    +0.000 C 
BRANCH   2   4
ATOM      3  N   UNL     1       4.217   4.978  17.740  0.00  0.00    +0.000 N 
ATOM      4  C   UNL     1       3.708   3.935  18.521  0.00  0.00    +0.000 C 
ATOM      5  O   UNL     1       4.044   2.753  18.432  0.00  0.00    +0.000 OA
ATOM      6  H   UNL     1       3.980   5.932  18.032  0.00  0.00    +0.000 HD
BRANCH   3  12
ATOM      7  C   UNL     1       6.556   5.124  16.901  0.00  0.00    +0.000 A 
ATOM      8  C   UNL     1       7.479   4.939  15.854  0.00  0.00    +0.000 A 
ATOM      9  C   UNL     1       7.060   4.494  14.595  0.00  0.00    +0.000 A 
ATOM     10  C   UNL     1       5.712   4.265  14.384  0.00  0.00    +0.000 A 
ATOM     11  C   UNL     1       4.789   4.454  15.412  0.00  0.00    +0.000 A 
ATOM     12  C   UNL     1       5.181   4.858  16.701  0.00  0.00    +0.000 A 
BRANCH   7  14
ATOM     13  C   UNL     1       7.810   6.938  18.238  0.00  0.00    +0.000 C 
ATOM     14  C   UNL     1       7.115   5.590  18.208  0.00  0.00    +0.000 C 
ATOM     15  O   UNL     1       6.978   4.895  19.212  0.00  0.00    +0.000 OA
ENDBRANCH   7  14
ENDBRANCH   3  12
ENDBRANCH   2   4
ENDBRANCH   1   2
BRANCH   1  16
ATOM     16  C   UNL     1       1.691   6.580  20.920  0.00  0.00    +0.000 C 
BRANCH  16  17
ATOM     17  C   UNL     1       1.311   8.054  20.932  0.00  0.00    +0.000 A 
ATOM     18  N   UNL     1       0.941   8.561  22.126  0.00  0.00    +0.000 NA
ATOM     19  C   UNL     1       0.498   9.822  22.156  0.00  0.00    +0.000 A 
ATOM     20  C   UNL     1       0.417  10.613  21.016  0.00  0.00    +0.000 A 
ATOM     21  C   UNL     1      -0.038  11.967  20.754  0.00  0.00    +0.000 A 
ATOM     22  C   UNL     1      -0.589  12.903  21.784  0.00  0.00    +0.000 C 
ATOM     23  C   UNL     1       0.096  12.292  19.413  0.00  0.00    +0.000 A 
ATOM     24  C   UNL     1      -0.256  13.576  18.730  0.00  0.00    +0.000 C 
ATOM     25  S   UNL     1       0.751  10.998  18.498  0.00  0.00    +0.000 S 
ATOM     26  C   UNL     1       0.852   9.986  19.864  0.00  0.00    +0.000 A 
ATOM     27  N   UNL     1       1.314   8.718  19.761  0.00  0.00    +0.000 NA
BRANCH  19  28
ATOM     28  O   UNL     1       0.128  10.246  23.398  0.00  0.00    +0.000 OA
ATOM     29  H   UNL     1       0.345   9.457  23.921  0.00  0.00    +0.000 HD
ENDBRANCH  19  28
ENDBRANCH  16  17
ENDBRANCH   1  16
TORSDOF 7
ENDMDL
MODEL 9
REMARK VINA RESULT:      -6.9      7.086      8.086
REMARK  Name = 
REMARK  10 active torsions:
REMARK  status: ('A' for Active; 'I' for Inactive)
REMARK    1  A    between atoms: C_1  and  C_2
REMARK    2  A    between atoms: C_2  and  C_4
REMARK    3  A    between atoms: C_9  and  N_10
REMARK    4  A    between atoms: C_11  and  C_13
REMARK    5  A    between atoms: C_13  and  S_14
REMARK    6  A    between atoms: S_14  and  C_15
REMARK    7  A    between atoms: C_15  and  C_16
REMARK    8  A    between atoms: C_18  and  O_19
REMARK    9  A    between atoms: C_21  and  C_22
REMARK   10  A    between atoms: C_23  and  C_24
REMARK                            x       y       z     vdW  Elec       q    Type
REMARK                         _______ _______ _______ _____ _____    ______ ____
ROOT
ATOM      1  S   UNL     1       8.820   9.520  18.912  0.00  0.00    +0.000 S 
ENDROOT
BRANCH   1   2
ATOM      2  C   UNL     1       8.280   8.701  17.375  0.00  0.00    +0.000 C 
BRANCH   2   4
ATOM      3  N   UNL     1       6.328   7.244  16.883  0.00  0.00    +0.000 N 
ATOM      4  C   UNL     1       7.443   7.464  17.699  0.00  0.00    +0.000 C 
ATOM      5  O   UNL     1       7.771   6.761  18.657  0.00  0.00    +0.000 OA
ATOM      6  H   UNL     1       6.270   7.800  16.023  0.00  0.00    +0.000 HD
BRANCH   3  12
ATOM      7  C   UNL     1       5.544   4.924  16.442  0.00  0.00    +0.000 A 
ATOM      8  C   UNL     1       4.593   3.907  16.658  0.00  0.00    +0.000 A 
ATOM      9  C   UNL     1       3.461   4.136  17.448  0.00  0.00    +0.000 A 
ATOM     10  C   UNL     1       3.273   5.393  17.994  0.00  0.00    +0.000 A 
ATOM     11  C   UNL     1       4.202   6.409  17.779  0.00  0.00    +0.000 A 
ATOM     12  C   UNL     1       5.373   6.201  17.026  0.00  0.00    +0.000 A 
BRANCH   7  14
ATOM     13  C   UNL     1       6.463   4.218  14.138  0.00  0.00    +0.000 C 
ATOM     14  C   UNL     1       6.721   4.566  15.592  0.00  0.00    +0.000 C 
ATOM     15  O   UNL     1       7.850   4.589  16.075  0.00  0.00    +0.000 OA
ENDBRANCH   7  14
ENDBRANCH   3  12
ENDBRANCH   2   4
ENDBRANCH   1   2
BRANCH   1  16
ATOM     16  C   UNL     1       9.583  11.047  18.226  0.00  0.00    +0.000 C 
BRANCH  16  17
ATOM     17  C   UNL     1       9.720  12.111  19.306  0.00  0.00    +0.000 A 
ATOM     18  N   UNL     1       9.477  11.708  20.570  0.00  0.00    +0.000 NA
ATOM     19  C   UNL     1       9.483  12.636  21.531  0.00  0.00    +0.000 A 
ATOM     20  C   UNL     1       9.736  13.979  21.272  0.00  0.00    +0.000 A 
ATOM     21  C   UNL     1       9.778  15.177  22.091  0.00  0.00    +0.000 A 
ATOM     22  C   UNL     1       9.518  15.221  23.564  0.00  0.00    +0.000 C 
ATOM     23  C   UNL     1      10.088  16.295  21.330  0.00  0.00    +0.000 A 
ATOM     24  C   UNL     1      10.227  17.714  21.783  0.00  0.00    +0.000 C 
ATOM     25  S   UNL     1      10.320  15.906  19.677  0.00  0.00    +0.000 S 
ATOM     26  C   UNL     1       9.999  14.255  19.943  0.00  0.00    +0.000 A 
ATOM     27  N   UNL     1      10.012  13.367  18.922  0.00  0.00    +0.000 NA
BRANCH  19  28
ATOM     28  O   UNL     1       9.208  12.146  22.773  0.00  0.00    +0.000 OA
ATOM     29  H   UNL     1       9.319  12.952  23.304  0.00  0.00    +0.000 HD
ENDBRANCH  19  28
ENDBRANCH  16  17
ENDBRANCH   1  16
TORSDOF 7
ENDMDL
