MODEL 1
REMARK VINA RESULT:      -7.5      0.000      0.000
REMARK  Name = 
REMARK  8 active torsions:
REMARK  status: ('A' for Active; 'I' for Inactive)
REMARK    1  A    between atoms: C_1  and  C_2
REMARK    2  A    between atoms: C_2  and  C_3
REMARK    3  A    between atoms: C_2  and  C_4
REMARK    4  A    between atoms: C_4  and  C_5
REMARK    5  A    between atoms: C_5  and  N_6
REMARK    6  A    between atoms: N_6  and  S_7
REMARK    7  A    between atoms: S_7  and  C_10
REMARK    8  A    between atoms: C_13  and  N_14
REMARK                            x       y       z     vdW  Elec       q    Type
REMARK                         _______ _______ _______ _____ _____    ______ ____
ROOT
ATOM      1  C   UNL     1       5.684   4.834  17.239  0.00  0.00    +0.000 A 
ATOM      2  C   UNL     1       5.718   5.221  18.579  0.00  0.00    +0.000 A 
ATOM      3  C   UNL     1       4.678   4.851  19.431  0.00  0.00    +0.000 A 
ATOM      4  C   UNL     1       3.607   4.086  18.953  0.00  0.00    +0.000 A 
ATOM      5  C   UNL     1       3.572   3.711  17.596  0.00  0.00    +0.000 A 
ATOM      6  C   UNL     1       4.606   4.101  16.735  0.00  0.00    +0.000 A 
ENDROOT
BRANCH   4   7
ATOM      7  N   UNL     1       2.564   3.679  19.833  0.00  0.00    +0.000 N 
ATOM      8  C   UNL     1       2.695   3.117  21.087  0.00  0.00    +0.000 A 
ATOM      9  C   UNL     1       1.431   2.818  21.533  0.00  0.00    +0.000 A 
ATOM     10  C   UNL     1       0.588   3.248  20.503  0.00  0.00    +0.000 A 
ATOM     11  N   UNL     1       1.257   3.783  19.481  0.00  0.00    +0.000 NA
ENDBRANCH   4   7
BRANCH   1  12
ATOM     12  S   UNL     1       7.011   5.338  16.165  0.00  0.00    +0.000 S 
ATOM     13  O   UNL     1       8.012   4.294  16.162  0.00  0.00    +0.000 OA
ATOM     14  O   UNL     1       7.324   6.704  16.515  0.00  0.00    +0.000 OA
BRANCH  12  15
ATOM     15  N   UNL     1       6.254   5.357  14.646  0.00  0.00    +0.000 NA
ATOM     16  H   UNL     1       5.267   5.607  14.727  0.00  0.00    +0.000 HD
BRANCH  15  17
ATOM     17  C   UNL     1       6.496   4.180  13.792  0.00  0.00    +0.000 C 
BRANCH  17  18
ATOM     18  C   UNL     1       5.178   3.667  13.202  0.00  0.00    +0.000 C 
BRANCH  18  20
ATOM     19  C   UNL     1       5.977   1.932  11.510  0.00  0.00    +0.000 C 
ATOM     20  C   UNL     1       5.253   3.264  11.714  0.00  0.00    +0.000 C 
ATOM     21  C   UNL     1       3.848   3.177  11.110  0.00  0.00    +0.000 C 
ENDBRANCH  18  20
ENDBRANCH  17  18
ENDBRANCH  15  17
ENDBRANCH  12  15
ENDBRANCH   1  12
TORSDOF 6
ENDMDL
MODEL 2
REMARK VINA RESULT:      -7.4      0.774      1.342
REMARK  Name = 
REMARK  8 active torsions:
REMARK  status: ('A' for Active; 'I' for Inactive)
REMARK    1  A    between atoms: C_1  and  C_2
REMARK    2  A    between atoms: C_2  and  C_3
REMARK    3  A    between atoms: C_2  and  C_4
REMARK    4  A    between atoms: C_4  and  C_5
REMARK    5  A    between atoms: C_5  and  N_6
REMARK    6  A    between atoms: N_6  and  S_7
REMARK    7  A    between atoms: S_7  and  C_10
REMARK    8  A    between atoms: C_13  and  N_14
REMARK                            x       y       z     vdW  Elec       q    Type
REMARK                         _______ _______ _______ _____ _____    ______ ____
ROOT
ATOM      1  C   UNL     1       5.298   5.056  17.094  0.00  0.00    +0.000 A 
ATOM      2  C   UNL     1       4.727   3.794  16.923  0.00  0.00    +0.000 A 
ATOM      3  C   UNL     1       3.888   3.277  17.909  0.00  0.00    +0.000 A 
ATOM      4  C   UNL     1       3.608   4.019  19.063  0.00  0.00    +0.000 A 
ATOM      5  C   UNL     1       4.199   5.285  19.236  0.00  0.00    +0.000 A 
ATOM      6  C   UNL     1       5.059   5.797  18.254  0.00  0.00    +0.000 A 
ENDROOT
BRANCH   4   7
ATOM      7  N   UNL     1       2.723   3.504  20.054  0.00  0.00    +0.000 N 
ATOM      8  C   UNL     1       3.054   2.766  21.172  0.00  0.00    +0.000 A 
ATOM      9  C   UNL     1       1.879   2.423  21.796  0.00  0.00    +0.000 A 
ATOM     10  C   UNL     1       0.883   3.008  21.007  0.00  0.00    +0.000 A 
ATOM     11  N   UNL     1       1.379   3.676  19.964  0.00  0.00    +0.000 NA
ENDBRANCH   4   7
BRANCH   1  12
ATOM     12  S   UNL     1       6.384   5.685  15.832  0.00  0.00    +0.000 S 
ATOM     13  O   UNL     1       7.559   6.228  16.476  0.00  0.00    +0.000 OA
ATOM     14  O   UNL     1       5.561   6.471  14.941  0.00  0.00    +0.000 OA
BRANCH  12  15
ATOM     15  N   UNL     1       6.831   4.271  15.006  0.00  0.00    +0.000 NA
ATOM     16  H   UNL     1       7.749   3.943  15.305  0.00  0.00    +0.000 HD
BRANCH  15  17
ATOM     17  C   UNL     1       6.664   4.303  13.541  0.00  0.00    +0.000 C 
BRANCH  17  18
ATOM     18  C   UNL     1       5.387   3.562  13.132  0.00  0.00    +0.000 C 
BRANCH  18  20
ATOM     19  C   UNL     1       5.910   1.728  11.437  0.00  0.00    +0.000 C 
ATOM     20  C   UNL     1       5.340   3.131  11.650  0.00  0.00    +0.000 C 
ATOM     21  C   UNL     1       3.904   3.183  11.122  0.00  0.00    +0.000 C 
ENDBRANCH  18  20
ENDBRANCH  17  18
ENDBRANCH  15  17
ENDBRANCH  12  15
ENDBRANCH   1  12
TORSDOF 6
ENDMDL
MODEL 3
REMARK VINA RESULT:      -7.4      0.738      1.037
REMARK  Name = 
REMARK  8 active torsions:
REMARK  status: ('A' for Active; 'I' for Inactive)
REMARK    1  A    between atoms: C_1  and  C_2
REMARK    2  A    between atoms: C_2  and  C_3
REMARK    3  A    between atoms: C_2  and  C_4
REMARK    4  A    between atoms: C_4  and  C_5
REMARK    5  A    between atoms: C_5  and  N_6
REMARK    6  A    between atoms: N_6  and  S_7
REMARK    7  A    between atoms: S_7  and  C_10
REMARK    8  A    between atoms: C_13  and  N_14
REMARK                            x       y       z     vdW  Elec       q    Type
REMARK                         _______ _______ _______ _____ _____    ______ ____
ROOT
ATOM      1  C   UNL     1       5.641   5.097  17.447  0.00  0.00    +0.000 A 
ATOM      2  C   UNL     1       5.892   4.404  18.631  0.00  0.00    +0.000 A 
ATOM      3  C   UNL     1       4.825   3.956  19.409  0.00  0.00    +0.000 A 
ATOM      4  C   UNL     1       3.505   4.189  19.004  0.00  0.00    +0.000 A 
ATOM      5  C   UNL     1       3.258   4.902  17.815  0.00  0.00    +0.000 A 
ATOM      6  C   UNL     1       4.331   5.370  17.043  0.00  0.00    +0.000 A 
ENDROOT
BRANCH   4   7
ATOM      7  N   UNL     1       2.416   3.701  19.781  0.00  0.00    +0.000 N 
ATOM      8  C   UNL     1       2.433   3.334  21.112  0.00  0.00    +0.000 A 
ATOM      9  C   UNL     1       1.182   2.854  21.418  0.00  0.00    +0.000 A 
ATOM     10  C   UNL     1       0.459   2.984  20.227  0.00  0.00    +0.000 A 
ATOM     11  N   UNL     1       1.186   3.508  19.238  0.00  0.00    +0.000 NA
ENDBRANCH   4   7
BRANCH   1  12
ATOM     12  S   UNL     1       7.019   5.678  16.483  0.00  0.00    +0.000 S 
ATOM     13  O   UNL     1       8.027   4.641  16.463  0.00  0.00    +0.000 OA
ATOM     14  O   UNL     1       7.302   7.019  16.942  0.00  0.00    +0.000 OA
BRANCH  12  15
ATOM     15  N   UNL     1       6.344   5.798  14.930  0.00  0.00    +0.000 NA
ATOM     16  H   UNL     1       5.340   5.972  14.976  0.00  0.00    +0.000 HD
BRANCH  15  17
ATOM     17  C   UNL     1       6.716   4.730  13.983  0.00  0.00    +0.000 C 
BRANCH  17  18
ATOM     18  C   UNL     1       5.489   3.889  13.618  0.00  0.00    +0.000 C 
BRANCH  18  20
ATOM     19  C   UNL     1       4.405   3.249  11.399  0.00  0.00    +0.000 C 
ATOM     20  C   UNL     1       5.626   3.088  12.305  0.00  0.00    +0.000 C 
ATOM     21  C   UNL     1       6.885   3.515  11.545  0.00  0.00    +0.000 C 
ENDBRANCH  18  20
ENDBRANCH  17  18
ENDBRANCH  15  17
ENDBRANCH  12  15
ENDBRANCH   1  12
TORSDOF 6
ENDMDL
MODEL 4
REMARK VINA RESULT:      -7.2      0.769      1.240
REMARK  Name = 
REMARK  8 active torsions:
REMARK  status: ('A' for Active; 'I' for Inactive)
REMARK    1  A    between atoms: C_1  and  C_2
REMARK    2  A    between atoms: C_2  and  C_3
REMARK    3  A    between atoms: C_2  and  C_4
REMARK    4  A    between atoms: C_4  and  C_5
REMARK    5  A    between atoms: C_5  and  N_6
REMARK    6  A    between atoms: N_6  and  S_7
REMARK    7  A    between atoms: S_7  and  C_10
REMARK    8  A    between atoms: C_13  and  N_14
REMARK                            x       y       z     vdW  Elec       q    Type
REMARK                         _______ _______ _______ _____ _____    ______ ____
ROOT
ATOM      1  C   UNL     1       5.569   4.992  17.310  0.00  0.00    +0.000 A 
ATOM      2  C   UNL     1       4.322   5.616  17.255  0.00  0.00    +0.000 A 
ATOM      3  C   UNL     1       3.287   5.165  18.073  0.00  0.00    +0.000 A 
ATOM      4  C   UNL     1       3.494   4.098  18.956  0.00  0.00    +0.000 A 
ATOM      5  C   UNL     1       4.751   3.463  18.996  0.00  0.00    +0.000 A 
ATOM      6  C   UNL     1       5.785   3.903  18.159  0.00  0.00    +0.000 A 
ENDROOT
BRANCH   4   7
ATOM      7  N   UNL     1       2.447   3.661  19.817  0.00  0.00    +0.000 N 
ATOM      8  C   UNL     1       2.567   3.167  21.100  0.00  0.00    +0.000 A 
ATOM      9  C   UNL     1       1.309   2.803  21.515  0.00  0.00    +0.000 A 
ATOM     10  C   UNL     1       0.479   3.127  20.437  0.00  0.00    +0.000 A 
ATOM     11  N   UNL     1       1.150   3.660  19.414  0.00  0.00    +0.000 NA
ENDBRANCH   4   7
BRANCH   1  12
ATOM     12  S   UNL     1       6.867   5.570  16.240  0.00  0.00    +0.000 S 
ATOM     13  O   UNL     1       7.942   4.604  16.270  0.00  0.00    +0.000 OA
ATOM     14  O   UNL     1       7.074   6.963  16.564  0.00  0.00    +0.000 OA
BRANCH  12  15
ATOM     15  N   UNL     1       6.129   5.503  14.713  0.00  0.00    +0.000 NA
ATOM     16  H   UNL     1       5.430   6.239  14.607  0.00  0.00    +0.000 HD
BRANCH  15  17
ATOM     17  C   UNL     1       5.655   4.174  14.286  0.00  0.00    +0.000 C 
BRANCH  17  18
ATOM     18  C   UNL     1       6.274   3.792  12.938  0.00  0.00    +0.000 C 
BRANCH  18  20
ATOM     19  C   UNL     1       4.325   3.266  11.377  0.00  0.00    +0.000 C 
ATOM     20  C   UNL     1       5.507   2.698  12.164  0.00  0.00    +0.000 C 
ATOM     21  C   UNL     1       6.447   1.958  11.208  0.00  0.00    +0.000 C 
ENDBRANCH  18  20
ENDBRANCH  17  18
ENDBRANCH  15  17
ENDBRANCH  12  15
ENDBRANCH   1  12
TORSDOF 6
ENDMDL
MODEL 5
REMARK VINA RESULT:      -7.1      1.200      1.541
REMARK  Name = 
REMARK  8 active torsions:
REMARK  status: ('A' for Active; 'I' for Inactive)
REMARK    1  A    between atoms: C_1  and  C_2
REMARK    2  A    between atoms: C_2  and  C_3
REMARK    3  A    between atoms: C_2  and  C_4
REMARK    4  A    between atoms: C_4  and  C_5
REMARK    5  A    between atoms: C_5  and  N_6
REMARK    6  A    between atoms: N_6  and  S_7
REMARK    7  A    between atoms: S_7  and  C_10
REMARK    8  A    between atoms: C_13  and  N_14
REMARK                            x       y       z     vdW  Elec       q    Type
REMARK                         _______ _______ _______ _____ _____    ______ ____
ROOT
ATOM      1  C   UNL     1       5.197   5.529  17.201  0.00  0.00    +0.000 A 
ATOM      2  C   UNL     1       4.293   6.271  17.962  0.00  0.00    +0.000 A 
ATOM      3  C   UNL     1       3.470   5.623  18.882  0.00  0.00    +0.000 A 
ATOM      4  C   UNL     1       3.552   4.236  19.055  0.00  0.00    +0.000 A 
ATOM      5  C   UNL     1       4.456   3.491  18.273  0.00  0.00    +0.000 A 
ATOM      6  C   UNL     1       5.270   4.140  17.334  0.00  0.00    +0.000 A 
ENDROOT
BRANCH   4   7
ATOM      7  N   UNL     1       2.736   3.580  20.020  0.00  0.00    +0.000 N 
ATOM      8  C   UNL     1       1.389   3.777  20.253  0.00  0.00    +0.000 A 
ATOM      9  C   UNL     1       1.041   2.988  21.322  0.00  0.00    +0.000 A 
ATOM     10  C   UNL     1       2.226   2.328  21.667  0.00  0.00    +0.000 A 
ATOM     11  N   UNL     1       3.249   2.664  20.880  0.00  0.00    +0.000 NA
ENDBRANCH   4   7
BRANCH   1  12
ATOM     12  S   UNL     1       6.221   6.375  16.017  0.00  0.00    +0.000 S 
ATOM     13  O   UNL     1       7.104   7.265  16.737  0.00  0.00    +0.000 OA
ATOM     14  O   UNL     1       5.338   6.843  14.974  0.00  0.00    +0.000 OA
BRANCH  12  15
ATOM     15  N   UNL     1       7.148   5.106  15.375  0.00  0.00    +0.000 NA
ATOM     16  H   UNL     1       8.105   5.132  15.727  0.00  0.00    +0.000 HD
BRANCH  15  17
ATOM     17  C   UNL     1       7.062   4.924  13.914  0.00  0.00    +0.000 C 
BRANCH  17  18
ATOM     18  C   UNL     1       6.110   3.773  13.573  0.00  0.00    +0.000 C 
BRANCH  18  20
ATOM     19  C   UNL     1       6.791   2.282  11.618  0.00  0.00    +0.000 C 
ATOM     20  C   UNL     1       5.961   3.487  12.064  0.00  0.00    +0.000 C 
ATOM     21  C   UNL     1       4.490   3.253  11.705  0.00  0.00    +0.000 C 
ENDBRANCH  18  20
ENDBRANCH  17  18
ENDBRANCH  15  17
ENDBRANCH  12  15
ENDBRANCH   1  12
TORSDOF 6
ENDMDL
MODEL 6
REMARK VINA RESULT:      -7.1      0.965      1.503
REMARK  Name = 
REMARK  8 active torsions:
REMARK  status: ('A' for Active; 'I' for Inactive)
REMARK    1  A    between atoms: C_1  and  C_2
REMARK    2  A    between atoms: C_2  and  C_3
REMARK    3  A    between atoms: C_2  and  C_4
REMARK    4  A    between atoms: C_4  and  C_5
REMARK    5  A    between atoms: C_5  and  N_6
REMARK    6  A    between atoms: N_6  and  S_7
REMARK    7  A    between atoms: S_7  and  C_10
REMARK    8  A    between atoms: C_13  and  N_14
REMARK                            x       y       z     vdW  Elec       q    Type
REMARK                         _______ _______ _______ _____ _____    ______ ____
ROOT
ATOM      1  C   UNL     1       5.248   5.094  17.085  0.00  0.00    +0.000 A 
ATOM      2  C   UNL     1       5.083   5.763  18.298  0.00  0.00    +0.000 A 
ATOM      3  C   UNL     1       4.258   5.218  19.281  0.00  0.00    +0.000 A 
ATOM      4  C   UNL     1       3.603   4.001  19.062  0.00  0.00    +0.000 A 
ATOM      5  C   UNL     1       3.761   3.337  17.831  0.00  0.00    +0.000 A 
ATOM      6  C   UNL     1       4.575   3.894  16.835  0.00  0.00    +0.000 A 
ENDROOT
BRANCH   4   7
ATOM      7  N   UNL     1       2.788   3.428  20.081  0.00  0.00    +0.000 N 
ATOM      8  C   UNL     1       1.441   3.642  20.297  0.00  0.00    +0.000 A 
ATOM      9  C   UNL     1       1.095   2.946  21.430  0.00  0.00    +0.000 A 
ATOM     10  C   UNL     1       2.281   2.319  21.828  0.00  0.00    +0.000 A 
ATOM     11  N   UNL     1       3.303   2.589  21.015  0.00  0.00    +0.000 NA
ENDBRANCH   4   7
BRANCH   1  12
ATOM     12  S   UNL     1       6.288   5.819  15.837  0.00  0.00    +0.000 S 
ATOM     13  O   UNL     1       7.536   6.206  16.456  0.00  0.00    +0.000 OA
ATOM     14  O   UNL     1       5.463   6.760  15.114  0.00  0.00    +0.000 OA
BRANCH  12  15
ATOM     15  N   UNL     1       6.586   4.501  14.809  0.00  0.00    +0.000 NA
ATOM     16  H   UNL     1       7.586   4.380  14.644  0.00  0.00    +0.000 HD
BRANCH  15  17
ATOM     17  C   UNL     1       5.775   4.449  13.579  0.00  0.00    +0.000 C 
BRANCH  17  18
ATOM     18  C   UNL     1       6.427   3.523  12.547  0.00  0.00    +0.000 C 
BRANCH  18  20
ATOM     19  C   UNL     1       4.308   3.078  11.198  0.00  0.00    +0.000 C 
ATOM     20  C   UNL     1       5.483   2.456  11.953  0.00  0.00    +0.000 C 
ATOM     21  C   UNL     1       6.254   1.521  11.016  0.00  0.00    +0.000 C 
ENDBRANCH  18  20
ENDBRANCH  17  18
ENDBRANCH  15  17
ENDBRANCH  12  15
ENDBRANCH   1  12
TORSDOF 6
ENDMDL
MODEL 7
REMARK VINA RESULT:      -7.1      4.142      5.534
REMARK  Name = 
REMARK  8 active torsions:
REMARK  status: ('A' for Active; 'I' for Inactive)
REMARK    1  A    between atoms: C_1  and  C_2
REMARK    2  A    between atoms: C_2  and  C_3
REMARK    3  A    between atoms: C_2  and  C_4
REMARK    4  A    between atoms: C_4  and  C_5
REMARK    5  A    between atoms: C_5  and  N_6
REMARK    6  A    between atoms: N_6  and  S_7
REMARK    7  A    between atoms: S_7  and  C_10
REMARK    8  A    between atoms: C_13  and  N_14
REMARK                            x       y       z     vdW  Elec       q    Type
REMARK                         _______ _______ _______ _____ _____    ______ ____
ROOT
ATOM      1  C   UNL     1       3.650   5.345  18.610  0.00  0.00    +0.000 A 
ATOM      2  C   UNL     1       3.660   6.369  17.662  0.00  0.00    +0.000 A 
ATOM      3  C   UNL     1       2.937   7.537  17.900  0.00  0.00    +0.000 A 
ATOM      4  C   UNL     1       2.211   7.693  19.087  0.00  0.00    +0.000 A 
ATOM      5  C   UNL     1       2.194   6.651  20.034  0.00  0.00    +0.000 A 
ATOM      6  C   UNL     1       2.904   5.468  19.786  0.00  0.00    +0.000 A 
ENDROOT
BRANCH   4   7
ATOM      7  N   UNL     1       1.502   8.902  19.345  0.00  0.00    +0.000 N 
ATOM      8  C   UNL     1       0.837   9.254  20.502  0.00  0.00    +0.000 A 
ATOM      9  C   UNL     1       0.238  10.469  20.274  0.00  0.00    +0.000 A 
ATOM     10  C   UNL     1       0.606  10.797  18.964  0.00  0.00    +0.000 A 
ATOM     11  N   UNL     1       1.380   9.869  18.400  0.00  0.00    +0.000 NA
ENDBRANCH   4   7
BRANCH   1  12
ATOM     12  S   UNL     1       4.561   3.854  18.275  0.00  0.00    +0.000 S 
ATOM     13  O   UNL     1       3.614   2.796  18.005  0.00  0.00    +0.000 OA
ATOM     14  O   UNL     1       5.563   3.746  19.311  0.00  0.00    +0.000 OA
BRANCH  12  15
ATOM     15  N   UNL     1       5.360   4.241  16.827  0.00  0.00    +0.000 NA
ATOM     16  H   UNL     1       5.091   3.605  16.076  0.00  0.00    +0.000 HD
BRANCH  15  17
ATOM     17  C   UNL     1       6.816   4.449  16.932  0.00  0.00    +0.000 C 
BRANCH  17  18
ATOM     18  C   UNL     1       7.167   5.917  16.670  0.00  0.00    +0.000 C 
BRANCH  18  20
ATOM     19  C   UNL     1       7.971   6.124  19.082  0.00  0.00    +0.000 C 
ATOM     20  C   UNL     1       7.221   6.801  17.934  0.00  0.00    +0.000 C 
ATOM     21  C   UNL     1       7.880   8.147  17.619  0.00  0.00    +0.000 C 
ENDBRANCH  18  20
ENDBRANCH  17  18
ENDBRANCH  15  17
ENDBRANCH  12  15
ENDBRANCH   1  12
TORSDOF 6
ENDMDL
MODEL 8
REMARK VINA RESULT:      -7.1      0.678      1.010
REMARK  Name = 
REMARK  8 active torsions:
REMARK  status: ('A' for Active; 'I' for Inactive)
REMARK    1  A    between atoms: C_1  and  C_2
REMARK    2  A    between atoms: C_2  and  C_3
REMARK    3  A    between atoms: C_2  and  C_4
REMARK    4  A    between atoms: C_4  and  C_5
REMARK    5  A    between atoms: C_5  and  N_6
REMARK    6  A    between atoms: N_6  and  S_7
REMARK    7  A    between atoms: S_7  and  C_10
REMARK    8  A    between atoms: C_13  and  N_14
REMARK                            x       y       z     vdW  Elec       q    Type
REMARK                         _______ _______ _______ _____ _____    ______ ____
ROOT
ATOM      1  C   UNL     1       5.546   4.723  17.180  0.00  0.00    +0.000 A 
ATOM      2  C   UNL     1       5.680   5.066  18.526  0.00  0.00    +0.000 A 
ATOM      3  C   UNL     1       4.730   4.627  19.448  0.00  0.00    +0.000 A 
ATOM      4  C   UNL     1       3.651   3.837  19.034  0.00  0.00    +0.000 A 
ATOM      5  C   UNL     1       3.514   3.506  17.672  0.00  0.00    +0.000 A 
ATOM      6  C   UNL     1       4.457   3.964  16.742  0.00  0.00    +0.000 A 
ENDROOT
BRANCH   4   7
ATOM      7  N   UNL     1       2.702   3.360  19.983  0.00  0.00    +0.000 N 
ATOM      8  C   UNL     1       1.335   3.554  19.972  0.00  0.00    +0.000 A 
ATOM      9  C   UNL     1       0.834   2.983  21.116  0.00  0.00    +0.000 A 
ATOM     10  C   UNL     1       1.955   2.445  21.756  0.00  0.00    +0.000 A 
ATOM     11  N   UNL     1       3.084   2.651  21.076  0.00  0.00    +0.000 NA
ENDBRANCH   4   7
BRANCH   1  12
ATOM     12  S   UNL     1       6.758   5.314  16.019  0.00  0.00    +0.000 S 
ATOM     13  O   UNL     1       7.919   4.456  16.101  0.00  0.00    +0.000 OA
ATOM     14  O   UNL     1       6.841   6.744  16.207  0.00  0.00    +0.000 OA
BRANCH  12  15
ATOM     15  N   UNL     1       5.991   5.036  14.530  0.00  0.00    +0.000 NA
ATOM     16  H   UNL     1       5.008   5.307  14.564  0.00  0.00    +0.000 HD
BRANCH  15  17
ATOM     17  C   UNL     1       6.215   3.708  13.929  0.00  0.00    +0.000 C 
BRANCH  17  18
ATOM     18  C   UNL     1       6.669   3.850  12.472  0.00  0.00    +0.000 C 
BRANCH  18  20
ATOM     19  C   UNL     1       6.083   1.594  11.435  0.00  0.00    +0.000 C 
ATOM     20  C   UNL     1       5.793   3.095  11.449  0.00  0.00    +0.000 C 
ATOM     21  C   UNL     1       4.308   3.325  11.742  0.00  0.00    +0.000 C 
ENDBRANCH  18  20
ENDBRANCH  17  18
ENDBRANCH  15  17
ENDBRANCH  12  15
ENDBRANCH   1  12
TORSDOF 6
ENDMDL
MODEL 9
REMARK VINA RESULT:      -7.0      0.919      1.624
REMARK  Name = 
REMARK  8 active torsions:
REMARK  status: ('A' for Active; 'I' for Inactive)
REMARK    1  A    between atoms: C_1  and  C_2
REMARK    2  A    between atoms: C_2  and  C_3
REMARK    3  A    between atoms: C_2  and  C_4
REMARK    4  A    between atoms: C_4  and  C_5
REMARK    5  A    between atoms: C_5  and  N_6
REMARK    6  A    between atoms: N_6  and  S_7
REMARK    7  A    between atoms: S_7  and  C_10
REMARK    8  A    between atoms: C_13  and  N_14
REMARK                            x       y       z     vdW  Elec       q    Type
REMARK                         _______ _______ _______ _____ _____    ______ ____
ROOT
ATOM      1  C   UNL     1       5.193   4.827  16.848  0.00  0.00    +0.000 A 
ATOM      2  C   UNL     1       3.959   4.250  16.549  0.00  0.00    +0.000 A 
ATOM      3  C   UNL     1       3.155   3.766  17.581  0.00  0.00    +0.000 A 
ATOM      4  C   UNL     1       3.574   3.865  18.913  0.00  0.00    +0.000 A 
ATOM      5  C   UNL     1       4.827   4.435  19.207  0.00  0.00    +0.000 A 
ATOM      6  C   UNL     1       5.644   4.903  18.169  0.00  0.00    +0.000 A 
ENDROOT
BRANCH   4   7
ATOM      7  N   UNL     1       2.736   3.402  19.968  0.00  0.00    +0.000 N 
ATOM      8  C   UNL     1       3.123   2.753  21.123  0.00  0.00    +0.000 A 
ATOM      9  C   UNL     1       1.979   2.429  21.811  0.00  0.00    +0.000 A 
ATOM     10  C   UNL     1       0.942   2.934  21.019  0.00  0.00    +0.000 A 
ATOM     11  N   UNL     1       1.386   3.537  19.914  0.00  0.00    +0.000 NA
ENDBRANCH   4   7
BRANCH   1  12
ATOM     12  S   UNL     1       6.211   5.417  15.514  0.00  0.00    +0.000 S 
ATOM     13  O   UNL     1       7.563   5.561  16.006  0.00  0.00    +0.000 OA
ATOM     14  O   UNL     1       5.493   6.513  14.905  0.00  0.00    +0.000 OA
BRANCH  12  15
ATOM     15  N   UNL     1       6.172   4.112  14.429  0.00  0.00    +0.000 NA
ATOM     16  H   UNL     1       6.147   3.220  14.925  0.00  0.00    +0.000 HD
BRANCH  15  17
ATOM     17  C   UNL     1       7.163   4.152  13.338  0.00  0.00    +0.000 C 
BRANCH  17  18
ATOM     18  C   UNL     1       6.480   3.925  11.986  0.00  0.00    +0.000 C 
BRANCH  18  20
ATOM     19  C   UNL     1       4.130   3.242  11.266  0.00  0.00    +0.000 C 
ATOM     20  C   UNL     1       5.409   2.813  11.985  0.00  0.00    +0.000 C 
ATOM     21  C   UNL     1       5.958   1.541  11.332  0.00  0.00    +0.000 C 
ENDBRANCH  18  20
ENDBRANCH  17  18
ENDBRANCH  15  17
ENDBRANCH  12  15
ENDBRANCH   1  12
TORSDOF 6
ENDMDL
