MODEL 1
REMARK VINA RESULT:      -6.2      0.000      0.000
REMARK  Name = 
REMARK  8 active torsions:
REMARK  status: ('A' for Active; 'I' for Inactive)
REMARK    1  A    between atoms: C_2  and  OXT_3
REMARK    2  A    between atoms: C_2  and  CA_4
REMARK    3  A    between atoms: N_6  and  C_7
REMARK    4  A    between atoms: C_7  and  C_8
REMARK    5  A    between atoms: C_8  and  C_9
REMARK    6  A    between atoms: C_9  and  P_10
REMARK    7  A    between atoms: P_10  and  O_12
REMARK    8  A    between atoms: P_10  and  O_13
REMARK                            x       y       z     vdW  Elec       q    Type
REMARK                         _______ _______ _______ _____ _____    ______ ____
ROOT
ATOM      1  CA  UNL     1       2.806   3.651  20.017  0.00  0.00    +0.000 C 
ATOM      2  C   UNL     1       1.958   4.485  19.032  0.00  0.00    +0.000 C 
ATOM      3  N   UNL     1       2.664   4.798  17.760  0.00  0.00    +0.000 NA
ATOM      4  C   UNL     1       2.943   3.478  17.149  0.00  0.00    +0.000 C 
ATOM      5  C   UNL     1       3.867   2.586  17.997  0.00  0.00    +0.000 C 
ATOM      6  N   UNL     1       3.551   2.513  19.421  0.00  0.00    +0.000 NA
ATOM      7  H   UNL     1       4.410   2.337  19.944  0.00  0.00    +0.000 HD
ENDROOT
BRANCH   1   9
ATOM      8  O   UNL     1       2.394   2.954  22.345  0.00  0.00    +0.000 OA
ATOM      9  C   UNL     1       1.968   3.138  21.210  0.00  0.00    +0.000 C 
BRANCH   9  10
ATOM     10  OXT UNL     1       0.640   3.034  20.966  0.00  0.00    +0.000 OA
ATOM     11  HXT UNL     1       0.379   3.144  20.035  0.00  0.00    +0.000 HD
ENDBRANCH   9  10
ENDBRANCH   1   9
BRANCH   3  12
ATOM     12  C   UNL     1       3.892   5.576  18.042  0.00  0.00    +0.000 C 
BRANCH  12  13
ATOM     13  C   UNL     1       4.572   6.204  16.823  0.00  0.00    +0.000 C 
BRANCH  13  14
ATOM     14  C   UNL     1       6.097   6.090  16.908  0.00  0.00    +0.000 C 
BRANCH  14  15
ATOM     15  P   UNL     1       6.847   4.737  16.017  0.00  0.00    +0.000 P 
ATOM     16  O   UNL     1       5.966   3.647  15.504  0.00  0.00    +0.000 OA
BRANCH  15  17
ATOM     17  O   UNL     1       7.788   5.391  14.900  0.00  0.00    +0.000 OA
ATOM     18  H   UNL     1       7.457   6.220  14.507  0.00  0.00    +0.000 HD
ENDBRANCH  15  17
BRANCH  15  19
ATOM     19  O   UNL     1       7.972   4.155  16.994  0.00  0.00    +0.000 OA
ATOM     20  H   UNL     1       7.594   3.501  17.615  0.00  0.00    +0.000 HD
ENDBRANCH  15  19
ENDBRANCH  14  15
ENDBRANCH  13  14
ENDBRANCH  12  13
ENDBRANCH   3  12
TORSDOF 8
ENDMDL
MODEL 2
REMARK VINA RESULT:      -6.2      0.288      1.164
REMARK  Name = 
REMARK  8 active torsions:
REMARK  status: ('A' for Active; 'I' for Inactive)
REMARK    1  A    between atoms: C_2  and  OXT_3
REMARK    2  A    between atoms: C_2  and  CA_4
REMARK    3  A    between atoms: N_6  and  C_7
REMARK    4  A    between atoms: C_7  and  C_8
REMARK    5  A    between atoms: C_8  and  C_9
REMARK    6  A    between atoms: C_9  and  P_10
REMARK    7  A    between atoms: P_10  and  O_12
REMARK    8  A    between atoms: P_10  and  O_13
REMARK                            x       y       z     vdW  Elec       q    Type
REMARK                         _______ _______ _______ _____ _____    ______ ____
ROOT
ATOM      1  CA  UNL     1       2.774   3.433  20.025  0.00  0.00    +0.000 C 
ATOM      2  C   UNL     1       1.892   4.361  19.163  0.00  0.00    +0.000 C 
ATOM      3  N   UNL     1       2.512   4.729  17.861  0.00  0.00    +0.000 NA
ATOM      4  C   UNL     1       2.686   3.442  17.150  0.00  0.00    +0.000 C 
ATOM      5  C   UNL     1       3.632   2.461  17.866  0.00  0.00    +0.000 C 
ATOM      6  N   UNL     1       3.421   2.308  19.304  0.00  0.00    +0.000 NA
ATOM      7  H   UNL     1       4.308   2.065  19.745  0.00  0.00    +0.000 HD
ENDROOT
BRANCH   1   9
ATOM      8  O   UNL     1       2.515   2.570  22.320  0.00  0.00    +0.000 OA
ATOM      9  C   UNL     1       2.008   2.876  21.246  0.00  0.00    +0.000 C 
BRANCH   9  10
ATOM     10  OXT UNL     1       0.659   2.880  21.118  0.00  0.00    +0.000 OA
ATOM     11  HXT UNL     1       0.177   3.374  21.804  0.00  0.00    +0.000 HD
ENDBRANCH   9  10
ENDBRANCH   1   9
BRANCH   3  12
ATOM     12  C   UNL     1       3.791   5.438  18.094  0.00  0.00    +0.000 C 
BRANCH  12  13
ATOM     13  C   UNL     1       4.521   5.914  16.835  0.00  0.00    +0.000 C 
BRANCH  13  14
ATOM     14  C   UNL     1       6.028   6.048  17.076  0.00  0.00    +0.000 C 
BRANCH  14  15
ATOM     15  P   UNL     1       7.058   4.743  16.425  0.00  0.00    +0.000 P 
ATOM     16  O   UNL     1       8.169   4.220  17.274  0.00  0.00    +0.000 OA
BRANCH  15  17
ATOM     17  O   UNL     1       6.070   3.609  15.879  0.00  0.00    +0.000 OA
ATOM     18  H   UNL     1       5.174   3.614  16.265  0.00  0.00    +0.000 HD
ENDBRANCH  15  17
BRANCH  15  19
ATOM     19  O   UNL     1       7.613   5.295  15.029  0.00  0.00    +0.000 OA
ATOM     20  H   UNL     1       8.169   6.089  15.162  0.00  0.00    +0.000 HD
ENDBRANCH  15  19
ENDBRANCH  14  15
ENDBRANCH  13  14
ENDBRANCH  12  13
ENDBRANCH   3  12
TORSDOF 8
ENDMDL
MODEL 3
REMARK VINA RESULT:      -6.2      2.855      6.042
REMARK  Name = 
REMARK  8 active torsions:
REMARK  status: ('A' for Active; 'I' for Inactive)
REMARK    1  A    between atoms: C_2  and  OXT_3
REMARK    2  A    between atoms: C_2  and  CA_4
REMARK    3  A    between atoms: N_6  and  C_7
REMARK    4  A    between atoms: C_7  and  C_8
REMARK    5  A    between atoms: C_8  and  C_9
REMARK    6  A    between atoms: C_9  and  P_10
REMARK    7  A    between atoms: P_10  and  O_12
REMARK    8  A    between atoms: P_10  and  O_13
REMARK                            x       y       z     vdW  Elec       q    Type
REMARK                         _______ _______ _______ _____ _____    ______ ____
ROOT
ATOM      1  CA  UNL     1       6.555   4.582  15.967  0.00  0.00    +0.000 C 
ATOM      2  C   UNL     1       5.833   5.877  16.397  0.00  0.00    +0.000 C 
ATOM      3  N   UNL     1       5.655   5.996  17.869  0.00  0.00    +0.000 NA
ATOM      4  C   UNL     1       7.031   6.014  18.417  0.00  0.00    +0.000 C 
ATOM      5  C   UNL     1       7.826   4.725  18.137  0.00  0.00    +0.000 C 
ATOM      6  N   UNL     1       7.748   4.213  16.771  0.00  0.00    +0.000 NA
ATOM      7  H   UNL     1       7.865   3.199  16.789  0.00  0.00    +0.000 HD
ENDROOT
BRANCH   1   9
ATOM      8  O   UNL     1       7.737   5.385  13.958  0.00  0.00    +0.000 OA
ATOM      9  C   UNL     1       6.942   4.605  14.470  0.00  0.00    +0.000 C 
BRANCH   9  10
ATOM     10  OXT UNL     1       6.446   3.575  13.743  0.00  0.00    +0.000 OA
ATOM     11  HXT UNL     1       6.203   2.784  14.254  0.00  0.00    +0.000 HD
ENDBRANCH   9  10
ENDBRANCH   1   9
BRANCH   3  12
ATOM     12  C   UNL     1       4.847   4.860  18.373  0.00  0.00    +0.000 C 
BRANCH  12  13
ATOM     13  C   UNL     1       3.395   4.816  17.891  0.00  0.00    +0.000 C 
BRANCH  13  14
ATOM     14  C   UNL     1       2.988   3.404  17.460  0.00  0.00    +0.000 C 
BRANCH  14  15
ATOM     15  P   UNL     1       2.843   2.185  18.756  0.00  0.00    +0.000 P 
ATOM     16  O   UNL     1       3.125   2.601  20.161  0.00  0.00    +0.000 OA
BRANCH  15  17
ATOM     17  O   UNL     1       1.420   1.478  18.562  0.00  0.00    +0.000 OA
ATOM     18  H   UNL     1       0.837   1.491  19.343  0.00  0.00    +0.000 HD
ENDBRANCH  15  17
BRANCH  15  19
ATOM     19  O   UNL     1       3.794   0.977  18.312  0.00  0.00    +0.000 OA
ATOM     20  H   UNL     1       4.400   1.252  17.595  0.00  0.00    +0.000 HD
ENDBRANCH  15  19
ENDBRANCH  14  15
ENDBRANCH  13  14
ENDBRANCH  12  13
ENDBRANCH   3  12
TORSDOF 8
ENDMDL
MODEL 4
REMARK VINA RESULT:      -6.1      2.759      6.261
REMARK  Name = 
REMARK  8 active torsions:
REMARK  status: ('A' for Active; 'I' for Inactive)
REMARK    1  A    between atoms: C_2  and  OXT_3
REMARK    2  A    between atoms: C_2  and  CA_4
REMARK    3  A    between atoms: N_6  and  C_7
REMARK    4  A    between atoms: C_7  and  C_8
REMARK    5  A    between atoms: C_8  and  C_9
REMARK    6  A    between atoms: C_9  and  P_10
REMARK    7  A    between atoms: P_10  and  O_12
REMARK    8  A    between atoms: P_10  and  O_13
REMARK                            x       y       z     vdW  Elec       q    Type
REMARK                         _______ _______ _______ _____ _____    ______ ____
ROOT
ATOM      1  CA  UNL     1       6.444   4.300  15.898  0.00  0.00    +0.000 C 
ATOM      2  C   UNL     1       5.163   5.060  16.306  0.00  0.00    +0.000 C 
ATOM      3  N   UNL     1       4.835   4.937  17.752  0.00  0.00    +0.000 NA
ATOM      4  C   UNL     1       5.991   5.540  18.454  0.00  0.00    +0.000 C 
ATOM      5  C   UNL     1       7.320   4.805  18.205  0.00  0.00    +0.000 C 
ATOM      6  N   UNL     1       7.602   4.452  16.815  0.00  0.00    +0.000 NA
ATOM      7  H   UNL     1       8.183   3.614  16.797  0.00  0.00    +0.000 HD
ENDROOT
BRANCH   1   9
ATOM      8  O   UNL     1       7.747   5.472  14.165  0.00  0.00    +0.000 OA
ATOM      9  C   UNL     1       6.889   4.647  14.460  0.00  0.00    +0.000 C 
BRANCH   9  10
ATOM     10  OXT UNL     1       6.364   3.850  13.498  0.00  0.00    +0.000 OA
ATOM     11  HXT UNL     1       6.885   3.790  12.678  0.00  0.00    +0.000 HD
ENDBRANCH   9  10
ENDBRANCH   1   9
BRANCH   3  12
ATOM     12  C   UNL     1       4.625   3.513  18.102  0.00  0.00    +0.000 C 
BRANCH  12  13
ATOM     13  C   UNL     1       4.260   3.238  19.564  0.00  0.00    +0.000 C 
BRANCH  13  14
ATOM     14  C   UNL     1       2.869   3.780  19.907  0.00  0.00    +0.000 C 
BRANCH  14  15
ATOM     15  P   UNL     1       1.498   3.091  18.996  0.00  0.00    +0.000 P 
ATOM     16  O   UNL     1       1.117   3.719  17.696  0.00  0.00    +0.000 OA
BRANCH  15  17
ATOM     17  O   UNL     1       1.757   1.514  18.902  0.00  0.00    +0.000 OA
ATOM     18  H   UNL     1       2.692   1.249  18.817  0.00  0.00    +0.000 HD
ENDBRANCH  15  17
BRANCH  15  19
ATOM     19  O   UNL     1       0.266   3.089  20.017  0.00  0.00    +0.000 OA
ATOM     20  H   UNL     1       0.577   3.043  20.943  0.00  0.00    +0.000 HD
ENDBRANCH  15  19
ENDBRANCH  14  15
ENDBRANCH  13  14
ENDBRANCH  12  13
ENDBRANCH   3  12
TORSDOF 8
ENDMDL
MODEL 5
REMARK VINA RESULT:      -6.1      2.753      6.381
REMARK  Name = 
REMARK  8 active torsions:
REMARK  status: ('A' for Active; 'I' for Inactive)
REMARK    1  A    between atoms: C_2  and  OXT_3
REMARK    2  A    between atoms: C_2  and  CA_4
REMARK    3  A    between atoms: N_6  and  C_7
REMARK    4  A    between atoms: C_7  and  C_8
REMARK    5  A    between atoms: C_8  and  C_9
REMARK    6  A    between atoms: C_9  and  P_10
REMARK    7  A    between atoms: P_10  and  O_12
REMARK    8  A    between atoms: P_10  and  O_13
REMARK                            x       y       z     vdW  Elec       q    Type
REMARK                         _______ _______ _______ _____ _____    ______ ____
ROOT
ATOM      1  CA  UNL     1       6.568   4.482  16.234  0.00  0.00    +0.000 C 
ATOM      2  C   UNL     1       5.723   5.680  16.719  0.00  0.00    +0.000 C 
ATOM      3  N   UNL     1       5.611   5.765  18.200  0.00  0.00    +0.000 NA
ATOM      4  C   UNL     1       7.002   5.941  18.675  0.00  0.00    +0.000 C 
ATOM      5  C   UNL     1       7.926   4.757  18.337  0.00  0.00    +0.000 C 
ATOM      6  N   UNL     1       7.837   4.249  16.970  0.00  0.00    +0.000 NA
ATOM      7  H   UNL     1       8.072   3.256  16.969  0.00  0.00    +0.000 HD
ENDROOT
BRANCH   1   9
ATOM      8  O   UNL     1       7.610   5.381  14.189  0.00  0.00    +0.000 OA
ATOM      9  C   UNL     1       6.870   4.561  14.720  0.00  0.00    +0.000 C 
BRANCH   9  10
ATOM     10  OXT UNL     1       6.366   3.537  13.989  0.00  0.00    +0.000 OA
ATOM     11  HXT UNL     1       7.029   2.956  13.576  0.00  0.00    +0.000 HD
ENDBRANCH   9  10
ENDBRANCH   1   9
BRANCH   3  12
ATOM     12  C   UNL     1       4.970   4.539  18.729  0.00  0.00    +0.000 C 
BRANCH  12  13
ATOM     13  C   UNL     1       3.440   4.510  18.660  0.00  0.00    +0.000 C 
BRANCH  13  14
ATOM     14  C   UNL     1       2.812   4.589  20.055  0.00  0.00    +0.000 C 
BRANCH  14  15
ATOM     15  P   UNL     1       2.148   3.070  20.717  0.00  0.00    +0.000 P 
ATOM     16  O   UNL     1       2.707   2.545  21.997  0.00  0.00    +0.000 OA
BRANCH  15  17
ATOM     17  O   UNL     1       0.556   3.232  20.722  0.00  0.00    +0.000 OA
ATOM     18  H   UNL     1       0.088   2.745  21.427  0.00  0.00    +0.000 HD
ENDBRANCH  15  17
BRANCH  15  19
ATOM     19  O   UNL     1       2.293   1.993  19.542  0.00  0.00    +0.000 OA
ATOM     20  H   UNL     1       1.425   1.795  19.137  0.00  0.00    +0.000 HD
ENDBRANCH  15  19
ENDBRANCH  14  15
ENDBRANCH  13  14
ENDBRANCH  12  13
ENDBRANCH   3  12
TORSDOF 8
ENDMDL
MODEL 6
REMARK VINA RESULT:      -6.1      2.753      6.560
REMARK  Name = 
REMARK  8 active torsions:
REMARK  status: ('A' for Active; 'I' for Inactive)
REMARK    1  A    between atoms: C_2  and  OXT_3
REMARK    2  A    between atoms: C_2  and  CA_4
REMARK    3  A    between atoms: N_6  and  C_7
REMARK    4  A    between atoms: C_7  and  C_8
REMARK    5  A    between atoms: C_8  and  C_9
REMARK    6  A    between atoms: C_9  and  P_10
REMARK    7  A    between atoms: P_10  and  O_12
REMARK    8  A    between atoms: P_10  and  O_13
REMARK                            x       y       z     vdW  Elec       q    Type
REMARK                         _______ _______ _______ _____ _____    ______ ____
ROOT
ATOM      1  CA  UNL     1       6.399   4.254  15.728  0.00  0.00    +0.000 C 
ATOM      2  C   UNL     1       5.192   5.137  16.112  0.00  0.00    +0.000 C 
ATOM      3  N   UNL     1       4.841   5.068  17.556  0.00  0.00    +0.000 NA
ATOM      4  C   UNL     1       6.042   5.572  18.261  0.00  0.00    +0.000 C 
ATOM      5  C   UNL     1       7.299   4.712  18.036  0.00  0.00    +0.000 C 
ATOM      6  N   UNL     1       7.558   4.312  16.655  0.00  0.00    +0.000 NA
ATOM      7  H   UNL     1       8.059   3.423  16.655  0.00  0.00    +0.000 HD
ENDROOT
BRANCH   1   9
ATOM      8  O   UNL     1       6.421   4.032  13.273  0.00  0.00    +0.000 OA
ATOM      9  C   UNL     1       6.888   4.535  14.289  0.00  0.00    +0.000 C 
BRANCH   9  10
ATOM     10  OXT UNL     1       7.807   5.526  14.187  0.00  0.00    +0.000 OA
ATOM     11  HXT UNL     1       7.483   6.354  13.792  0.00  0.00    +0.000 HD
ENDBRANCH   9  10
ENDBRANCH   1   9
BRANCH   3  12
ATOM     12  C   UNL     1       4.496   3.675  17.925  0.00  0.00    +0.000 C 
BRANCH  12  13
ATOM     13  C   UNL     1       3.078   3.466  18.464  0.00  0.00    +0.000 C 
BRANCH  13  14
ATOM     14  C   UNL     1       3.094   2.805  19.846  0.00  0.00    +0.000 C 
BRANCH  14  15
ATOM     15  P   UNL     1       1.960   3.464  21.057  0.00  0.00    +0.000 P 
ATOM     16  O   UNL     1       1.770   2.718  22.336  0.00  0.00    +0.000 OA
BRANCH  15  17
ATOM     17  O   UNL     1       2.348   5.004  21.257  0.00  0.00    +0.000 OA
ATOM     18  H   UNL     1       1.887   5.631  20.668  0.00  0.00    +0.000 HD
ENDBRANCH  15  17
BRANCH  15  19
ATOM     19  O   UNL     1       0.570   3.646  20.285  0.00  0.00    +0.000 OA
ATOM     20  H   UNL     1      -0.011   4.279  20.753  0.00  0.00    +0.000 HD
ENDBRANCH  15  19
ENDBRANCH  14  15
ENDBRANCH  13  14
ENDBRANCH  12  13
ENDBRANCH   3  12
TORSDOF 8
ENDMDL
MODEL 7
REMARK VINA RESULT:      -6.1      1.322      1.452
REMARK  Name = 
REMARK  8 active torsions:
REMARK  status: ('A' for Active; 'I' for Inactive)
REMARK    1  A    between atoms: C_2  and  OXT_3
REMARK    2  A    between atoms: C_2  and  CA_4
REMARK    3  A    between atoms: N_6  and  C_7
REMARK    4  A    between atoms: C_7  and  C_8
REMARK    5  A    between atoms: C_8  and  C_9
REMARK    6  A    between atoms: C_9  and  P_10
REMARK    7  A    between atoms: P_10  and  O_12
REMARK    8  A    between atoms: P_10  and  O_13
REMARK                            x       y       z     vdW  Elec       q    Type
REMARK                         _______ _______ _______ _____ _____    ______ ____
ROOT
ATOM      1  CA  UNL     1       2.713   2.908  19.952  0.00  0.00    +0.000 C 
ATOM      2  C   UNL     1       2.833   4.334  19.374  0.00  0.00    +0.000 C 
ATOM      3  N   UNL     1       3.751   4.426  18.207  0.00  0.00    +0.000 NA
ATOM      4  C   UNL     1       3.147   3.546  17.181  0.00  0.00    +0.000 C 
ATOM      5  C   UNL     1       3.063   2.068  17.603  0.00  0.00    +0.000 C 
ATOM      6  N   UNL     1       2.562   1.819  18.953  0.00  0.00    +0.000 NA
ATOM      7  H   UNL     1       2.972   0.954  19.305  0.00  0.00    +0.000 HD
ENDROOT
BRANCH   1   9
ATOM      8  O   UNL     1       1.726   2.511  22.176  0.00  0.00    +0.000 OA
ATOM      9  C   UNL     1       1.576   2.798  20.994  0.00  0.00    +0.000 C 
BRANCH   9  10
ATOM     10  OXT UNL     1       0.361   3.199  20.548  0.00  0.00    +0.000 OA
ATOM     11  HXT UNL     1       0.194   4.156  20.600  0.00  0.00    +0.000 HD
ENDBRANCH   9  10
ENDBRANCH   1   9
BRANCH   3  12
ATOM     12  C   UNL     1       5.114   4.002  18.603  0.00  0.00    +0.000 C 
BRANCH  12  13
ATOM     13  C   UNL     1       6.200   5.076  18.491  0.00  0.00    +0.000 C 
BRANCH  13  14
ATOM     14  C   UNL     1       7.197   4.753  17.374  0.00  0.00    +0.000 C 
BRANCH  14  15
ATOM     15  P   UNL     1       6.590   4.892  15.700  0.00  0.00    +0.000 P 
ATOM     16  O   UNL     1       5.990   3.686  15.057  0.00  0.00    +0.000 OA
BRANCH  15  17
ATOM     17  O   UNL     1       5.648   6.185  15.661  0.00  0.00    +0.000 OA
ATOM     18  H   UNL     1       6.038   6.998  16.032  0.00  0.00    +0.000 HD
ENDBRANCH  15  17
BRANCH  15  19
ATOM     19  O   UNL     1       7.824   5.446  14.845  0.00  0.00    +0.000 OA
ATOM     20  H   UNL     1       7.599   6.294  14.413  0.00  0.00    +0.000 HD
ENDBRANCH  15  19
ENDBRANCH  14  15
ENDBRANCH  13  14
ENDBRANCH  12  13
ENDBRANCH   3  12
TORSDOF 8
ENDMDL
MODEL 8
REMARK VINA RESULT:      -6.1      2.575      6.459
REMARK  Name = 
REMARK  8 active torsions:
REMARK  status: ('A' for Active; 'I' for Inactive)
REMARK    1  A    between atoms: C_2  and  OXT_3
REMARK    2  A    between atoms: C_2  and  CA_4
REMARK    3  A    between atoms: N_6  and  C_7
REMARK    4  A    between atoms: C_7  and  C_8
REMARK    5  A    between atoms: C_8  and  C_9
REMARK    6  A    between atoms: C_9  and  P_10
REMARK    7  A    between atoms: P_10  and  O_12
REMARK    8  A    between atoms: P_10  and  O_13
REMARK                            x       y       z     vdW  Elec       q    Type
REMARK                         _______ _______ _______ _____ _____    ______ ____
ROOT
ATOM      1  CA  UNL     1       6.464   4.884  15.922  0.00  0.00    +0.000 C 
ATOM      2  C   UNL     1       5.008   4.426  16.153  0.00  0.00    +0.000 C 
ATOM      3  N   UNL     1       4.468   4.812  17.484  0.00  0.00    +0.000 NA
ATOM      4  C   UNL     1       4.509   6.292  17.495  0.00  0.00    +0.000 C 
ATOM      5  C   UNL     1       5.929   6.873  17.371  0.00  0.00    +0.000 C 
ATOM      6  N   UNL     1       6.776   6.273  16.343  0.00  0.00    +0.000 NA
ATOM      7  H   UNL     1       7.752   6.348  16.631  0.00  0.00    +0.000 HD
ENDROOT
BRANCH   1   9
ATOM      8  O   UNL     1       7.734   5.379  13.868  0.00  0.00    +0.000 OA
ATOM      9  C   UNL     1       6.908   4.689  14.455  0.00  0.00    +0.000 C 
BRANCH   9  10
ATOM     10  OXT UNL     1       6.423   3.571  13.862  0.00  0.00    +0.000 OA
ATOM     11  HXT UNL     1       6.830   3.343  13.008  0.00  0.00    +0.000 HD
ENDBRANCH   9  10
ENDBRANCH   1   9
BRANCH   3  12
ATOM     12  C   UNL     1       5.290   4.203  18.557  0.00  0.00    +0.000 C 
BRANCH  12  13
ATOM     13  C   UNL     1       4.562   3.204  19.461  0.00  0.00    +0.000 C 
BRANCH  13  14
ATOM     14  C   UNL     1       3.043   3.387  19.392  0.00  0.00    +0.000 C 
BRANCH  14  15
ATOM     15  P   UNL     1       2.195   3.606  20.948  0.00  0.00    +0.000 P 
ATOM     16  O   UNL     1       2.548   2.706  22.085  0.00  0.00    +0.000 OA
BRANCH  15  17
ATOM     17  O   UNL     1       2.283   5.164  21.301  0.00  0.00    +0.000 OA
ATOM     18  H   UNL     1       1.526   5.703  21.006  0.00  0.00    +0.000 HD
ENDBRANCH  15  17
BRANCH  15  19
ATOM     19  O   UNL     1       0.636   3.508  20.600  0.00  0.00    +0.000 OA
ATOM     20  H   UNL     1       0.128   3.158  21.360  0.00  0.00    +0.000 HD
ENDBRANCH  15  19
ENDBRANCH  14  15
ENDBRANCH  13  14
ENDBRANCH  12  13
ENDBRANCH   3  12
TORSDOF 8
ENDMDL
MODEL 9
REMARK VINA RESULT:      -6.1      2.750      6.549
REMARK  Name = 
REMARK  8 active torsions:
REMARK  status: ('A' for Active; 'I' for Inactive)
REMARK    1  A    between atoms: C_2  and  OXT_3
REMARK    2  A    between atoms: C_2  and  CA_4
REMARK    3  A    between atoms: N_6  and  C_7
REMARK    4  A    between atoms: C_7  and  C_8
REMARK    5  A    between atoms: C_8  and  C_9
REMARK    6  A    between atoms: C_9  and  P_10
REMARK    7  A    between atoms: P_10  and  O_12
REMARK    8  A    between atoms: P_10  and  O_13
REMARK                            x       y       z     vdW  Elec       q    Type
REMARK                         _______ _______ _______ _____ _____    ______ ____
ROOT
ATOM      1  CA  UNL     1       6.478   4.291  15.914  0.00  0.00    +0.000 C 
ATOM      2  C   UNL     1       5.284   5.163  16.358  0.00  0.00    +0.000 C 
ATOM      3  N   UNL     1       5.085   5.190  17.832  0.00  0.00    +0.000 NA
ATOM      4  C   UNL     1       6.332   5.780  18.371  0.00  0.00    +0.000 C 
ATOM      5  C   UNL     1       7.590   4.944  18.077  0.00  0.00    +0.000 C 
ATOM      6  N   UNL     1       7.722   4.451  16.708  0.00  0.00    +0.000 NA
ATOM      7  H   UNL     1       8.253   3.580  16.718  0.00  0.00    +0.000 HD
ENDROOT
BRANCH   1   9
ATOM      8  O   UNL     1       6.232   3.917  13.490  0.00  0.00    +0.000 OA
ATOM      9  C   UNL     1       6.807   4.479  14.415  0.00  0.00    +0.000 C 
BRANCH   9  10
ATOM     10  OXT UNL     1       7.707   5.457  14.153  0.00  0.00    +0.000 OA
ATOM     11  HXT UNL     1       7.468   6.342  14.479  0.00  0.00    +0.000 HD
ENDBRANCH   9  10
ENDBRANCH   1   9
BRANCH   3  12
ATOM     12  C   UNL     1       4.832   3.819  18.333  0.00  0.00    +0.000 C 
BRANCH  12  13
ATOM     13  C   UNL     1       3.359   3.413  18.434  0.00  0.00    +0.000 C 
BRANCH  13  14
ATOM     14  C   UNL     1       3.053   2.735  19.773  0.00  0.00    +0.000 C 
BRANCH  14  15
ATOM     15  P   UNL     1       1.876   3.558  20.833  0.00  0.00    +0.000 P 
ATOM     16  O   UNL     1       2.070   5.010  21.121  0.00  0.00    +0.000 OA
BRANCH  15  17
ATOM     17  O   UNL     1       0.422   3.196  20.271  0.00  0.00    +0.000 OA
ATOM     18  H   UNL     1       0.120   2.286  20.450  0.00  0.00    +0.000 HD
ENDBRANCH  15  17
BRANCH  15  19
ATOM     19  O   UNL     1       1.850   2.703  22.185  0.00  0.00    +0.000 OA
ATOM     20  H   UNL     1       2.727   2.705  22.619  0.00  0.00    +0.000 HD
ENDBRANCH  15  19
ENDBRANCH  14  15
ENDBRANCH  13  14
ENDBRANCH  12  13
ENDBRANCH   3  12
TORSDOF 8
ENDMDL
