MODEL 1
REMARK VINA RESULT:      -8.6      0.000      0.000
REMARK  Name = 
REMARK  6 active torsions:
REMARK  status: ('A' for Active; 'I' for Inactive)
REMARK    1  A    between atoms: C_1  and  C_2
REMARK    2  A    between atoms: N_4  and  C_5
REMARK    3  A    between atoms: C_5  and  C_6
REMARK    4  A    between atoms: C_9  and  C_10
REMARK    5  A    between atoms: N_17  and  C_18
REMARK    6  A    between atoms: C_18  and  C_19
REMARK                            x       y       z     vdW  Elec       q    Type
REMARK                         _______ _______ _______ _____ _____    ______ ____
ROOT
ATOM      1  C   UNL     1       5.456   4.225  17.127  0.00  0.00    +0.000 A 
ATOM      2  C   UNL     1       5.847   3.801  15.878  0.00  0.00    +0.000 A 
ATOM      3  S   UNL     1       6.802   5.027  15.130  0.00  0.00    +0.000 S 
ATOM      4  C   UNL     1       6.703   5.980  16.565  0.00  0.00    +0.000 A 
ATOM      5  N   UNL     1       7.362   7.158  16.706  0.00  0.00    +0.000 N 
ATOM      6  C   UNL     1       7.911   7.610  17.875  0.00  0.00    +0.000 C 
ATOM      7  N   UNL     1       8.096   6.899  18.937  0.00  0.00    +0.000 NA
ATOM      8  N   UNL     1       8.279   8.932  17.829  0.00  0.00    +0.000 N 
ATOM      9  N   UNL     1       5.963   5.449  17.510  0.00  0.00    +0.000 NA
ATOM     10  H   UNL     1       7.812   7.542  15.886  0.00  0.00    +0.000 HD
ATOM     11  H   UNL     1       7.722   5.957  18.764  0.00  0.00    +0.000 HD
ATOM     12  H   UNL     1       7.480   9.523  17.618  0.00  0.00    +0.000 HD
ENDROOT
BRANCH   1  16
ATOM     13  C   UNL     1       3.370   2.868  19.804  0.00  0.00    +0.000 A 
ATOM     14  C   UNL     1       3.115   1.936  18.823  0.00  0.00    +0.000 A 
ATOM     15  C   UNL     1       3.869   2.330  17.697  0.00  0.00    +0.000 A 
ATOM     16  C   UNL     1       4.573   3.467  18.057  0.00  0.00    +0.000 A 
ATOM     17  O   UNL     1       4.300   3.773  19.364  0.00  0.00    +0.000 OA
BRANCH  13  18
ATOM     18  C   UNL     1       2.779   3.100  21.143  0.00  0.00    +0.000 C 
BRANCH  18  22
ATOM     19  C   UNL     1       1.367   6.585  20.985  0.00  0.00    +0.000 C 
ATOM     20  C   UNL     1       1.460   5.101  20.762  0.00  0.00    +0.000 C 
ATOM     21  O   UNL     1       0.628   4.483  20.107  0.00  0.00    +0.000 OA
ATOM     22  N   UNL     1       2.546   4.507  21.366  0.00  0.00    +0.000 N 
ATOM     23  H   UNL     1       3.308   5.081  21.697  0.00  0.00    +0.000 HD
ENDBRANCH  18  22
ENDBRANCH  13  18
ENDBRANCH   1  16
BRANCH   8  24
ATOM     24  C   UNL     1       9.058   9.437  18.963  0.00  0.00    +0.000 C 
BRANCH  24  25
ATOM     25  C   UNL     1       8.863  10.936  19.241  0.00  0.00    +0.000 C 
ATOM     26  C   UNL     1       9.718  11.471  20.408  0.00  0.00    +0.000 C 
ATOM     27  C   UNL     1      11.218  11.507  20.106  0.00  0.00    +0.000 C 
ATOM     28  C   UNL     1      11.536  12.221  18.794  0.00  0.00    +0.000 C 
ATOM     29  C   UNL     1      10.695  11.700  17.634  0.00  0.00    +0.000 C 
ATOM     30  C   UNL     1       9.202  11.739  17.967  0.00  0.00    +0.000 C 
ENDBRANCH  24  25
ENDBRANCH   8  24
TORSDOF 5
ENDMDL
MODEL 2
REMARK VINA RESULT:      -8.5      4.840      7.892
REMARK  Name = 
REMARK  6 active torsions:
REMARK  status: ('A' for Active; 'I' for Inactive)
REMARK    1  A    between atoms: C_1  and  C_2
REMARK    2  A    between atoms: N_4  and  C_5
REMARK    3  A    between atoms: C_5  and  C_6
REMARK    4  A    between atoms: C_9  and  C_10
REMARK    5  A    between atoms: N_17  and  C_18
REMARK    6  A    between atoms: C_18  and  C_19
REMARK                            x       y       z     vdW  Elec       q    Type
REMARK                         _______ _______ _______ _____ _____    ______ ____
ROOT
ATOM      1  C   UNL     1       4.112   4.291  18.596  0.00  0.00    +0.000 A 
ATOM      2  C   UNL     1       3.308   3.183  18.733  0.00  0.00    +0.000 A 
ATOM      3  S   UNL     1       2.060   3.519  19.874  0.00  0.00    +0.000 S 
ATOM      4  C   UNL     1       2.628   5.142  20.020  0.00  0.00    +0.000 A 
ATOM      5  N   UNL     1       1.993   6.073  20.775  0.00  0.00    +0.000 N 
ATOM      6  C   UNL     1       1.896   7.401  20.458  0.00  0.00    +0.000 C 
ATOM      7  N   UNL     1       2.176   7.917  19.308  0.00  0.00    +0.000 NA
ATOM      8  N   UNL     1       1.449   8.178  21.498  0.00  0.00    +0.000 N 
ATOM      9  N   UNL     1       3.705   5.397  19.314  0.00  0.00    +0.000 NA
ATOM     10  H   UNL     1       1.241   5.756  21.372  0.00  0.00    +0.000 HD
ATOM     11  H   UNL     1       2.520   7.167  18.694  0.00  0.00    +0.000 HD
ATOM     12  H   UNL     1       2.067   8.099  22.301  0.00  0.00    +0.000 HD
ENDROOT
BRANCH   1  16
ATOM     13  C   UNL     1       6.688   4.484  16.010  0.00  0.00    +0.000 A 
ATOM     14  C   UNL     1       7.473   4.667  17.127  0.00  0.00    +0.000 A 
ATOM     15  C   UNL     1       6.602   4.615  18.236  0.00  0.00    +0.000 A 
ATOM     16  C   UNL     1       5.331   4.371  17.743  0.00  0.00    +0.000 A 
ATOM     17  O   UNL     1       5.390   4.248  16.380  0.00  0.00    +0.000 OA
BRANCH  13  18
ATOM     18  C   UNL     1       6.972   4.582  14.559  0.00  0.00    +0.000 C 
BRANCH  18  22
ATOM     19  C   UNL     1       5.456   2.559  11.770  0.00  0.00    +0.000 C 
ATOM     20  C   UNL     1       6.373   3.537  12.452  0.00  0.00    +0.000 C 
ATOM     21  O   UNL     1       7.205   4.194  11.837  0.00  0.00    +0.000 OA
ATOM     22  N   UNL     1       6.203   3.612  13.817  0.00  0.00    +0.000 N 
ATOM     23  H   UNL     1       5.370   3.226  14.237  0.00  0.00    +0.000 HD
ENDBRANCH  18  22
ENDBRANCH  13  18
ENDBRANCH   1  16
BRANCH   8  24
ATOM     24  C   UNL     1       1.124   9.571  21.184  0.00  0.00    +0.000 C 
BRANCH  24  25
ATOM     25  C   UNL     1      -0.383   9.877  21.169  0.00  0.00    +0.000 C 
ATOM     26  C   UNL     1      -0.812  10.951  22.189  0.00  0.00    +0.000 C 
ATOM     27  C   UNL     1      -0.310  12.357  21.852  0.00  0.00    +0.000 C 
ATOM     28  C   UNL     1      -0.638  12.769  20.418  0.00  0.00    +0.000 C 
ATOM     29  C   UNL     1      -0.218  11.714  19.402  0.00  0.00    +0.000 C 
ATOM     30  C   UNL     1      -0.794  10.341  19.756  0.00  0.00    +0.000 C 
ENDBRANCH  24  25
ENDBRANCH   8  24
TORSDOF 5
ENDMDL
MODEL 3
REMARK VINA RESULT:      -8.4      5.023      8.019
REMARK  Name = 
REMARK  6 active torsions:
REMARK  status: ('A' for Active; 'I' for Inactive)
REMARK    1  A    between atoms: C_1  and  C_2
REMARK    2  A    between atoms: N_4  and  C_5
REMARK    3  A    between atoms: C_5  and  C_6
REMARK    4  A    between atoms: C_9  and  C_10
REMARK    5  A    between atoms: N_17  and  C_18
REMARK    6  A    between atoms: C_18  and  C_19
REMARK                            x       y       z     vdW  Elec       q    Type
REMARK                         _______ _______ _______ _____ _____    ______ ____
ROOT
ATOM      1  C   UNL     1       4.351   3.929  17.644  0.00  0.00    +0.000 A 
ATOM      2  C   UNL     1       3.669   2.753  17.856  0.00  0.00    +0.000 A 
ATOM      3  S   UNL     1       2.612   2.941  19.205  0.00  0.00    +0.000 S 
ATOM      4  C   UNL     1       3.070   4.599  19.336  0.00  0.00    +0.000 A 
ATOM      5  N   UNL     1       2.504   5.446  20.231  0.00  0.00    +0.000 N 
ATOM      6  C   UNL     1       2.253   6.772  20.002  0.00  0.00    +0.000 C 
ATOM      7  N   UNL     1       2.293   7.351  18.848  0.00  0.00    +0.000 NA
ATOM      8  N   UNL     1       1.931   7.470  21.140  0.00  0.00    +0.000 N 
ATOM      9  N   UNL     1       3.989   4.969  18.473  0.00  0.00    +0.000 NA
ATOM     10  H   UNL     1       1.890   5.046  20.929  0.00  0.00    +0.000 HD
ATOM     11  H   UNL     1       2.584   6.656  18.149  0.00  0.00    +0.000 HD
ATOM     12  H   UNL     1       2.680   7.414  21.823  0.00  0.00    +0.000 HD
ENDROOT
BRANCH   1  16
ATOM     13  C   UNL     1       6.435   4.384  14.675  0.00  0.00    +0.000 A 
ATOM     14  C   UNL     1       7.359   4.690  15.650  0.00  0.00    +0.000 A 
ATOM     15  C   UNL     1       6.690   4.555  16.885  0.00  0.00    +0.000 A 
ATOM     16  C   UNL     1       5.398   4.142  16.605  0.00  0.00    +0.000 A 
ATOM     17  O   UNL     1       5.254   3.996  15.251  0.00  0.00    +0.000 OA
BRANCH  13  18
ATOM     18  C   UNL     1       6.469   4.485  13.197  0.00  0.00    +0.000 C 
BRANCH  18  22
ATOM     19  C   UNL     1       5.882   1.267  11.335  0.00  0.00    +0.000 C 
ATOM     20  C   UNL     1       5.627   2.663  11.832  0.00  0.00    +0.000 C 
ATOM     21  O   UNL     1       4.602   3.279  11.562  0.00  0.00    +0.000 OA
ATOM     22  N   UNL     1       6.647   3.185  12.597  0.00  0.00    +0.000 N 
ATOM     23  H   UNL     1       7.354   2.568  12.970  0.00  0.00    +0.000 HD
ENDBRANCH  18  22
ENDBRANCH  13  18
ENDBRANCH   1  16
BRANCH   8  24
ATOM     24  C   UNL     1       1.451   8.842  20.954  0.00  0.00    +0.000 C 
BRANCH  24  25
ATOM     25  C   UNL     1      -0.080   8.973  20.918  0.00  0.00    +0.000 C 
ATOM     26  C   UNL     1      -0.749   8.853  22.302  0.00  0.00    +0.000 C 
ATOM     27  C   UNL     1      -0.460  10.034  23.231  0.00  0.00    +0.000 C 
ATOM     28  C   UNL     1      -0.749  11.382  22.573  0.00  0.00    +0.000 C 
ATOM     29  C   UNL     1      -0.092  11.511  21.203  0.00  0.00    +0.000 C 
ATOM     30  C   UNL     1      -0.460  10.334  20.297  0.00  0.00    +0.000 C 
ENDBRANCH  24  25
ENDBRANCH   8  24
TORSDOF 5
ENDMDL
MODEL 4
REMARK VINA RESULT:      -8.1      4.866      8.054
REMARK  Name = 
REMARK  6 active torsions:
REMARK  status: ('A' for Active; 'I' for Inactive)
REMARK    1  A    between atoms: C_1  and  C_2
REMARK    2  A    between atoms: N_4  and  C_5
REMARK    3  A    between atoms: C_5  and  C_6
REMARK    4  A    between atoms: C_9  and  C_10
REMARK    5  A    between atoms: N_17  and  C_18
REMARK    6  A    between atoms: C_18  and  C_19
REMARK                            x       y       z     vdW  Elec       q    Type
REMARK                         _______ _______ _______ _____ _____    ______ ____
ROOT
ATOM      1  C   UNL     1       4.164   4.747  18.681  0.00  0.00    +0.000 A 
ATOM      2  C   UNL     1       3.437   3.683  19.162  0.00  0.00    +0.000 A 
ATOM      3  S   UNL     1       2.197   4.265  20.210  0.00  0.00    +0.000 S 
ATOM      4  C   UNL     1       2.662   5.890  19.861  0.00  0.00    +0.000 A 
ATOM      5  N   UNL     1       1.987   6.963  20.341  0.00  0.00    +0.000 N 
ATOM      6  C   UNL     1       1.797   8.136  19.662  0.00  0.00    +0.000 C 
ATOM      7  N   UNL     1       2.016   8.311  18.401  0.00  0.00    +0.000 NA
ATOM      8  N   UNL     1       1.325   9.154  20.453  0.00  0.00    +0.000 N 
ATOM      9  N   UNL     1       3.704   5.989  19.067  0.00  0.00    +0.000 NA
ATOM     10  H   UNL     1       1.271   6.791  21.035  0.00  0.00    +0.000 HD
ATOM     11  H   UNL     1       2.393   7.437  18.014  0.00  0.00    +0.000 HD
ATOM     12  H   UNL     1       1.965   9.344  21.218  0.00  0.00    +0.000 HD
ENDROOT
BRANCH   1  16
ATOM     13  C   UNL     1       6.665   4.583  16.020  0.00  0.00    +0.000 A 
ATOM     14  C   UNL     1       7.499   4.583  17.116  0.00  0.00    +0.000 A 
ATOM     15  C   UNL     1       6.662   4.643  18.250  0.00  0.00    +0.000 A 
ATOM     16  C   UNL     1       5.356   4.644  17.792  0.00  0.00    +0.000 A 
ATOM     17  O   UNL     1       5.356   4.564  16.424  0.00  0.00    +0.000 OA
BRANCH  13  18
ATOM     18  C   UNL     1       6.923   4.685  14.564  0.00  0.00    +0.000 C 
BRANCH  18  22
ATOM     19  C   UNL     1       5.508   2.540  11.814  0.00  0.00    +0.000 C 
ATOM     20  C   UNL     1       6.386   3.563  12.480  0.00  0.00    +0.000 C 
ATOM     21  O   UNL     1       7.208   4.227  11.858  0.00  0.00    +0.000 OA
ATOM     22  N   UNL     1       6.194   3.672  13.840  0.00  0.00    +0.000 N 
ATOM     23  H   UNL     1       5.366   3.274  14.259  0.00  0.00    +0.000 HD
ENDBRANCH  18  22
ENDBRANCH  13  18
ENDBRANCH   1  16
BRANCH   8  24
ATOM     24  C   UNL     1       0.903  10.377  19.765  0.00  0.00    +0.000 C 
BRANCH  24  25
ATOM     25  C   UNL     1      -0.524  10.832  20.112  0.00  0.00    +0.000 C 
ATOM     26  C   UNL     1      -0.779  12.332  19.858  0.00  0.00    +0.000 C 
ATOM     27  C   UNL     1      -0.792  12.713  18.376  0.00  0.00    +0.000 C 
ATOM     28  C   UNL     1      -1.724  11.829  17.551  0.00  0.00    +0.000 C 
ATOM     29  C   UNL     1      -1.480  10.344  17.795  0.00  0.00    +0.000 C 
ATOM     30  C   UNL     1      -1.535  10.009  19.287  0.00  0.00    +0.000 C 
ENDBRANCH  24  25
ENDBRANCH   8  24
TORSDOF 5
ENDMDL
MODEL 5
REMARK VINA RESULT:      -8.0      6.934     10.300
REMARK  Name = 
REMARK  6 active torsions:
REMARK  status: ('A' for Active; 'I' for Inactive)
REMARK    1  A    between atoms: C_1  and  C_2
REMARK    2  A    between atoms: N_4  and  C_5
REMARK    3  A    between atoms: C_5  and  C_6
REMARK    4  A    between atoms: C_9  and  C_10
REMARK    5  A    between atoms: N_17  and  C_18
REMARK    6  A    between atoms: C_18  and  C_19
REMARK                            x       y       z     vdW  Elec       q    Type
REMARK                         _______ _______ _______ _____ _____    ______ ____
ROOT
ATOM      1  C   UNL     1      -1.489  11.011  18.667  0.00  0.00    +0.000 A 
ATOM      2  C   UNL     1      -1.267  12.083  19.501  0.00  0.00    +0.000 A 
ATOM      3  S   UNL     1      -0.210  11.606  20.777  0.00  0.00    +0.000 S 
ATOM      4  C   UNL     1      -0.051  10.043  20.063  0.00  0.00    +0.000 A 
ATOM      5  N   UNL     1       0.780   9.094  20.561  0.00  0.00    +0.000 N 
ATOM      6  C   UNL     1       1.483   8.196  19.804  0.00  0.00    +0.000 C 
ATOM      7  N   UNL     1       1.649   8.267  18.525  0.00  0.00    +0.000 NA
ATOM      8  N   UNL     1       2.033   7.176  20.540  0.00  0.00    +0.000 N 
ATOM      9  N   UNL     1      -0.780   9.871  18.985  0.00  0.00    +0.000 NA
ATOM     10  H   UNL     1       1.212   9.275  21.457  0.00  0.00    +0.000 HD
ATOM     11  H   UNL     1       1.130   9.083  18.177  0.00  0.00    +0.000 HD
ATOM     12  H   UNL     1       1.313   6.659  21.036  0.00  0.00    +0.000 HD
ENDROOT
BRANCH   1  16
ATOM     13  C   UNL     1      -3.240  10.675  15.476  0.00  0.00    +0.000 A 
ATOM     14  C   UNL     1      -4.245  11.244  16.228  0.00  0.00    +0.000 A 
ATOM     15  C   UNL     1      -3.709  11.442  17.518  0.00  0.00    +0.000 A 
ATOM     16  C   UNL     1      -2.393  11.013  17.483  0.00  0.00    +0.000 A 
ATOM     17  O   UNL     1      -2.092  10.582  16.218  0.00  0.00    +0.000 OA
BRANCH  13  18
ATOM     18  C   UNL     1      -3.215  10.097  14.112  0.00  0.00    +0.000 C 
BRANCH  18  22
ATOM     19  C   UNL     1      -6.168   9.510  11.853  0.00  0.00    +0.000 C 
ATOM     20  C   UNL     1      -4.729   9.612  12.278  0.00  0.00    +0.000 C 
ATOM     21  O   UNL     1      -3.801   9.447  11.495  0.00  0.00    +0.000 OA
ATOM     22  N   UNL     1      -4.555   9.892  13.616  0.00  0.00    +0.000 N 
ATOM     23  H   UNL     1      -5.334  10.235  14.158  0.00  0.00    +0.000 HD
ENDBRANCH  18  22
ENDBRANCH  13  18
ENDBRANCH   1  16
BRANCH   8  24
ATOM     24  C   UNL     1       2.967   6.291  19.839  0.00  0.00    +0.000 C 
BRANCH  24  25
ATOM     25  C   UNL     1       2.296   5.100  19.135  0.00  0.00    +0.000 C 
ATOM     26  C   UNL     1       3.293   4.096  18.521  0.00  0.00    +0.000 C 
ATOM     27  C   UNL     1       4.089   3.304  19.561  0.00  0.00    +0.000 C 
ATOM     28  C   UNL     1       3.194   2.648  20.610  0.00  0.00    +0.000 C 
ATOM     29  C   UNL     1       2.204   3.632  21.223  0.00  0.00    +0.000 C 
ATOM     30  C   UNL     1       1.396   4.354  20.143  0.00  0.00    +0.000 C 
ENDBRANCH  24  25
ENDBRANCH   8  24
TORSDOF 5
ENDMDL
MODEL 6
REMARK VINA RESULT:      -8.0      3.581      6.004
REMARK  Name = 
REMARK  6 active torsions:
REMARK  status: ('A' for Active; 'I' for Inactive)
REMARK    1  A    between atoms: C_1  and  C_2
REMARK    2  A    between atoms: N_4  and  C_5
REMARK    3  A    between atoms: C_5  and  C_6
REMARK    4  A    between atoms: C_9  and  C_10
REMARK    5  A    between atoms: N_17  and  C_18
REMARK    6  A    between atoms: C_18  and  C_19
REMARK                            x       y       z     vdW  Elec       q    Type
REMARK                         _______ _______ _______ _____ _____    ______ ____
ROOT
ATOM      1  C   UNL     1       6.718   4.849  16.004  0.00  0.00    +0.000 A 
ATOM      2  C   UNL     1       5.954   4.160  16.917  0.00  0.00    +0.000 A 
ATOM      3  S   UNL     1       6.269   4.767  18.500  0.00  0.00    +0.000 S 
ATOM      4  C   UNL     1       7.319   5.963  17.834  0.00  0.00    +0.000 A 
ATOM      5  N   UNL     1       7.907   6.923  18.591  0.00  0.00    +0.000 N 
ATOM      6  C   UNL     1       8.139   8.208  18.182  0.00  0.00    +0.000 C 
ATOM      7  N   UNL     1       7.632   8.760  17.130  0.00  0.00    +0.000 NA
ATOM      8  N   UNL     1       8.981   8.902  19.016  0.00  0.00    +0.000 N 
ATOM      9  N   UNL     1       7.469   5.878  16.532  0.00  0.00    +0.000 NA
ATOM     10  H   UNL     1       7.826   6.840  19.596  0.00  0.00    +0.000 HD
ATOM     11  H   UNL     1       7.064   8.057  16.640  0.00  0.00    +0.000 HD
ATOM     12  H   UNL     1       9.881   8.437  19.090  0.00  0.00    +0.000 HD
ENDROOT
BRANCH   1  16
ATOM     13  C   UNL     1       6.278   3.869  12.510  0.00  0.00    +0.000 A 
ATOM     14  C   UNL     1       7.371   4.697  12.378  0.00  0.00    +0.000 A 
ATOM     15  C   UNL     1       7.671   5.165  13.674  0.00  0.00    +0.000 A 
ATOM     16  C   UNL     1       6.766   4.575  14.540  0.00  0.00    +0.000 A 
ATOM     17  O   UNL     1       5.937   3.746  13.831  0.00  0.00    +0.000 OA
BRANCH  13  18
ATOM     18  C   UNL     1       5.402   3.200  11.518  0.00  0.00    +0.000 C 
BRANCH  18  22
ATOM     19  C   UNL     1       6.229  -0.469  11.375  0.00  0.00    +0.000 C 
ATOM     20  C   UNL     1       6.395   1.012  11.176  0.00  0.00    +0.000 C 
ATOM     21  O   UNL     1       7.357   1.491  10.585  0.00  0.00    +0.000 OA
ATOM     22  N   UNL     1       5.387   1.772  11.726  0.00  0.00    +0.000 N 
ATOM     23  H   UNL     1       4.521   1.328  11.999  0.00  0.00    +0.000 HD
ENDBRANCH  18  22
ENDBRANCH  13  18
ENDBRANCH   1  16
BRANCH   8  24
ATOM     24  C   UNL     1       9.118  10.338  18.763  0.00  0.00    +0.000 C 
BRANCH  24  25
ATOM     25  C   UNL     1      10.052  11.063  19.746  0.00  0.00    +0.000 C 
ATOM     26  C   UNL     1      11.378  11.535  19.114  0.00  0.00    +0.000 C 
ATOM     27  C   UNL     1      11.209  12.674  18.107  0.00  0.00    +0.000 C 
ATOM     28  C   UNL     1      10.400  13.841  18.670  0.00  0.00    +0.000 C 
ATOM     29  C   UNL     1       9.087  13.385  19.297  0.00  0.00    +0.000 C 
ATOM     30  C   UNL     1       9.319  12.286  20.336  0.00  0.00    +0.000 C 
ENDBRANCH  24  25
ENDBRANCH   8  24
TORSDOF 5
ENDMDL
MODEL 7
REMARK VINA RESULT:      -8.0      3.583      5.684
REMARK  Name = 
REMARK  6 active torsions:
REMARK  status: ('A' for Active; 'I' for Inactive)
REMARK    1  A    between atoms: C_1  and  C_2
REMARK    2  A    between atoms: N_4  and  C_5
REMARK    3  A    between atoms: C_5  and  C_6
REMARK    4  A    between atoms: C_9  and  C_10
REMARK    5  A    between atoms: N_17  and  C_18
REMARK    6  A    between atoms: C_18  and  C_19
REMARK                            x       y       z     vdW  Elec       q    Type
REMARK                         _______ _______ _______ _____ _____    ______ ____
ROOT
ATOM      1  C   UNL     1       6.672   4.841  16.200  0.00  0.00    +0.000 A 
ATOM      2  C   UNL     1       5.951   4.185  17.171  0.00  0.00    +0.000 A 
ATOM      3  S   UNL     1       6.328   4.857  18.714  0.00  0.00    +0.000 S 
ATOM      4  C   UNL     1       7.340   6.031  17.958  0.00  0.00    +0.000 A 
ATOM      5  N   UNL     1       7.953   7.023  18.651  0.00  0.00    +0.000 N 
ATOM      6  C   UNL     1       8.158   8.293  18.181  0.00  0.00    +0.000 C 
ATOM      7  N   UNL     1       7.604   8.799  17.131  0.00  0.00    +0.000 NA
ATOM      8  N   UNL     1       9.029   9.024  18.951  0.00  0.00    +0.000 N 
ATOM      9  N   UNL     1       7.437   5.895  16.655  0.00  0.00    +0.000 NA
ATOM     10  H   UNL     1       7.914   6.980  19.660  0.00  0.00    +0.000 HD
ATOM     11  H   UNL     1       7.021   8.074  16.693  0.00  0.00    +0.000 HD
ATOM     12  H   UNL     1       9.935   8.568  19.006  0.00  0.00    +0.000 HD
ENDROOT
BRANCH   1  16
ATOM     13  C   UNL     1       6.098   3.713  12.771  0.00  0.00    +0.000 A 
ATOM     14  C   UNL     1       7.169   4.554  12.557  0.00  0.00    +0.000 A 
ATOM     15  C   UNL     1       7.516   5.079  13.820  0.00  0.00    +0.000 A 
ATOM     16  C   UNL     1       6.661   4.509  14.748  0.00  0.00    +0.000 A 
ATOM     17  O   UNL     1       5.818   3.638  14.110  0.00  0.00    +0.000 OA
BRANCH  13  18
ATOM     18  C   UNL     1       5.192   2.990  11.847  0.00  0.00    +0.000 C 
BRANCH  18  22
ATOM     19  C   UNL     1       2.751   4.515   9.421  0.00  0.00    +0.000 C 
ATOM     20  C   UNL     1       3.326   3.516  10.387  0.00  0.00    +0.000 C 
ATOM     21  O   UNL     1       2.773   2.450  10.635  0.00  0.00    +0.000 OA
ATOM     22  N   UNL     1       4.510   3.911  10.970  0.00  0.00    +0.000 N 
ATOM     23  H   UNL     1       5.028   4.680  10.571  0.00  0.00    +0.000 HD
ENDBRANCH  18  22
ENDBRANCH  13  18
ENDBRANCH   1  16
BRANCH   8  24
ATOM     24  C   UNL     1       9.145  10.450  18.635  0.00  0.00    +0.000 C 
BRANCH  24  25
ATOM     25  C   UNL     1      10.538  11.042  18.905  0.00  0.00    +0.000 C 
ATOM     26  C   UNL     1      11.042  11.984  17.793  0.00  0.00    +0.000 C 
ATOM     27  C   UNL     1      10.268  13.302  17.704  0.00  0.00    +0.000 C 
ATOM     28  C   UNL     1      10.166  14.014  19.052  0.00  0.00    +0.000 C 
ATOM     29  C   UNL     1       9.670  13.090  20.159  0.00  0.00    +0.000 C 
ATOM     30  C   UNL     1      10.513  11.816  20.240  0.00  0.00    +0.000 C 
ENDBRANCH  24  25
ENDBRANCH   8  24
TORSDOF 5
ENDMDL
MODEL 8
REMARK VINA RESULT:      -8.0      0.589      1.323
REMARK  Name = 
REMARK  6 active torsions:
REMARK  status: ('A' for Active; 'I' for Inactive)
REMARK    1  A    between atoms: C_1  and  C_2
REMARK    2  A    between atoms: N_4  and  C_5
REMARK    3  A    between atoms: C_5  and  C_6
REMARK    4  A    between atoms: C_9  and  C_10
REMARK    5  A    between atoms: N_17  and  C_18
REMARK    6  A    between atoms: C_18  and  C_19
REMARK                            x       y       z     vdW  Elec       q    Type
REMARK                         _______ _______ _______ _____ _____    ______ ____
ROOT
ATOM      1  C   UNL     1       5.548   4.306  17.144  0.00  0.00    +0.000 A 
ATOM      2  C   UNL     1       5.981   3.881  15.909  0.00  0.00    +0.000 A 
ATOM      3  S   UNL     1       6.932   5.120  15.179  0.00  0.00    +0.000 S 
ATOM      4  C   UNL     1       6.776   6.082  16.603  0.00  0.00    +0.000 A 
ATOM      5  N   UNL     1       7.406   7.273  16.754  0.00  0.00    +0.000 N 
ATOM      6  C   UNL     1       7.915   7.744  17.934  0.00  0.00    +0.000 C 
ATOM      7  N   UNL     1       8.083   7.045  19.006  0.00  0.00    +0.000 NA
ATOM      8  N   UNL     1       8.257   9.073  17.888  0.00  0.00    +0.000 N 
ATOM      9  N   UNL     1       6.020   5.543  17.532  0.00  0.00    +0.000 NA
ATOM     10  H   UNL     1       7.872   7.660  15.944  0.00  0.00    +0.000 HD
ATOM     11  H   UNL     1       7.733   6.094  18.830  0.00  0.00    +0.000 HD
ATOM     12  H   UNL     1       7.453   9.646  17.650  0.00  0.00    +0.000 HD
ENDROOT
BRANCH   1  16
ATOM     13  C   UNL     1       3.439   2.914  19.785  0.00  0.00    +0.000 A 
ATOM     14  C   UNL     1       3.178   2.005  18.784  0.00  0.00    +0.000 A 
ATOM     15  C   UNL     1       3.940   2.415  17.669  0.00  0.00    +0.000 A 
ATOM     16  C   UNL     1       4.653   3.538  18.055  0.00  0.00    +0.000 A 
ATOM     17  O   UNL     1       4.379   3.819  19.367  0.00  0.00    +0.000 OA
BRANCH  13  18
ATOM     18  C   UNL     1       2.845   3.123  21.127  0.00  0.00    +0.000 C 
BRANCH  18  22
ATOM     19  C   UNL     1       1.317   6.559  20.968  0.00  0.00    +0.000 C 
ATOM     20  C   UNL     1       1.462   5.080  20.741  0.00  0.00    +0.000 C 
ATOM     21  O   UNL     1       0.656   4.436  20.079  0.00  0.00    +0.000 OA
ATOM     22  N   UNL     1       2.563   4.521  21.352  0.00  0.00    +0.000 N 
ATOM     23  H   UNL     1       3.302   5.120  21.690  0.00  0.00    +0.000 HD
ENDBRANCH  18  22
ENDBRANCH  13  18
ENDBRANCH   1  16
BRANCH   8  24
ATOM     24  C   UNL     1       8.995   9.601  19.039  0.00  0.00    +0.000 C 
BRANCH  24  25
ATOM     25  C   UNL     1      10.073  10.634  18.674  0.00  0.00    +0.000 C 
ATOM     26  C   UNL     1       9.578  11.746  17.727  0.00  0.00    +0.000 C 
ATOM     27  C   UNL     1       8.578  12.707  18.376  0.00  0.00    +0.000 C 
ATOM     28  C   UNL     1       9.083  13.271  19.703  0.00  0.00    +0.000 C 
ATOM     29  C   UNL     1       9.576  12.179  20.645  0.00  0.00    +0.000 C 
ATOM     30  C   UNL     1      10.614  11.283  19.965  0.00  0.00    +0.000 C 
ENDBRANCH  24  25
ENDBRANCH   8  24
TORSDOF 5
ENDMDL
MODEL 9
REMARK VINA RESULT:      -7.9      4.886      7.999
REMARK  Name = 
REMARK  6 active torsions:
REMARK  status: ('A' for Active; 'I' for Inactive)
REMARK    1  A    between atoms: C_1  and  C_2
REMARK    2  A    between atoms: N_4  and  C_5
REMARK    3  A    between atoms: C_5  and  C_6
REMARK    4  A    between atoms: C_9  and  C_10
REMARK    5  A    between atoms: N_17  and  C_18
REMARK    6  A    between atoms: C_18  and  C_19
REMARK                            x       y       z     vdW  Elec       q    Type
REMARK                         _______ _______ _______ _____ _____    ______ ____
ROOT
ATOM      1  C   UNL     1       3.580   4.763  18.058  0.00  0.00    +0.000 A 
ATOM      2  C   UNL     1       2.837   3.630  18.299  0.00  0.00    +0.000 A 
ATOM      3  S   UNL     1       1.848   3.881  19.690  0.00  0.00    +0.000 S 
ATOM      4  C   UNL     1       2.411   5.508  19.799  0.00  0.00    +0.000 A 
ATOM      5  N   UNL     1       1.933   6.387  20.715  0.00  0.00    +0.000 N 
ATOM      6  C   UNL     1       1.755   7.726  20.495  0.00  0.00    +0.000 C 
ATOM      7  N   UNL     1       1.783   8.302  19.340  0.00  0.00    +0.000 NA
ATOM      8  N   UNL     1       1.522   8.440  21.644  0.00  0.00    +0.000 N 
ATOM      9  N   UNL     1       3.315   5.823  18.900  0.00  0.00    +0.000 NA
ATOM     10  H   UNL     1       1.326   6.024  21.438  0.00  0.00    +0.000 HD
ATOM     11  H   UNL     1       2.003   7.591  18.630  0.00  0.00    +0.000 HD
ATOM     12  H   UNL     1       2.293   8.338  22.296  0.00  0.00    +0.000 HD
ENDROOT
BRANCH   1  16
ATOM     13  C   UNL     1       5.803   4.599  15.161  0.00  0.00    +0.000 A 
ATOM     14  C   UNL     1       6.180   5.823  15.667  0.00  0.00    +0.000 A 
ATOM     15  C   UNL     1       5.392   6.034  16.819  0.00  0.00    +0.000 A 
ATOM     16  C   UNL     1       4.594   4.913  16.977  0.00  0.00    +0.000 A 
ATOM     17  O   UNL     1       4.876   4.014  15.983  0.00  0.00    +0.000 OA
BRANCH  13  18
ATOM     18  C   UNL     1       6.139   3.888  13.904  0.00  0.00    +0.000 C 
BRANCH  18  22
ATOM     19  C   UNL     1       3.887   3.244  10.958  0.00  0.00    +0.000 C 
ATOM     20  C   UNL     1       5.049   3.070  11.896  0.00  0.00    +0.000 C 
ATOM     21  O   UNL     1       5.929   2.238  11.702  0.00  0.00    +0.000 OA
ATOM     22  N   UNL     1       5.025   3.911  12.986  0.00  0.00    +0.000 N 
ATOM     23  H   UNL     1       4.413   4.715  12.982  0.00  0.00    +0.000 HD
ENDBRANCH  18  22
ENDBRANCH  13  18
ENDBRANCH   1  16
BRANCH   8  24
ATOM     24  C   UNL     1       1.119   9.839  21.476  0.00  0.00    +0.000 C 
BRANCH  24  25
ATOM     25  C   UNL     1      -0.403  10.054  21.436  0.00  0.00    +0.000 C 
ATOM     26  C   UNL     1      -0.922  11.041  22.501  0.00  0.00    +0.000 C 
ATOM     27  C   UNL     1      -0.499  12.492  22.256  0.00  0.00    +0.000 C 
ATOM     28  C   UNL     1      -0.818  12.964  20.839  0.00  0.00    +0.000 C 
ATOM     29  C   UNL     1      -0.309  11.995  19.778  0.00  0.00    +0.000 C 
ATOM     30  C   UNL     1      -0.807  10.572  20.039  0.00  0.00    +0.000 C 
ENDBRANCH  24  25
ENDBRANCH   8  24
TORSDOF 5
ENDMDL
