MODEL 1
REMARK VINA RESULT:      -6.5      0.000      0.000
REMARK  Name = 
REMARK  8 active torsions:
REMARK  status: ('A' for Active; 'I' for Inactive)
REMARK    1  A    between atoms: C_1  and  N_2
REMARK    2  A    between atoms: N_2  and  C_3
REMARK    3  A    between atoms: N_2  and  C_4
REMARK    4  A    between atoms: N_15  and  C1*_16
REMARK    5  A    between atoms: C4*_18  and  C5*_19
REMARK    6  A    between atoms: C5*_19  and  O5*_20
REMARK    7  A    between atoms: C3*_21  and  O3*_22
REMARK    8  A    between atoms: C2*_23  and  O2*_24
REMARK                            x       y       z     vdW  Elec       q    Type
REMARK                         _______ _______ _______ _____ _____    ______ ____
ROOT
ATOM      1  C   UNL     1       2.539   3.053  19.344  0.00  0.00    +0.000 A 
ATOM      2  N   UNL     1       3.031   1.820  19.063  0.00  0.00    +0.000 NA
ATOM      3  C   UNL     1       3.969   1.694  18.101  0.00  0.00    +0.000 A 
ATOM      4  N   UNL     1       4.534   2.655  17.334  0.00  0.00    +0.000 NA
ATOM      5  C   UNL     1       4.054   3.873  17.646  0.00  0.00    +0.000 A 
ATOM      6  C   UNL     1       3.095   4.137  18.638  0.00  0.00    +0.000 A 
ATOM      7  C   UNL     1       2.975   5.521  18.641  0.00  0.00    +0.000 A 
ATOM      8  C   UNL     1       2.256   6.409  19.438  0.00  0.00    +0.000 A 
ATOM      9  C   UNL     1       2.468   7.694  18.962  0.00  0.00    +0.000 A 
ATOM     10  S   UNL     1       3.578   7.732  17.618  0.00  0.00    +0.000 S 
ATOM     11  C   UNL     1       3.727   6.072  17.684  0.00  0.00    +0.000 A 
ATOM     12  N   UNL     1       4.425   5.083  17.061  0.00  0.00    +0.000 N 
ENDROOT
BRANCH  12  13
ATOM     13  C1* UNL     1       5.436   5.309  16.049  0.00  0.00    +0.000 C 
ATOM     14  O4* UNL     1       4.857   5.230  14.729  0.00  0.00    +0.000 OA
ATOM     15  C4* UNL     1       5.872   4.709  13.833  0.00  0.00    +0.000 C 
ATOM     16  C3* UNL     1       7.147   4.514  14.655  0.00  0.00    +0.000 C 
ATOM     17  C2* UNL     1       6.629   4.357  16.078  0.00  0.00    +0.000 C 
BRANCH  16  18
ATOM     18  O3* UNL     1       7.996   5.679  14.618  0.00  0.00    +0.000 OA
ATOM     19  H3* UNL     1       8.927   5.402  14.535  0.00  0.00    +0.000 HD
ENDBRANCH  16  18
BRANCH  17  20
ATOM     20  O2* UNL     1       7.625   4.729  17.032  0.00  0.00    +0.000 OA
ATOM     21  H2* UNL     1       7.164   5.254  17.721  0.00  0.00    +0.000 HD
ENDBRANCH  17  20
BRANCH  15  22
ATOM     22  C5* UNL     1       5.358   3.407  13.221  0.00  0.00    +0.000 C 
BRANCH  22  23
ATOM     23  O5* UNL     1       6.387   2.804  12.439  0.00  0.00    +0.000 OA
ATOM     24  H5* UNL     1       7.156   3.404  12.504  0.00  0.00    +0.000 HD
ENDBRANCH  22  23
ENDBRANCH  15  22
ENDBRANCH  12  13
BRANCH   1  26
ATOM     25  C   UNL     1       1.776   2.598  21.584  0.00  0.00    +0.000 C 
ATOM     26  N   UNL     1       1.530   3.249  20.304  0.00  0.00    +0.000 N 
ATOM     27  C   UNL     1       0.195   3.025  19.748  0.00  0.00    +0.000 C 
ENDBRANCH   1  26
TORSDOF 6
ENDMDL
MODEL 2
REMARK VINA RESULT:      -6.4      2.587      4.622
REMARK  Name = 
REMARK  8 active torsions:
REMARK  status: ('A' for Active; 'I' for Inactive)
REMARK    1  A    between atoms: C_1  and  N_2
REMARK    2  A    between atoms: N_2  and  C_3
REMARK    3  A    between atoms: N_2  and  C_4
REMARK    4  A    between atoms: N_15  and  C1*_16
REMARK    5  A    between atoms: C4*_18  and  C5*_19
REMARK    6  A    between atoms: C5*_19  and  O5*_20
REMARK    7  A    between atoms: C3*_21  and  O3*_22
REMARK    8  A    between atoms: C2*_23  and  O2*_24
REMARK                            x       y       z     vdW  Elec       q    Type
REMARK                         _______ _______ _______ _____ _____    ______ ____
ROOT
ATOM      1  C   UNL     1       1.511   8.483  19.623  0.00  0.00    +0.000 A 
ATOM      2  N   UNL     1       1.618   9.489  18.717  0.00  0.00    +0.000 NA
ATOM      3  C   UNL     1       2.403   9.311  17.633  0.00  0.00    +0.000 A 
ATOM      4  N   UNL     1       3.134   8.229  17.282  0.00  0.00    +0.000 NA
ATOM      5  C   UNL     1       2.994   7.234  18.177  0.00  0.00    +0.000 A 
ATOM      6  C   UNL     1       2.194   7.288  19.330  0.00  0.00    +0.000 A 
ATOM      7  C   UNL     1       2.310   6.021  19.889  0.00  0.00    +0.000 A 
ATOM      8  C   UNL     1       1.707   5.409  20.986  0.00  0.00    +0.000 A 
ATOM      9  C   UNL     1       2.235   4.133  21.120  0.00  0.00    +0.000 A 
ATOM     10  S   UNL     1       3.378   3.750  19.861  0.00  0.00    +0.000 S 
ATOM     11  C   UNL     1       3.169   5.266  19.198  0.00  0.00    +0.000 A 
ATOM     12  N   UNL     1       3.596   5.978  18.119  0.00  0.00    +0.000 N 
ENDROOT
BRANCH  12  13
ATOM     13  C1* UNL     1       4.444   5.445  17.072  0.00  0.00    +0.000 C 
ATOM     14  O4* UNL     1       5.262   4.371  17.582  0.00  0.00    +0.000 OA
ATOM     15  C4* UNL     1       6.518   4.389  16.855  0.00  0.00    +0.000 C 
ATOM     16  C3* UNL     1       6.424   5.506  15.815  0.00  0.00    +0.000 C 
ATOM     17  C2* UNL     1       5.379   6.447  16.401  0.00  0.00    +0.000 C 
BRANCH  16  18
ATOM     18  O3* UNL     1       5.927   5.025  14.549  0.00  0.00    +0.000 OA
ATOM     19  H3* UNL     1       4.957   4.935  14.592  0.00  0.00    +0.000 HD
ENDBRANCH  16  18
BRANCH  17  20
ATOM     20  O2* UNL     1       4.745   7.213  15.376  0.00  0.00    +0.000 OA
ATOM     21  H2* UNL     1       4.066   7.762  15.824  0.00  0.00    +0.000 HD
ENDBRANCH  17  20
BRANCH  15  22
ATOM     22  C5* UNL     1       7.655   4.604  17.853  0.00  0.00    +0.000 C 
BRANCH  22  23
ATOM     23  O5* UNL     1       7.115   4.827  19.154  0.00  0.00    +0.000 OA
ATOM     24  H5* UNL     1       6.424   4.147  19.275  0.00  0.00    +0.000 HD
ENDBRANCH  22  23
ENDBRANCH  15  22
ENDBRANCH  12  13
BRANCH   1  26
ATOM     25  C   UNL     1      -0.428   9.472  20.658  0.00  0.00    +0.000 C 
ATOM     26  N   UNL     1       0.745   8.618  20.794  0.00  0.00    +0.000 N 
ATOM     27  C   UNL     1       1.578   8.903  21.963  0.00  0.00    +0.000 C 
ENDBRANCH   1  26
TORSDOF 6
ENDMDL
MODEL 3
REMARK VINA RESULT:      -6.0     10.703     13.638
REMARK  Name = 
REMARK  8 active torsions:
REMARK  status: ('A' for Active; 'I' for Inactive)
REMARK    1  A    between atoms: C_1  and  N_2
REMARK    2  A    between atoms: N_2  and  C_3
REMARK    3  A    between atoms: N_2  and  C_4
REMARK    4  A    between atoms: N_15  and  C1*_16
REMARK    5  A    between atoms: C4*_18  and  C5*_19
REMARK    6  A    between atoms: C5*_19  and  O5*_20
REMARK    7  A    between atoms: C3*_21  and  O3*_22
REMARK    8  A    between atoms: C2*_23  and  O2*_24
REMARK                            x       y       z     vdW  Elec       q    Type
REMARK                         _______ _______ _______ _____ _____    ______ ____
ROOT
ATOM      1  C   UNL     1      -3.812  11.384  17.758  0.00  0.00    +0.000 A 
ATOM      2  N   UNL     1      -5.118  11.126  17.494  0.00  0.00    +0.000 NA
ATOM      3  C   UNL     1      -6.045  11.422  18.428  0.00  0.00    +0.000 A 
ATOM      4  N   UNL     1      -5.872  11.974  19.651  0.00  0.00    +0.000 NA
ATOM      5  C   UNL     1      -4.575  12.249  19.884  0.00  0.00    +0.000 A 
ATOM      6  C   UNL     1      -3.522  12.007  18.987  0.00  0.00    +0.000 A 
ATOM      7  C   UNL     1      -2.400  12.514  19.629  0.00  0.00    +0.000 A 
ATOM      8  C   UNL     1      -1.068  12.655  19.243  0.00  0.00    +0.000 A 
ATOM      9  C   UNL     1      -0.358  13.186  20.310  0.00  0.00    +0.000 A 
ATOM     10  S   UNL     1      -1.376  13.534  21.681  0.00  0.00    +0.000 S 
ATOM     11  C   UNL     1      -2.703  12.959  20.851  0.00  0.00    +0.000 A 
ATOM     12  N   UNL     1      -4.046  12.829  21.036  0.00  0.00    +0.000 N 
ENDROOT
BRANCH  12  13
ATOM     13  C1* UNL     1      -4.763  13.317  22.196  0.00  0.00    +0.000 C 
ATOM     14  O4* UNL     1      -5.500  12.246  22.823  0.00  0.00    +0.000 OA
ATOM     15  C4* UNL     1      -6.699  12.818  23.407  0.00  0.00    +0.000 C 
ATOM     16  C3* UNL     1      -6.649  14.326  23.159  0.00  0.00    +0.000 C 
ATOM     17  C2* UNL     1      -5.748  14.454  21.939  0.00  0.00    +0.000 C 
BRANCH  16  18
ATOM     18  O3* UNL     1      -6.021  15.031  24.250  0.00  0.00    +0.000 OA
ATOM     19  H3* UNL     1      -6.274  14.616  25.095  0.00  0.00    +0.000 HD
ENDBRANCH  16  18
BRANCH  17  20
ATOM     20  O2* UNL     1      -5.126  15.739  21.890  0.00  0.00    +0.000 OA
ATOM     21  H2* UNL     1      -4.190  15.583  21.643  0.00  0.00    +0.000 HD
ENDBRANCH  17  20
BRANCH  15  22
ATOM     22  C5* UNL     1      -7.916  12.153  22.766  0.00  0.00    +0.000 C 
BRANCH  22  23
ATOM     23  O5* UNL     1      -7.494  11.059  21.954  0.00  0.00    +0.000 OA
ATOM     24  H5* UNL     1      -7.877  11.222  21.070  0.00  0.00    +0.000 HD
ENDBRANCH  22  23
ENDBRANCH  15  22
ENDBRANCH  12  13
BRANCH   1  26
ATOM     25  C   UNL     1      -3.201  11.070  15.448  0.00  0.00    +0.000 C 
ATOM     26  N   UNL     1      -2.792  11.060  16.846  0.00  0.00    +0.000 N 
ATOM     27  C   UNL     1      -2.048   9.870  17.258  0.00  0.00    +0.000 C 
ENDBRANCH   1  26
TORSDOF 6
ENDMDL
MODEL 4
REMARK VINA RESULT:      -5.9      8.423     10.818
REMARK  Name = 
REMARK  8 active torsions:
REMARK  status: ('A' for Active; 'I' for Inactive)
REMARK    1  A    between atoms: C_1  and  N_2
REMARK    2  A    between atoms: N_2  and  C_3
REMARK    3  A    between atoms: N_2  and  C_4
REMARK    4  A    between atoms: N_15  and  C1*_16
REMARK    5  A    between atoms: C4*_18  and  C5*_19
REMARK    6  A    between atoms: C5*_19  and  O5*_20
REMARK    7  A    between atoms: C3*_21  and  O3*_22
REMARK    8  A    between atoms: C2*_23  and  O2*_24
REMARK                            x       y       z     vdW  Elec       q    Type
REMARK                         _______ _______ _______ _____ _____    ______ ____
ROOT
ATOM      1  C   UNL     1      -5.576  12.617  18.741  0.00  0.00    +0.000 A 
ATOM      2  N   UNL     1      -5.820  12.155  17.488  0.00  0.00    +0.000 NA
ATOM      3  C   UNL     1      -4.825  11.544  16.812  0.00  0.00    +0.000 A 
ATOM      4  N   UNL     1      -3.555  11.297  17.208  0.00  0.00    +0.000 NA
ATOM      5  C   UNL     1      -3.341  11.737  18.462  0.00  0.00    +0.000 A 
ATOM      6  C   UNL     1      -4.297  12.369  19.274  0.00  0.00    +0.000 A 
ATOM      7  C   UNL     1      -3.644  12.569  20.483  0.00  0.00    +0.000 A 
ATOM      8  C   UNL     1      -4.059  13.070  21.715  0.00  0.00    +0.000 A 
ATOM      9  C   UNL     1      -2.967  13.093  22.569  0.00  0.00    +0.000 A 
ATOM     10  S   UNL     1      -1.529  12.443  21.829  0.00  0.00    +0.000 S 
ATOM     11  C   UNL     1      -2.369  12.177  20.413  0.00  0.00    +0.000 A 
ATOM     12  N   UNL     1      -2.151  11.637  19.182  0.00  0.00    +0.000 N 
ENDROOT
BRANCH  12  13
ATOM     13  C1* UNL     1      -0.918  10.993  18.778  0.00  0.00    +0.000 C 
ATOM     14  O4* UNL     1      -0.704   9.786  19.540  0.00  0.00    +0.000 OA
ATOM     15  C4* UNL     1       0.728   9.611  19.696  0.00  0.00    +0.000 C 
ATOM     16  C3* UNL     1       1.410  10.751  18.941  0.00  0.00    +0.000 C 
ATOM     17  C2* UNL     1       0.346  11.840  18.908  0.00  0.00    +0.000 C 
BRANCH  16  18
ATOM     18  O3* UNL     1       1.716  10.389  17.578  0.00  0.00    +0.000 OA
ATOM     19  H3* UNL     1       1.834   9.423  17.517  0.00  0.00    +0.000 HD
ENDBRANCH  16  18
BRANCH  17  20
ATOM     20  O2* UNL     1       0.549  12.725  17.805  0.00  0.00    +0.000 OA
ATOM     21  H2* UNL     1       1.496  12.979  17.828  0.00  0.00    +0.000 HD
ENDBRANCH  17  20
BRANCH  15  22
ATOM     22  C5* UNL     1       1.056   9.609  21.189  0.00  0.00    +0.000 C 
BRANCH  22  23
ATOM     23  O5* UNL     1       1.659   8.367  21.546  0.00  0.00    +0.000 OA
ATOM     24  H5* UNL     1       2.263   8.144  20.811  0.00  0.00    +0.000 HD
ENDBRANCH  22  23
ENDBRANCH  15  22
ENDBRANCH  12  13
BRANCH   1  26
ATOM     25  C   UNL     1      -7.477  12.439  20.212  0.00  0.00    +0.000 C 
ATOM     26  N   UNL     1      -6.555  13.301  19.484  0.00  0.00    +0.000 N 
ATOM     27  C   UNL     1      -7.194  14.360  18.702  0.00  0.00    +0.000 C 
ENDBRANCH   1  26
TORSDOF 6
ENDMDL
MODEL 5
REMARK VINA RESULT:      -5.8      9.687     12.688
REMARK  Name = 
REMARK  8 active torsions:
REMARK  status: ('A' for Active; 'I' for Inactive)
REMARK    1  A    between atoms: C_1  and  N_2
REMARK    2  A    between atoms: N_2  and  C_3
REMARK    3  A    between atoms: N_2  and  C_4
REMARK    4  A    between atoms: N_15  and  C1*_16
REMARK    5  A    between atoms: C4*_18  and  C5*_19
REMARK    6  A    between atoms: C5*_19  and  O5*_20
REMARK    7  A    between atoms: C3*_21  and  O3*_22
REMARK    8  A    between atoms: C2*_23  and  O2*_24
REMARK                            x       y       z     vdW  Elec       q    Type
REMARK                         _______ _______ _______ _____ _____    ______ ____
ROOT
ATOM      1  C   UNL     1      -0.177  11.728  19.778  0.00  0.00    +0.000 A 
ATOM      2  N   UNL     1       0.258  12.263  20.947  0.00  0.00    +0.000 NA
ATOM      3  C   UNL     1      -0.629  12.881  21.753  0.00  0.00    +0.000 A 
ATOM      4  N   UNL     1      -1.959  13.056  21.578  0.00  0.00    +0.000 NA
ATOM      5  C   UNL     1      -2.377  12.495  20.428  0.00  0.00    +0.000 A 
ATOM      6  C   UNL     1      -1.558  11.809  19.516  0.00  0.00    +0.000 A 
ATOM      7  C   UNL     1      -2.436  11.355  18.539  0.00  0.00    +0.000 A 
ATOM      8  C   UNL     1      -2.270  10.551  17.414  0.00  0.00    +0.000 A 
ATOM      9  C   UNL     1      -3.488  10.460  16.757  0.00  0.00    +0.000 A 
ATOM     10  S   UNL     1      -4.761  11.308  17.594  0.00  0.00    +0.000 S 
ATOM     11  C   UNL     1      -3.679  11.787  18.770  0.00  0.00    +0.000 A 
ATOM     12  N   UNL     1      -3.684  12.479  19.943  0.00  0.00    +0.000 N 
ENDROOT
BRANCH  12  13
ATOM     13  C1* UNL     1      -4.877  12.996  20.581  0.00  0.00    +0.000 C 
ATOM     14  O4* UNL     1      -5.602  11.933  21.235  0.00  0.00    +0.000 OA
ATOM     15  C4* UNL     1      -7.015  12.261  21.174  0.00  0.00    +0.000 C 
ATOM     16  C3* UNL     1      -7.136  13.623  20.490  0.00  0.00    +0.000 C 
ATOM     17  C2* UNL     1      -5.861  13.717  19.663  0.00  0.00    +0.000 C 
BRANCH  16  18
ATOM     18  O3* UNL     1      -7.130  14.707  21.441  0.00  0.00    +0.000 OA
ATOM     19  H3* UNL     1      -7.476  14.392  22.297  0.00  0.00    +0.000 HD
ENDBRANCH  16  18
BRANCH  17  20
ATOM     20  O2* UNL     1      -5.508  15.079  19.416  0.00  0.00    +0.000 OA
ATOM     21  H2* UNL     1      -4.711  15.057  18.844  0.00  0.00    +0.000 HD
ENDBRANCH  17  20
BRANCH  15  22
ATOM     22  C5* UNL     1      -7.738  11.150  20.415  0.00  0.00    +0.000 C 
BRANCH  22  23
ATOM     23  O5* UNL     1      -7.267   9.879  20.859  0.00  0.00    +0.000 OA
ATOM     24  H5* UNL     1      -8.063   9.383  21.136  0.00  0.00    +0.000 HD
ENDBRANCH  22  23
ENDBRANCH  15  22
ENDBRANCH  12  13
BRANCH   1  26
ATOM     25  C   UNL     1       1.018   9.721  19.185  0.00  0.00    +0.000 C 
ATOM     26  N   UNL     1       0.701  11.108  18.872  0.00  0.00    +0.000 N 
ATOM     27  C   UNL     1       1.861  11.949  18.572  0.00  0.00    +0.000 C 
ENDBRANCH   1  26
TORSDOF 6
ENDMDL
MODEL 6
REMARK VINA RESULT:      -5.8      2.904      4.622
REMARK  Name = 
REMARK  8 active torsions:
REMARK  status: ('A' for Active; 'I' for Inactive)
REMARK    1  A    between atoms: C_1  and  N_2
REMARK    2  A    between atoms: N_2  and  C_3
REMARK    3  A    between atoms: N_2  and  C_4
REMARK    4  A    between atoms: N_15  and  C1*_16
REMARK    5  A    between atoms: C4*_18  and  C5*_19
REMARK    6  A    between atoms: C5*_19  and  O5*_20
REMARK    7  A    between atoms: C3*_21  and  O3*_22
REMARK    8  A    between atoms: C2*_23  and  O2*_24
REMARK                            x       y       z     vdW  Elec       q    Type
REMARK                         _______ _______ _______ _____ _____    ______ ____
ROOT
ATOM      1  C   UNL     1       1.235   8.908  19.858  0.00  0.00    +0.000 A 
ATOM      2  N   UNL     1       1.249   9.964  19.005  0.00  0.00    +0.000 NA
ATOM      3  C   UNL     1       1.997   9.889  17.885  0.00  0.00    +0.000 A 
ATOM      4  N   UNL     1       2.772   8.871  17.447  0.00  0.00    +0.000 NA
ATOM      5  C   UNL     1       2.724   7.823  18.291  0.00  0.00    +0.000 A 
ATOM      6  C   UNL     1       1.971   7.770  19.474  0.00  0.00    +0.000 A 
ATOM      7  C   UNL     1       2.180   6.485  19.958  0.00  0.00    +0.000 A 
ATOM      8  C   UNL     1       1.658   5.782  21.042  0.00  0.00    +0.000 A 
ATOM      9  C   UNL     1       2.261   4.533  21.085  0.00  0.00    +0.000 A 
ATOM     10  S   UNL     1       3.371   4.284  19.764  0.00  0.00    +0.000 S 
ATOM     11  C   UNL     1       3.050   5.818  19.195  0.00  0.00    +0.000 A 
ATOM     12  N   UNL     1       3.393   6.610  18.141  0.00  0.00    +0.000 N 
ENDROOT
BRANCH  12  13
ATOM     13  C1* UNL     1       4.225   6.182  17.035  0.00  0.00    +0.000 C 
ATOM     14  O4* UNL     1       3.884   4.838  16.635  0.00  0.00    +0.000 OA
ATOM     15  C4* UNL     1       5.094   4.201  16.150  0.00  0.00    +0.000 C 
ATOM     16  C3* UNL     1       6.212   5.242  16.216  0.00  0.00    +0.000 C 
ATOM     17  C2* UNL     1       5.730   6.211  17.287  0.00  0.00    +0.000 C 
BRANCH  16  18
ATOM     18  O3* UNL     1       6.341   5.975  14.980  0.00  0.00    +0.000 OA
ATOM     19  H3* UNL     1       6.314   5.354  14.229  0.00  0.00    +0.000 HD
ENDBRANCH  16  18
BRANCH  17  20
ATOM     20  O2* UNL     1       6.309   7.505  17.108  0.00  0.00    +0.000 OA
ATOM     21  H2* UNL     1       6.838   7.683  17.915  0.00  0.00    +0.000 HD
ENDBRANCH  17  20
BRANCH  15  22
ATOM     22  C5* UNL     1       5.376   2.973  17.014  0.00  0.00    +0.000 C 
BRANCH  22  23
ATOM     23  O5* UNL     1       4.161   2.268  17.259  0.00  0.00    +0.000 OA
ATOM     24  H5* UNL     1       3.866   1.937  16.388  0.00  0.00    +0.000 HD
ENDBRANCH  22  23
ENDBRANCH  15  22
ENDBRANCH  12  13
BRANCH   1  26
ATOM     25  C   UNL     1      -0.696   9.750  21.028  0.00  0.00    +0.000 C 
ATOM     26  N   UNL     1       0.512   8.936  21.064  0.00  0.00    +0.000 N 
ATOM     27  C   UNL     1       1.380   9.176  22.217  0.00  0.00    +0.000 C 
ENDBRANCH   1  26
TORSDOF 6
ENDMDL
MODEL 7
REMARK VINA RESULT:      -5.8      9.127     11.962
REMARK  Name = 
REMARK  8 active torsions:
REMARK  status: ('A' for Active; 'I' for Inactive)
REMARK    1  A    between atoms: C_1  and  N_2
REMARK    2  A    between atoms: N_2  and  C_3
REMARK    3  A    between atoms: N_2  and  C_4
REMARK    4  A    between atoms: N_15  and  C1*_16
REMARK    5  A    between atoms: C4*_18  and  C5*_19
REMARK    6  A    between atoms: C5*_19  and  O5*_20
REMARK    7  A    between atoms: C3*_21  and  O3*_22
REMARK    8  A    between atoms: C2*_23  and  O2*_24
REMARK                            x       y       z     vdW  Elec       q    Type
REMARK                         _______ _______ _______ _____ _____    ______ ____
ROOT
ATOM      1  C   UNL     1      -0.541  10.662  18.672  0.00  0.00    +0.000 A 
ATOM      2  N   UNL     1      -0.888   9.911  17.595  0.00  0.00    +0.000 NA
ATOM      3  C   UNL     1      -2.174   9.908  17.188  0.00  0.00    +0.000 A 
ATOM      4  N   UNL     1      -3.231  10.577  17.704  0.00  0.00    +0.000 NA
ATOM      5  C   UNL     1      -2.862  11.337  18.752  0.00  0.00    +0.000 A 
ATOM      6  C   UNL     1      -1.557  11.440  19.259  0.00  0.00    +0.000 A 
ATOM      7  C   UNL     1      -1.656  12.380  20.277  0.00  0.00    +0.000 A 
ATOM      8  C   UNL     1      -0.714  12.982  21.109  0.00  0.00    +0.000 A 
ATOM      9  C   UNL     1      -1.380  13.821  21.989  0.00  0.00    +0.000 A 
ATOM     10  S   UNL     1      -3.098  13.864  21.697  0.00  0.00    +0.000 S 
ATOM     11  C   UNL     1      -2.922  12.770  20.451  0.00  0.00    +0.000 A 
ATOM     12  N   UNL     1      -3.694  12.159  19.510  0.00  0.00    +0.000 N 
ENDROOT
BRANCH  12  13
ATOM     13  C1* UNL     1      -5.103  12.430  19.308  0.00  0.00    +0.000 C 
ATOM     14  O4* UNL     1      -5.876  11.939  20.423  0.00  0.00    +0.000 OA
ATOM     15  C4* UNL     1      -7.172  11.527  19.914  0.00  0.00    +0.000 C 
ATOM     16  C3* UNL     1      -7.191  11.838  18.417  0.00  0.00    +0.000 C 
ATOM     17  C2* UNL     1      -5.716  11.844  18.039  0.00  0.00    +0.000 C 
BRANCH  16  18
ATOM     18  O3* UNL     1      -7.724  13.150  18.145  0.00  0.00    +0.000 OA
ATOM     19  H3* UNL     1      -7.166  13.598  17.483  0.00  0.00    +0.000 HD
ENDBRANCH  16  18
BRANCH  17  20
ATOM     20  O2* UNL     1      -5.485  12.644  16.879  0.00  0.00    +0.000 OA
ATOM     21  H2* UNL     1      -5.356  13.562  17.200  0.00  0.00    +0.000 HD
ENDBRANCH  17  20
BRANCH  15  22
ATOM     22  C5* UNL     1      -7.361  10.041  20.213  0.00  0.00    +0.000 C 
BRANCH  22  23
ATOM     23  O5* UNL     1      -7.591   9.332  18.997  0.00  0.00    +0.000 OA
ATOM     24  H5* UNL     1      -6.823   8.737  18.887  0.00  0.00    +0.000 HD
ENDBRANCH  22  23
ENDBRANCH  15  22
ENDBRANCH  12  13
BRANCH   1  26
ATOM     25  C   UNL     1       1.813  10.642  18.156  0.00  0.00    +0.000 C 
ATOM     26  N   UNL     1       0.772  10.676  19.175  0.00  0.00    +0.000 N 
ATOM     27  C   UNL     1       0.950   9.718  20.267  0.00  0.00    +0.000 C 
ENDBRANCH   1  26
TORSDOF 6
ENDMDL
MODEL 8
REMARK VINA RESULT:      -5.8      3.793      6.403
REMARK  Name = 
REMARK  8 active torsions:
REMARK  status: ('A' for Active; 'I' for Inactive)
REMARK    1  A    between atoms: C_1  and  N_2
REMARK    2  A    between atoms: N_2  and  C_3
REMARK    3  A    between atoms: N_2  and  C_4
REMARK    4  A    between atoms: N_15  and  C1*_16
REMARK    5  A    between atoms: C4*_18  and  C5*_19
REMARK    6  A    between atoms: C5*_19  and  O5*_20
REMARK    7  A    between atoms: C3*_21  and  O3*_22
REMARK    8  A    between atoms: C2*_23  and  O2*_24
REMARK                            x       y       z     vdW  Elec       q    Type
REMARK                         _______ _______ _______ _____ _____    ______ ____
ROOT
ATOM      1  C   UNL     1       2.996   3.517  19.456  0.00  0.00    +0.000 A 
ATOM      2  N   UNL     1       2.129   3.294  20.476  0.00  0.00    +0.000 NA
ATOM      3  C   UNL     1       1.497   4.346  21.037  0.00  0.00    +0.000 A 
ATOM      4  N   UNL     1       1.588   5.659  20.723  0.00  0.00    +0.000 NA
ATOM      5  C   UNL     1       2.430   5.856  19.692  0.00  0.00    +0.000 A 
ATOM      6  C   UNL     1       3.130   4.846  19.013  0.00  0.00    +0.000 A 
ATOM      7  C   UNL     1       3.801   5.516  17.997  0.00  0.00    +0.000 A 
ATOM      8  C   UNL     1       4.596   5.083  16.938  0.00  0.00    +0.000 A 
ATOM      9  C   UNL     1       5.057   6.196  16.253  0.00  0.00    +0.000 A 
ATOM     10  S   UNL     1       4.437   7.687  16.910  0.00  0.00    +0.000 S 
ATOM     11  C   UNL     1       3.609   6.835  18.081  0.00  0.00    +0.000 A 
ATOM     12  N   UNL     1       2.747   7.081  19.107  0.00  0.00    +0.000 N 
ENDROOT
BRANCH  12  13
ATOM     13  C1* UNL     1       2.208   8.387  19.425  0.00  0.00    +0.000 C 
ATOM     14  O4* UNL     1       1.830   8.452  20.817  0.00  0.00    +0.000 OA
ATOM     15  C4* UNL     1       0.692   9.346  20.923  0.00  0.00    +0.000 C 
ATOM     16  C3* UNL     1       0.407   9.887  19.522  0.00  0.00    +0.000 C 
ATOM     17  C2* UNL     1       0.996   8.822  18.606  0.00  0.00    +0.000 C 
BRANCH  16  18
ATOM     18  O3* UNL     1       1.102  11.124  19.268  0.00  0.00    +0.000 OA
ATOM     19  H3* UNL     1       0.856  11.781  19.945  0.00  0.00    +0.000 HD
ENDBRANCH  16  18
BRANCH  17  20
ATOM     20  O2* UNL     1       1.342   9.372  17.334  0.00  0.00    +0.000 OA
ATOM     21  H2* UNL     1       1.781  10.230  17.516  0.00  0.00    +0.000 HD
ENDBRANCH  17  20
BRANCH  15  22
ATOM     22  C5* UNL     1      -0.485   8.567  21.509  0.00  0.00    +0.000 C 
BRANCH  22  23
ATOM     23  O5* UNL     1      -0.716   8.985  22.853  0.00  0.00    +0.000 OA
ATOM     24  H5* UNL     1      -0.353   8.274  23.417  0.00  0.00    +0.000 HD
ENDBRANCH  22  23
ENDBRANCH  15  22
ENDBRANCH  12  13
BRANCH   1  26
ATOM     25  C   UNL     1       2.952   1.662  17.918  0.00  0.00    +0.000 C 
ATOM     26  N   UNL     1       3.720   2.472  18.855  0.00  0.00    +0.000 N 
ATOM     27  C   UNL     1       4.492   1.708  19.835  0.00  0.00    +0.000 C 
ENDBRANCH   1  26
TORSDOF 6
ENDMDL
MODEL 9
REMARK VINA RESULT:      -5.7      3.519      5.864
REMARK  Name = 
REMARK  8 active torsions:
REMARK  status: ('A' for Active; 'I' for Inactive)
REMARK    1  A    between atoms: C_1  and  N_2
REMARK    2  A    between atoms: N_2  and  C_3
REMARK    3  A    between atoms: N_2  and  C_4
REMARK    4  A    between atoms: N_15  and  C1*_16
REMARK    5  A    between atoms: C4*_18  and  C5*_19
REMARK    6  A    between atoms: C5*_19  and  O5*_20
REMARK    7  A    between atoms: C3*_21  and  O3*_22
REMARK    8  A    between atoms: C2*_23  and  O2*_24
REMARK                            x       y       z     vdW  Elec       q    Type
REMARK                         _______ _______ _______ _____ _____    ______ ____
ROOT
ATOM      1  C   UNL     1       3.226   3.111  19.779  0.00  0.00    +0.000 A 
ATOM      2  N   UNL     1       2.247   2.781  20.659  0.00  0.00    +0.000 NA
ATOM      3  C   UNL     1       1.312   3.703  20.972  0.00  0.00    +0.000 A 
ATOM      4  N   UNL     1       1.181   4.970  20.516  0.00  0.00    +0.000 NA
ATOM      5  C   UNL     1       2.143   5.269  19.624  0.00  0.00    +0.000 A 
ATOM      6  C   UNL     1       3.158   4.394  19.202  0.00  0.00    +0.000 A 
ATOM      7  C   UNL     1       3.854   5.113  18.239  0.00  0.00    +0.000 A 
ATOM      8  C   UNL     1       4.910   4.787  17.390  0.00  0.00    +0.000 A 
ATOM      9  C   UNL     1       5.247   5.915  16.658  0.00  0.00    +0.000 A 
ATOM     10  S   UNL     1       4.211   7.273  17.011  0.00  0.00    +0.000 S 
ATOM     11  C   UNL     1       3.375   6.354  18.124  0.00  0.00    +0.000 A 
ATOM     12  N   UNL     1       2.301   6.480  18.952  0.00  0.00    +0.000 N 
ENDROOT
BRANCH  12  13
ATOM     13  C1* UNL     1       1.447   7.648  19.011  0.00  0.00    +0.000 C 
ATOM     14  O4* UNL     1       1.599   8.447  17.818  0.00  0.00    +0.000 OA
ATOM     15  C4* UNL     1       1.398   9.835  18.188  0.00  0.00    +0.000 C 
ATOM     16  C3* UNL     1       1.056   9.863  19.678  0.00  0.00    +0.000 C 
ATOM     17  C2* UNL     1       1.668   8.573  20.205  0.00  0.00    +0.000 C 
BRANCH  16  18
ATOM     18  O3* UNL     1      -0.367   9.804  19.906  0.00  0.00    +0.000 OA
ATOM     19  H3* UNL     1      -0.771  10.660  19.669  0.00  0.00    +0.000 HD
ENDBRANCH  16  18
BRANCH  17  20
ATOM     20  O2* UNL     1       1.002   8.134  21.390  0.00  0.00    +0.000 OA
ATOM     21  H2* UNL     1       1.694   8.058  22.082  0.00  0.00    +0.000 HD
ENDBRANCH  17  20
BRANCH  15  22
ATOM     22  C5* UNL     1       2.671  10.615  17.858  0.00  0.00    +0.000 C 
BRANCH  22  23
ATOM     23  O5* UNL     1       2.332  11.945  17.472  0.00  0.00    +0.000 OA
ATOM     24  H5* UNL     1       1.384  11.920  17.235  0.00  0.00    +0.000 HD
ENDBRANCH  22  23
ENDBRANCH  15  22
ENDBRANCH  12  13
BRANCH   1  26
ATOM     25  C   UNL     1       3.881   1.198  18.468  0.00  0.00    +0.000 C 
ATOM     26  N   UNL     1       4.256   2.215  19.443  0.00  0.00    +0.000 N 
ATOM     27  C   UNL     1       4.944   1.703  20.628  0.00  0.00    +0.000 C 
ENDBRANCH   1  26
TORSDOF 6
ENDMDL
