MODEL 1
REMARK VINA RESULT:      -5.7      0.000      0.000
REMARK  Name = 
REMARK  0 active torsions:
REMARK  status: ('A' for Active; 'I' for Inactive)
REMARK                            x       y       z     vdW  Elec       q    Type
REMARK                         _______ _______ _______ _____ _____    ______ ____
ROOT
ATOM      1  C   UNL     1       7.693   6.681  18.223  0.00  0.00    +0.000 A 
ATOM      2  C   UNL     1       6.604   6.808  17.406  0.00  0.00    +0.000 A 
ATOM      3  N   UNL     1       5.490   6.061  17.533  0.00  0.00    +0.000 NA
ATOM      4  C   UNL     1       5.449   5.142  18.511  0.00  0.00    +0.000 A 
ATOM      5  N   UNL     1       4.272   4.424  18.717  0.00  0.00    +0.000 N 
ATOM      6  C   UNL     1       4.439   3.113  19.359  0.00  0.00    +0.000 C 
ATOM      7  C   UNL     1       3.136   2.655  20.026  0.00  0.00    +0.000 C 
ATOM      8  S   UNL     1       1.758   2.492  18.840  0.00  0.00    +0.000 S 
ATOM      9  C   UNL     1       1.890   4.152  18.096  0.00  0.00    +0.000 C 
ATOM     10  C   UNL     1       3.306   4.473  17.610  0.00  0.00    +0.000 C 
ATOM     11  N   UNL     1       6.485   4.946  19.347  0.00  0.00    +0.000 NA
ATOM     12  C   UNL     1       7.579   5.719  19.190  0.00  0.00    +0.000 A 
ENDROOT
TORSDOF 0
ENDMDL
MODEL 2
REMARK VINA RESULT:      -5.7      0.569      2.101
REMARK  Name = 
REMARK  0 active torsions:
REMARK  status: ('A' for Active; 'I' for Inactive)
REMARK                            x       y       z     vdW  Elec       q    Type
REMARK                         _______ _______ _______ _____ _____    ______ ____
ROOT
ATOM      1  C   UNL     1       7.768   6.844  18.155  0.00  0.00    +0.000 A 
ATOM      2  C   UNL     1       7.709   5.816  19.057  0.00  0.00    +0.000 A 
ATOM      3  N   UNL     1       6.675   4.955  19.132  0.00  0.00    +0.000 NA
ATOM      4  C   UNL     1       5.649   5.116  18.282  0.00  0.00    +0.000 A 
ATOM      5  N   UNL     1       4.615   4.182  18.282  0.00  0.00    +0.000 N 
ATOM      6  C   UNL     1       3.321   4.675  17.789  0.00  0.00    +0.000 C 
ATOM      7  C   UNL     1       2.433   3.518  17.316  0.00  0.00    +0.000 C 
ATOM      8  S   UNL     1       2.072   2.320  18.645  0.00  0.00    +0.000 S 
ATOM      9  C   UNL     1       3.794   2.019  19.166  0.00  0.00    +0.000 C 
ATOM     10  C   UNL     1       4.556   3.313  19.466  0.00  0.00    +0.000 C 
ATOM     11  N   UNL     1       5.626   6.111  17.376  0.00  0.00    +0.000 NA
ATOM     12  C   UNL     1       6.683   6.948  17.328  0.00  0.00    +0.000 A 
ENDROOT
TORSDOF 0
ENDMDL
MODEL 3
REMARK VINA RESULT:      -5.5      1.249      1.970
REMARK  Name = 
REMARK  0 active torsions:
REMARK  status: ('A' for Active; 'I' for Inactive)
REMARK                            x       y       z     vdW  Elec       q    Type
REMARK                         _______ _______ _______ _____ _____    ______ ____
ROOT
ATOM      1  C   UNL     1       7.788   5.552  18.265  0.00  0.00    +0.000 A 
ATOM      2  C   UNL     1       7.070   5.613  19.429  0.00  0.00    +0.000 A 
ATOM      3  N   UNL     1       5.867   5.028  19.590  0.00  0.00    +0.000 NA
ATOM      4  C   UNL     1       5.343   4.354  18.553  0.00  0.00    +0.000 A 
ATOM      5  N   UNL     1       4.144   3.666  18.729  0.00  0.00    +0.000 N 
ATOM      6  C   UNL     1       3.360   3.446  17.505  0.00  0.00    +0.000 C 
ATOM      7  C   UNL     1       2.394   2.266  17.674  0.00  0.00    +0.000 C 
ATOM      8  S   UNL     1       1.200   2.523  19.030  0.00  0.00    +0.000 S 
ATOM      9  C   UNL     1       2.408   2.930  20.334  0.00  0.00    +0.000 C 
ATOM     10  C   UNL     1       3.373   4.045  19.921  0.00  0.00    +0.000 C 
ATOM     11  N   UNL     1       5.980   4.260  17.372  0.00  0.00    +0.000 NA
ATOM     12  C   UNL     1       7.185   4.854  17.253  0.00  0.00    +0.000 A 
ENDROOT
TORSDOF 0
ENDMDL
MODEL 4
REMARK VINA RESULT:      -5.5      3.830      4.855
REMARK  Name = 
REMARK  0 active torsions:
REMARK  status: ('A' for Active; 'I' for Inactive)
REMARK                            x       y       z     vdW  Elec       q    Type
REMARK                         _______ _______ _______ _____ _____    ______ ____
ROOT
ATOM      1  C   UNL     1       7.235   4.327  12.056  0.00  0.00    +0.000 A 
ATOM      2  C   UNL     1       7.916   5.206  12.854  0.00  0.00    +0.000 A 
ATOM      3  N   UNL     1       7.659   5.369  14.166  0.00  0.00    +0.000 NA
ATOM      4  C   UNL     1       6.681   4.632  14.720  0.00  0.00    +0.000 A 
ATOM      5  N   UNL     1       6.463   4.719  16.093  0.00  0.00    +0.000 N 
ATOM      6  C   UNL     1       5.105   4.373  16.536  0.00  0.00    +0.000 C 
ATOM      7  C   UNL     1       5.094   3.968  18.016  0.00  0.00    +0.000 C 
ATOM      8  S   UNL     1       5.687   5.300  19.114  0.00  0.00    +0.000 S 
ATOM      9  C   UNL     1       7.259   5.634  18.252  0.00  0.00    +0.000 C 
ATOM     10  C   UNL     1       7.072   5.883  16.752  0.00  0.00    +0.000 C 
ATOM     11  N   UNL     1       5.957   3.756  13.999  0.00  0.00    +0.000 NA
ATOM     12  C   UNL     1       6.250   3.618  12.690  0.00  0.00    +0.000 A 
ENDROOT
TORSDOF 0
ENDMDL
MODEL 5
REMARK VINA RESULT:      -5.5      1.659      1.698
REMARK  Name = 
REMARK  0 active torsions:
REMARK  status: ('A' for Active; 'I' for Inactive)
REMARK                            x       y       z     vdW  Elec       q    Type
REMARK                         _______ _______ _______ _____ _____    ______ ____
ROOT
ATOM      1  C   UNL     1       7.314   4.675  16.401  0.00  0.00    +0.000 A 
ATOM      2  C   UNL     1       6.142   4.415  15.744  0.00  0.00    +0.000 A 
ATOM      3  N   UNL     1       4.985   4.136  16.376  0.00  0.00    +0.000 NA
ATOM      4  C   UNL     1       4.983   4.108  17.718  0.00  0.00    +0.000 A 
ATOM      5  N   UNL     1       3.778   3.913  18.390  0.00  0.00    +0.000 N 
ATOM      6  C   UNL     1       3.895   3.342  19.739  0.00  0.00    +0.000 C 
ATOM      7  C   UNL     1       2.655   3.661  20.583  0.00  0.00    +0.000 C 
ATOM      8  S   UNL     1       1.119   2.994  19.857  0.00  0.00    +0.000 S 
ATOM      9  C   UNL     1       1.318   3.706  18.190  0.00  0.00    +0.000 C 
ATOM     10  C   UNL     1       2.680   3.385  17.567  0.00  0.00    +0.000 C 
ATOM     11  N   UNL     1       6.098   4.338  18.435  0.00  0.00    +0.000 NA
ATOM     12  C   UNL     1       7.234   4.620  17.766  0.00  0.00    +0.000 A 
ENDROOT
TORSDOF 0
ENDMDL
MODEL 6
REMARK VINA RESULT:      -5.4      1.203      1.224
REMARK  Name = 
REMARK  0 active torsions:
REMARK  status: ('A' for Active; 'I' for Inactive)
REMARK                            x       y       z     vdW  Elec       q    Type
REMARK                         _______ _______ _______ _____ _____    ______ ____
ROOT
ATOM      1  C   UNL     1       7.256   6.164  17.406  0.00  0.00    +0.000 A 
ATOM      2  C   UNL     1       6.013   6.737  17.382  0.00  0.00    +0.000 A 
ATOM      3  N   UNL     1       4.942   6.210  18.006  0.00  0.00    +0.000 NA
ATOM      4  C   UNL     1       5.101   5.062  18.684  0.00  0.00    +0.000 A 
ATOM      5  N   UNL     1       4.028   4.550  19.412  0.00  0.00    +0.000 N 
ATOM      6  C   UNL     1       4.058   3.099  19.641  0.00  0.00    +0.000 C 
ATOM      7  C   UNL     1       3.200   2.714  20.853  0.00  0.00    +0.000 C 
ATOM      8  S   UNL     1       1.447   3.183  20.650  0.00  0.00    +0.000 S 
ATOM      9  C   UNL     1       1.719   4.934  20.221  0.00  0.00    +0.000 C 
ATOM     10  C   UNL     1       2.714   5.115  19.071  0.00  0.00    +0.000 C 
ATOM     11  N   UNL     1       6.287   4.430  18.743  0.00  0.00    +0.000 NA
ATOM     12  C   UNL     1       7.337   4.993  18.110  0.00  0.00    +0.000 A 
ENDROOT
TORSDOF 0
ENDMDL
MODEL 7
REMARK VINA RESULT:      -5.4      1.679      2.505
REMARK  Name = 
REMARK  0 active torsions:
REMARK  status: ('A' for Active; 'I' for Inactive)
REMARK                            x       y       z     vdW  Elec       q    Type
REMARK                         _______ _______ _______ _____ _____    ______ ____
ROOT
ATOM      1  C   UNL     1       7.255   4.668  16.502  0.00  0.00    +0.000 A 
ATOM      2  C   UNL     1       7.148   4.706  17.866  0.00  0.00    +0.000 A 
ATOM      3  N   UNL     1       6.013   4.411  18.529  0.00  0.00    +0.000 NA
ATOM      4  C   UNL     1       4.929   4.066  17.814  0.00  0.00    +0.000 A 
ATOM      5  N   UNL     1       3.774   3.669  18.485  0.00  0.00    +0.000 N 
ATOM      6  C   UNL     1       2.520   3.853  17.740  0.00  0.00    +0.000 C 
ATOM      7  C   UNL     1       1.419   2.931  18.278  0.00  0.00    +0.000 C 
ATOM      8  S   UNL     1       1.041   3.238  20.037  0.00  0.00    +0.000 S 
ATOM      9  C   UNL     1       2.747   3.117  20.670  0.00  0.00    +0.000 C 
ATOM     10  C   UNL     1       3.725   4.019  19.911  0.00  0.00    +0.000 C 
ATOM     11  N   UNL     1       4.950   4.020  16.470  0.00  0.00    +0.000 NA
ATOM     12  C   UNL     1       6.107   4.316  15.844  0.00  0.00    +0.000 A 
ENDROOT
TORSDOF 0
ENDMDL
MODEL 8
REMARK VINA RESULT:      -5.4      2.202      2.681
REMARK  Name = 
REMARK  0 active torsions:
REMARK  status: ('A' for Active; 'I' for Inactive)
REMARK                            x       y       z     vdW  Elec       q    Type
REMARK                         _______ _______ _______ _____ _____    ______ ____
ROOT
ATOM      1  C   UNL     1       5.446   5.739  15.726  0.00  0.00    +0.000 A 
ATOM      2  C   UNL     1       5.206   4.398  15.854  0.00  0.00    +0.000 A 
ATOM      3  N   UNL     1       4.450   3.870  16.836  0.00  0.00    +0.000 NA
ATOM      4  C   UNL     1       3.907   4.702  17.739  0.00  0.00    +0.000 A 
ATOM      5  N   UNL     1       3.048   4.185  18.707  0.00  0.00    +0.000 N 
ATOM      6  C   UNL     1       2.948   4.972  19.943  0.00  0.00    +0.000 C 
ATOM      7  C   UNL     1       1.641   4.667  20.687  0.00  0.00    +0.000 C 
ATOM      8  S   UNL     1       1.496   2.911  21.163  0.00  0.00    +0.000 S 
ATOM      9  C   UNL     1       1.820   2.193  19.518  0.00  0.00    +0.000 C 
ATOM     10  C   UNL     1       3.107   2.727  18.882  0.00  0.00    +0.000 C 
ATOM     11  N   UNL     1       4.108   6.032  17.690  0.00  0.00    +0.000 NA
ATOM     12  C   UNL     1       4.865   6.522  16.688  0.00  0.00    +0.000 A 
ENDROOT
TORSDOF 0
ENDMDL
MODEL 9
REMARK VINA RESULT:      -5.3      2.485      4.911
REMARK  Name = 
REMARK  0 active torsions:
REMARK  status: ('A' for Active; 'I' for Inactive)
REMARK                            x       y       z     vdW  Elec       q    Type
REMARK                         _______ _______ _______ _____ _____    ______ ____
ROOT
ATOM      1  C   UNL     1       0.945   3.622  20.449  0.00  0.00    +0.000 A 
ATOM      2  C   UNL     1       2.013   4.318  20.947  0.00  0.00    +0.000 A 
ATOM      3  N   UNL     1       3.113   4.606  20.225  0.00  0.00    +0.000 NA
ATOM      4  C   UNL     1       3.166   4.183  18.951  0.00  0.00    +0.000 A 
ATOM      5  N   UNL     1       4.254   4.550  18.160  0.00  0.00    +0.000 N 
ATOM      6  C   UNL     1       4.547   3.649  17.037  0.00  0.00    +0.000 C 
ATOM      7  C   UNL     1       5.351   4.369  15.948  0.00  0.00    +0.000 C 
ATOM      8  S   UNL     1       6.953   4.998  16.555  0.00  0.00    +0.000 S 
ATOM      9  C   UNL     1       6.317   5.912  17.998  0.00  0.00    +0.000 C 
ATOM     10  C   UNL     1       5.423   5.051  18.897  0.00  0.00    +0.000 C 
ATOM     11  N   UNL     1       2.164   3.481  18.393  0.00  0.00    +0.000 NA
ATOM     12  C   UNL     1       1.077   3.219  19.147  0.00  0.00    +0.000 A 
ENDROOT
TORSDOF 0
ENDMDL
