MODEL 1
REMARK VINA RESULT:      -7.7      0.000      0.000
REMARK  Name = 
REMARK  12 active torsions:
REMARK  status: ('A' for Active; 'I' for Inactive)
REMARK    1  A    between atoms: C_1  and  N_2
REMARK    2  A    between atoms: N_2  and  S_3
REMARK    3  A    between atoms: S_3  and  C_6
REMARK    4  A    between atoms: C_13  and  C_14
REMARK    5  A    between atoms: C_16  and  C_17
REMARK    6  A    between atoms: C_18  and  C_19
REMARK    7  A    between atoms: C_20  and  C_21
REMARK    8  A    between atoms: C_21  and  C_22
REMARK    9  A    between atoms: C_22  and  C_23
REMARK   10  A    between atoms: C_23  and  N_24
REMARK   11  A    between atoms: N_24  and  C_25
REMARK   12  A    between atoms: N_24  and  C_26
REMARK                            x       y       z     vdW  Elec       q    Type
REMARK                         _______ _______ _______ _____ _____    ______ ____
ROOT
ATOM      1  C   UNL     1       4.707   5.846  17.465  0.00  0.00    +0.000 A 
ATOM      2  C   UNL     1       4.586   4.975  18.569  0.00  0.00    +0.000 A 
ATOM      3  C   UNL     1       3.713   5.278  19.608  0.00  0.00    +0.000 A 
ATOM      4  C   UNL     1       2.978   6.444  19.501  0.00  0.00    +0.000 A 
ATOM      5  C   UNL     1       3.074   7.327  18.413  0.00  0.00    +0.000 A 
ATOM      6  C   UNL     1       3.943   7.030  17.371  0.00  0.00    +0.000 A 
ATOM      7  C   UNL     1       2.105   8.408  18.695  0.00  0.00    +0.000 C 
ATOM      8  C   UNL     1       1.805   9.461  17.916  0.00  0.00    +0.000 C 
ATOM      9  C   UNL     1       1.475   8.090  20.034  0.00  0.00    +0.000 C 
ATOM     10  O   UNL     1       0.672   8.729  20.690  0.00  0.00    +0.000 OA
ATOM     11  N   UNL     1       2.047   6.894  20.426  0.00  0.00    +0.000 N 
ATOM     12  H   UNL     1       1.797   6.439  21.289  0.00  0.00    +0.000 HD
ENDROOT
BRANCH   8  13
ATOM     13  C   UNL     1       0.763  10.379  18.228  0.00  0.00    +0.000 A 
ATOM     14  N   UNL     1      -0.526  10.075  17.863  0.00  0.00    +0.000 N 
ATOM     15  C   UNL     1      -1.375  11.095  18.223  0.00  0.00    +0.000 A 
ATOM     16  C   UNL     1      -2.826  11.061  17.895  0.00  0.00    +0.000 C 
ATOM     17  C   UNL     1      -0.623  12.073  18.851  0.00  0.00    +0.000 A 
ATOM     18  C   UNL     1      -1.120  13.376  19.380  0.00  0.00    +0.000 C 
ATOM     19  C   UNL     1       0.739  11.613  18.860  0.00  0.00    +0.000 A 
ATOM     20  H   UNL     1      -0.804   9.248  17.356  0.00  0.00    +0.000 HD
BRANCH  19  21
ATOM     21  C   UNL     1       1.915  12.362  19.414  0.00  0.00    +0.000 C 
BRANCH  21  22
ATOM     22  C   UNL     1       2.555  13.315  18.404  0.00  0.00    +0.000 C 
BRANCH  22  23
ATOM     23  C   UNL     1       2.284  14.796  18.702  0.00  0.00    +0.000 C 
BRANCH  23  24
ATOM     24  N   UNL     1       3.450  15.661  18.425  0.00  0.00    +0.000 NA
ATOM     25  C   UNL     1       4.624  14.880  18.027  0.00  0.00    +0.000 C 
ATOM     26  C   UNL     1       3.119  16.618  17.367  0.00  0.00    +0.000 C 
ENDBRANCH  23  24
ENDBRANCH  22  23
ENDBRANCH  21  22
ENDBRANCH  19  21
ENDBRANCH   8  13
BRANCH   1  27
ATOM     27  S   UNL     1       5.749   5.325  16.116  0.00  0.00    +0.000 S 
ATOM     28  O   UNL     1       5.507   6.223  15.006  0.00  0.00    +0.000 OA
ATOM     29  O   UNL     1       5.635   3.893  15.974  0.00  0.00    +0.000 OA
BRANCH  27  31
ATOM     30  C   UNL     1       7.499   6.928  17.406  0.00  0.00    +0.000 C 
ATOM     31  N   UNL     1       7.301   5.684  16.666  0.00  0.00    +0.000 NA
ATOM     32  H   UNL     1       7.749   4.848  17.041  0.00  0.00    +0.000 HD
ENDBRANCH  27  31
ENDBRANCH   1  27
TORSDOF 7
ENDMDL
MODEL 2
REMARK VINA RESULT:      -7.6      2.257      3.055
REMARK  Name = 
REMARK  12 active torsions:
REMARK  status: ('A' for Active; 'I' for Inactive)
REMARK    1  A    between atoms: C_1  and  N_2
REMARK    2  A    between atoms: N_2  and  S_3
REMARK    3  A    between atoms: S_3  and  C_6
REMARK    4  A    between atoms: C_13  and  C_14
REMARK    5  A    between atoms: C_16  and  C_17
REMARK    6  A    between atoms: C_18  and  C_19
REMARK    7  A    between atoms: C_20  and  C_21
REMARK    8  A    between atoms: C_21  and  C_22
REMARK    9  A    between atoms: C_22  and  C_23
REMARK   10  A    between atoms: C_23  and  N_24
REMARK   11  A    between atoms: N_24  and  C_25
REMARK   12  A    between atoms: N_24  and  C_26
REMARK                            x       y       z     vdW  Elec       q    Type
REMARK                         _______ _______ _______ _____ _____    ______ ____
ROOT
ATOM      1  C   UNL     1       5.245   5.973  17.613  0.00  0.00    +0.000 A 
ATOM      2  C   UNL     1       5.172   5.081  18.704  0.00  0.00    +0.000 A 
ATOM      3  C   UNL     1       4.170   5.221  19.658  0.00  0.00    +0.000 A 
ATOM      4  C   UNL     1       3.263   6.249  19.480  0.00  0.00    +0.000 A 
ATOM      5  C   UNL     1       3.308   7.148  18.402  0.00  0.00    +0.000 A 
ATOM      6  C   UNL     1       4.306   7.014  17.445  0.00  0.00    +0.000 A 
ATOM      7  C   UNL     1       2.150   8.049  18.590  0.00  0.00    +0.000 C 
ATOM      8  C   UNL     1       1.750   9.046  17.783  0.00  0.00    +0.000 C 
ATOM      9  C   UNL     1       1.463   7.614  19.868  0.00  0.00    +0.000 C 
ATOM     10  O   UNL     1       0.509   8.102  20.445  0.00  0.00    +0.000 OA
ATOM     11  N   UNL     1       2.190   6.526  20.314  0.00  0.00    +0.000 N 
ATOM     12  H   UNL     1       1.943   6.025  21.152  0.00  0.00    +0.000 HD
ENDROOT
BRANCH   8  13
ATOM     13  C   UNL     1       0.544   9.774  17.996  0.00  0.00    +0.000 A 
ATOM     14  N   UNL     1      -0.595   9.385  17.334  0.00  0.00    +0.000 N 
ATOM     15  C   UNL     1      -1.636  10.226  17.646  0.00  0.00    +0.000 A 
ATOM     16  C   UNL     1      -2.979  10.078  17.024  0.00  0.00    +0.000 C 
ATOM     17  C   UNL     1      -1.166  11.170  18.544  0.00  0.00    +0.000 A 
ATOM     18  C   UNL     1      -1.938  12.302  19.132  0.00  0.00    +0.000 C 
ATOM     19  C   UNL     1       0.223  10.877  18.772  0.00  0.00    +0.000 A 
ATOM     20  H   UNL     1      -0.649   8.626  16.672  0.00  0.00    +0.000 HD
BRANCH  19  21
ATOM     21  C   UNL     1       1.152  11.657  19.655  0.00  0.00    +0.000 C 
BRANCH  21  22
ATOM     22  C   UNL     1       0.972  11.349  21.142  0.00  0.00    +0.000 C 
BRANCH  22  23
ATOM     23  C   UNL     1       0.008  12.308  21.854  0.00  0.00    +0.000 C 
BRANCH  23  24
ATOM     24  N   UNL     1      -0.663  11.691  23.017  0.00  0.00    +0.000 NA
ATOM     25  C   UNL     1      -2.083  12.047  23.079  0.00  0.00    +0.000 C 
ATOM     26  C   UNL     1      -0.528  10.233  22.953  0.00  0.00    +0.000 C 
ENDBRANCH  23  24
ENDBRANCH  22  23
ENDBRANCH  21  22
ENDBRANCH  19  21
ENDBRANCH   8  13
BRANCH   1  27
ATOM     27  S   UNL     1       6.478   5.650  16.367  0.00  0.00    +0.000 S 
ATOM     28  O   UNL     1       5.863   5.877  15.076  0.00  0.00    +0.000 OA
ATOM     29  O   UNL     1       7.138   4.406  16.685  0.00  0.00    +0.000 OA
BRANCH  27  31
ATOM     30  C   UNL     1       7.859   7.357  17.940  0.00  0.00    +0.000 C 
ATOM     31  N   UNL     1       7.580   6.907  16.578  0.00  0.00    +0.000 NA
ATOM     32  H   UNL     1       8.381   6.788  15.959  0.00  0.00    +0.000 HD
ENDBRANCH  27  31
ENDBRANCH   1  27
TORSDOF 7
ENDMDL
MODEL 3
REMARK VINA RESULT:      -7.4      1.304      1.524
REMARK  Name = 
REMARK  12 active torsions:
REMARK  status: ('A' for Active; 'I' for Inactive)
REMARK    1  A    between atoms: C_1  and  N_2
REMARK    2  A    between atoms: N_2  and  S_3
REMARK    3  A    between atoms: S_3  and  C_6
REMARK    4  A    between atoms: C_13  and  C_14
REMARK    5  A    between atoms: C_16  and  C_17
REMARK    6  A    between atoms: C_18  and  C_19
REMARK    7  A    between atoms: C_20  and  C_21
REMARK    8  A    between atoms: C_21  and  C_22
REMARK    9  A    between atoms: C_22  and  C_23
REMARK   10  A    between atoms: C_23  and  N_24
REMARK   11  A    between atoms: N_24  and  C_25
REMARK   12  A    between atoms: N_24  and  C_26
REMARK                            x       y       z     vdW  Elec       q    Type
REMARK                         _______ _______ _______ _____ _____    ______ ____
ROOT
ATOM      1  C   UNL     1       5.444   5.478  17.620  0.00  0.00    +0.000 A 
ATOM      2  C   UNL     1       5.291   4.598  18.712  0.00  0.00    +0.000 A 
ATOM      3  C   UNL     1       4.308   4.832  19.668  0.00  0.00    +0.000 A 
ATOM      4  C   UNL     1       3.501   5.940  19.491  0.00  0.00    +0.000 A 
ATOM      5  C   UNL     1       3.626   6.830  18.413  0.00  0.00    +0.000 A 
ATOM      6  C   UNL     1       4.605   6.602  17.453  0.00  0.00    +0.000 A 
ATOM      7  C   UNL     1       2.558   7.834  18.602  0.00  0.00    +0.000 C 
ATOM      8  C   UNL     1       2.250   8.864  17.795  0.00  0.00    +0.000 C 
ATOM      9  C   UNL     1       1.837   7.467  19.882  0.00  0.00    +0.000 C 
ATOM     10  O   UNL     1       0.934   8.042  20.461  0.00  0.00    +0.000 OA
ATOM     11  N   UNL     1       2.460   6.316  20.327  0.00  0.00    +0.000 N 
ATOM     12  H   UNL     1       2.169   5.841  21.167  0.00  0.00    +0.000 HD
ENDROOT
BRANCH   8  13
ATOM     13  C   UNL     1       1.119   9.701  18.010  0.00  0.00    +0.000 A 
ATOM     14  N   UNL     1      -0.117   9.272  17.590  0.00  0.00    +0.000 N 
ATOM     15  C   UNL     1      -1.068  10.228  17.858  0.00  0.00    +0.000 A 
ATOM     16  C   UNL     1      -2.489  10.056  17.455  0.00  0.00    +0.000 C 
ATOM     17  C   UNL     1      -0.438  11.292  18.481  0.00  0.00    +0.000 A 
ATOM     18  C   UNL     1      -1.072  12.567  18.923  0.00  0.00    +0.000 C 
ATOM     19  C   UNL     1       0.956  10.953  18.583  0.00  0.00    +0.000 A 
ATOM     20  H   UNL     1      -0.295   8.405  17.107  0.00  0.00    +0.000 HD
BRANCH  19  21
ATOM     21  C   UNL     1       2.031  11.822  19.166  0.00  0.00    +0.000 C 
BRANCH  21  22
ATOM     22  C   UNL     1       2.597  12.832  18.168  0.00  0.00    +0.000 C 
BRANCH  22  23
ATOM     23  C   UNL     1       2.314  14.293  18.547  0.00  0.00    +0.000 C 
BRANCH  23  24
ATOM     24  N   UNL     1       3.528  15.022  18.970  0.00  0.00    +0.000 NA
ATOM     25  C   UNL     1       4.640  14.812  18.041  0.00  0.00    +0.000 C 
ATOM     26  C   UNL     1       3.238  16.455  19.069  0.00  0.00    +0.000 C 
ENDBRANCH  23  24
ENDBRANCH  22  23
ENDBRANCH  21  22
ENDBRANCH  19  21
ENDBRANCH   8  13
BRANCH   1  27
ATOM     27  S   UNL     1       6.639   5.040  16.371  0.00  0.00    +0.000 S 
ATOM     28  O   UNL     1       7.759   4.414  17.041  0.00  0.00    +0.000 OA
ATOM     29  O   UNL     1       6.815   6.169  15.489  0.00  0.00    +0.000 OA
BRANCH  27  31
ATOM     30  C   UNL     1       5.956   3.826  14.057  0.00  0.00    +0.000 C 
ATOM     31  N   UNL     1       5.869   3.810  15.515  0.00  0.00    +0.000 NA
ATOM     32  H   UNL     1       6.013   2.911  15.975  0.00  0.00    +0.000 HD
ENDBRANCH  27  31
ENDBRANCH   1  27
TORSDOF 7
ENDMDL
MODEL 4
REMARK VINA RESULT:      -7.4      2.363      4.024
REMARK  Name = 
REMARK  12 active torsions:
REMARK  status: ('A' for Active; 'I' for Inactive)
REMARK    1  A    between atoms: C_1  and  N_2
REMARK    2  A    between atoms: N_2  and  S_3
REMARK    3  A    between atoms: S_3  and  C_6
REMARK    4  A    between atoms: C_13  and  C_14
REMARK    5  A    between atoms: C_16  and  C_17
REMARK    6  A    between atoms: C_18  and  C_19
REMARK    7  A    between atoms: C_20  and  C_21
REMARK    8  A    between atoms: C_21  and  C_22
REMARK    9  A    between atoms: C_22  and  C_23
REMARK   10  A    between atoms: C_23  and  N_24
REMARK   11  A    between atoms: N_24  and  C_25
REMARK   12  A    between atoms: N_24  and  C_26
REMARK                            x       y       z     vdW  Elec       q    Type
REMARK                         _______ _______ _______ _____ _____    ______ ____
ROOT
ATOM      1  C   UNL     1       4.181   6.059  17.691  0.00  0.00    +0.000 A 
ATOM      2  C   UNL     1       4.027   5.023  18.636  0.00  0.00    +0.000 A 
ATOM      3  C   UNL     1       3.206   5.202  19.745  0.00  0.00    +0.000 A 
ATOM      4  C   UNL     1       2.555   6.416  19.863  0.00  0.00    +0.000 A 
ATOM      5  C   UNL     1       2.685   7.462  18.936  0.00  0.00    +0.000 A 
ATOM      6  C   UNL     1       3.503   7.290  17.826  0.00  0.00    +0.000 A 
ATOM      7  C   UNL     1       1.805   8.542  19.431  0.00  0.00    +0.000 C 
ATOM      8  C   UNL     1       1.561   9.730  18.852  0.00  0.00    +0.000 C 
ATOM      9  C   UNL     1       1.188   8.044  20.722  0.00  0.00    +0.000 C 
ATOM     10  O   UNL     1       0.452   8.613  21.505  0.00  0.00    +0.000 OA
ATOM     11  N   UNL     1       1.683   6.763  20.884  0.00  0.00    +0.000 N 
ATOM     12  H   UNL     1       1.424   6.185  21.668  0.00  0.00    +0.000 HD
ENDROOT
BRANCH   8  13
ATOM     13  C   UNL     1       0.596  10.649  19.354  0.00  0.00    +0.000 A 
ATOM     14  N   UNL     1       1.006  11.652  20.198  0.00  0.00    +0.000 N 
ATOM     15  C   UNL     1      -0.070  12.409  20.595  0.00  0.00    +0.000 A 
ATOM     16  C   UNL     1       0.073  13.531  21.562  0.00  0.00    +0.000 C 
ATOM     17  C   UNL     1      -1.200  11.897  19.981  0.00  0.00    +0.000 A 
ATOM     18  C   UNL     1      -2.600  12.383  20.145  0.00  0.00    +0.000 C 
ATOM     19  C   UNL     1      -0.774  10.778  19.184  0.00  0.00    +0.000 A 
ATOM     20  H   UNL     1       1.952  11.783  20.524  0.00  0.00    +0.000 HD
BRANCH  19  21
ATOM     21  C   UNL     1      -1.665   9.896  18.361  0.00  0.00    +0.000 C 
BRANCH  21  22
ATOM     22  C   UNL     1      -1.894  10.423  16.944  0.00  0.00    +0.000 C 
BRANCH  22  23
ATOM     23  C   UNL     1      -2.629   9.429  16.032  0.00  0.00    +0.000 C 
BRANCH  23  24
ATOM     24  N   UNL     1      -3.855   9.997  15.435  0.00  0.00    +0.000 NA
ATOM     25  C   UNL     1      -4.229  11.267  16.062  0.00  0.00    +0.000 C 
ATOM     26  C   UNL     1      -3.660  10.201  13.997  0.00  0.00    +0.000 C 
ENDBRANCH  23  24
ENDBRANCH  22  23
ENDBRANCH  21  22
ENDBRANCH  19  21
ENDBRANCH   8  13
BRANCH   1  27
ATOM     27  S   UNL     1       5.148   5.707  16.235  0.00  0.00    +0.000 S 
ATOM     28  O   UNL     1       4.988   6.822  15.326  0.00  0.00    +0.000 OA
ATOM     29  O   UNL     1       4.881   4.349  15.824  0.00  0.00    +0.000 OA
BRANCH  27  31
ATOM     30  C   UNL     1       7.486   4.547  16.930  0.00  0.00    +0.000 C 
ATOM     31  N   UNL     1       6.735   5.793  16.794  0.00  0.00    +0.000 NA
ATOM     32  H   UNL     1       7.222   6.580  16.367  0.00  0.00    +0.000 HD
ENDBRANCH  27  31
ENDBRANCH   1  27
TORSDOF 7
ENDMDL
MODEL 5
REMARK VINA RESULT:      -7.3      3.643      8.729
REMARK  Name = 
REMARK  12 active torsions:
REMARK  status: ('A' for Active; 'I' for Inactive)
REMARK    1  A    between atoms: C_1  and  N_2
REMARK    2  A    between atoms: N_2  and  S_3
REMARK    3  A    between atoms: S_3  and  C_6
REMARK    4  A    between atoms: C_13  and  C_14
REMARK    5  A    between atoms: C_16  and  C_17
REMARK    6  A    between atoms: C_18  and  C_19
REMARK    7  A    between atoms: C_20  and  C_21
REMARK    8  A    between atoms: C_21  and  C_22
REMARK    9  A    between atoms: C_22  and  C_23
REMARK   10  A    between atoms: C_23  and  N_24
REMARK   11  A    between atoms: N_24  and  C_25
REMARK   12  A    between atoms: N_24  and  C_26
REMARK                            x       y       z     vdW  Elec       q    Type
REMARK                         _______ _______ _______ _____ _____    ______ ____
ROOT
ATOM      1  C   UNL     1      -0.139  11.284  19.527  0.00  0.00    +0.000 A 
ATOM      2  C   UNL     1      -0.434  11.068  20.889  0.00  0.00    +0.000 A 
ATOM      3  C   UNL     1       0.041   9.932  21.537  0.00  0.00    +0.000 A 
ATOM      4  C   UNL     1       0.808   9.053  20.797  0.00  0.00    +0.000 A 
ATOM      5  C   UNL     1       1.122   9.244  19.442  0.00  0.00    +0.000 A 
ATOM      6  C   UNL     1       0.652  10.377  18.788  0.00  0.00    +0.000 A 
ATOM      7  C   UNL     1       1.973   8.095  19.067  0.00  0.00    +0.000 C 
ATOM      8  C   UNL     1       2.559   7.863  17.880  0.00  0.00    +0.000 C 
ATOM      9  C   UNL     1       2.095   7.222  20.299  0.00  0.00    +0.000 C 
ATOM     10  O   UNL     1       2.646   6.147  20.441  0.00  0.00    +0.000 OA
ATOM     11  N   UNL     1       1.382   7.886  21.280  0.00  0.00    +0.000 N 
ATOM     12  H   UNL     1       1.305   7.528  22.219  0.00  0.00    +0.000 HD
ENDROOT
BRANCH   8  13
ATOM     13  C   UNL     1       3.463   6.784  17.663  0.00  0.00    +0.000 A 
ATOM     14  N   UNL     1       4.805   7.052  17.546  0.00  0.00    +0.000 N 
ATOM     15  C   UNL     1       5.502   5.891  17.310  0.00  0.00    +0.000 A 
ATOM     16  C   UNL     1       6.972   5.891  17.080  0.00  0.00    +0.000 C 
ATOM     17  C   UNL     1       4.594   4.846  17.292  0.00  0.00    +0.000 A 
ATOM     18  C   UNL     1       4.897   3.408  17.038  0.00  0.00    +0.000 C 
ATOM     19  C   UNL     1       3.294   5.415  17.523  0.00  0.00    +0.000 A 
ATOM     20  H   UNL     1       5.216   7.973  17.574  0.00  0.00    +0.000 HD
BRANCH  19  21
ATOM     21  C   UNL     1       1.999   4.660  17.561  0.00  0.00    +0.000 C 
BRANCH  21  22
ATOM     22  C   UNL     1       2.171   3.182  17.914  0.00  0.00    +0.000 C 
BRANCH  22  23
ATOM     23  C   UNL     1       1.199   2.693  18.996  0.00  0.00    +0.000 C 
BRANCH  23  24
ATOM     24  N   UNL     1       1.881   2.309  20.249  0.00  0.00    +0.000 NA
ATOM     25  C   UNL     1       3.328   2.521  20.169  0.00  0.00    +0.000 C 
ATOM     26  C   UNL     1       1.336   3.081  21.370  0.00  0.00    +0.000 C 
ENDBRANCH  23  24
ENDBRANCH  22  23
ENDBRANCH  21  22
ENDBRANCH  19  21
ENDBRANCH   8  13
BRANCH   1  27
ATOM     27  S   UNL     1      -0.674  12.823  18.803  0.00  0.00    +0.000 S 
ATOM     28  O   UNL     1       0.500  13.489  18.278  0.00  0.00    +0.000 OA
ATOM     29  O   UNL     1      -1.569  13.478  19.726  0.00  0.00    +0.000 OA
BRANCH  27  31
ATOM     30  C   UNL     1      -2.639  11.364  17.661  0.00  0.00    +0.000 C 
ATOM     31  N   UNL     1      -1.561  12.330  17.458  0.00  0.00    +0.000 NA
ATOM     32  H   UNL     1      -1.762  13.124  16.851  0.00  0.00    +0.000 HD
ENDBRANCH  27  31
ENDBRANCH   1  27
TORSDOF 7
ENDMDL
MODEL 6
REMARK VINA RESULT:      -7.3      3.107      5.101
REMARK  Name = 
REMARK  12 active torsions:
REMARK  status: ('A' for Active; 'I' for Inactive)
REMARK    1  A    between atoms: C_1  and  N_2
REMARK    2  A    between atoms: N_2  and  S_3
REMARK    3  A    between atoms: S_3  and  C_6
REMARK    4  A    between atoms: C_13  and  C_14
REMARK    5  A    between atoms: C_16  and  C_17
REMARK    6  A    between atoms: C_18  and  C_19
REMARK    7  A    between atoms: C_20  and  C_21
REMARK    8  A    between atoms: C_21  and  C_22
REMARK    9  A    between atoms: C_22  and  C_23
REMARK   10  A    between atoms: C_23  and  N_24
REMARK   11  A    between atoms: N_24  and  C_25
REMARK   12  A    between atoms: N_24  and  C_26
REMARK                            x       y       z     vdW  Elec       q    Type
REMARK                         _______ _______ _______ _____ _____    ______ ____
ROOT
ATOM      1  C   UNL     1       2.718   4.769  19.713  0.00  0.00    +0.000 A 
ATOM      2  C   UNL     1       3.587   4.713  18.603  0.00  0.00    +0.000 A 
ATOM      3  C   UNL     1       3.769   5.832  17.797  0.00  0.00    +0.000 A 
ATOM      4  C   UNL     1       3.079   6.980  18.140  0.00  0.00    +0.000 A 
ATOM      5  C   UNL     1       2.212   7.067  19.241  0.00  0.00    +0.000 A 
ATOM      6  C   UNL     1       2.026   5.953  20.050  0.00  0.00    +0.000 A 
ATOM      7  C   UNL     1       1.721   8.462  19.249  0.00  0.00    +0.000 C 
ATOM      8  C   UNL     1       0.901   9.036  20.145  0.00  0.00    +0.000 C 
ATOM      9  C   UNL     1       2.350   9.151  18.056  0.00  0.00    +0.000 C 
ATOM     10  O   UNL     1       2.187  10.281  17.633  0.00  0.00    +0.000 OA
ATOM     11  N   UNL     1       3.154   8.192  17.470  0.00  0.00    +0.000 N 
ATOM     12  H   UNL     1       3.707   8.386  16.650  0.00  0.00    +0.000 HD
ENDROOT
BRANCH   8  13
ATOM     13  C   UNL     1       0.590  10.425  20.127  0.00  0.00    +0.000 A 
ATOM     14  N   UNL     1       1.486  11.316  20.665  0.00  0.00    +0.000 N 
ATOM     15  C   UNL     1       0.993  12.597  20.580  0.00  0.00    +0.000 A 
ATOM     16  C   UNL     1       1.729  13.761  21.142  0.00  0.00    +0.000 C 
ATOM     17  C   UNL     1      -0.243  12.536  19.959  0.00  0.00    +0.000 A 
ATOM     18  C   UNL     1      -1.159  13.680  19.684  0.00  0.00    +0.000 C 
ATOM     19  C   UNL     1      -0.497  11.151  19.664  0.00  0.00    +0.000 A 
ATOM     20  H   UNL     1       2.358  11.065  21.107  0.00  0.00    +0.000 HD
BRANCH  19  21
ATOM     21  C   UNL     1      -1.733  10.604  19.014  0.00  0.00    +0.000 C 
BRANCH  21  22
ATOM     22  C   UNL     1      -1.511  10.169  17.565  0.00  0.00    +0.000 C 
BRANCH  22  23
ATOM     23  C   UNL     1      -2.280  11.021  16.546  0.00  0.00    +0.000 C 
BRANCH  23  24
ATOM     24  N   UNL     1      -3.599  10.452  16.200  0.00  0.00    +0.000 NA
ATOM     25  C   UNL     1      -4.698  11.302  16.666  0.00  0.00    +0.000 C 
ATOM     26  C   UNL     1      -3.701  10.276  14.749  0.00  0.00    +0.000 C 
ENDBRANCH  23  24
ENDBRANCH  22  23
ENDBRANCH  21  22
ENDBRANCH  19  21
ENDBRANCH   8  13
BRANCH   1  27
ATOM     27  S   UNL     1       2.637   3.335  20.768  0.00  0.00    +0.000 S 
ATOM     28  O   UNL     1       2.385   3.800  22.116  0.00  0.00    +0.000 OA
ATOM     29  O   UNL     1       3.753   2.473  20.459  0.00  0.00    +0.000 OA
BRANCH  27  31
ATOM     30  C   UNL     1       1.130   2.115  18.888  0.00  0.00    +0.000 C 
ATOM     31  N   UNL     1       1.220   2.571  20.273  0.00  0.00    +0.000 NA
ATOM     32  H   UNL     1       0.891   1.926  20.992  0.00  0.00    +0.000 HD
ENDBRANCH  27  31
ENDBRANCH   1  27
TORSDOF 7
ENDMDL
MODEL 7
REMARK VINA RESULT:      -7.2      1.087      1.417
REMARK  Name = 
REMARK  12 active torsions:
REMARK  status: ('A' for Active; 'I' for Inactive)
REMARK    1  A    between atoms: C_1  and  N_2
REMARK    2  A    between atoms: N_2  and  S_3
REMARK    3  A    between atoms: S_3  and  C_6
REMARK    4  A    between atoms: C_13  and  C_14
REMARK    5  A    between atoms: C_16  and  C_17
REMARK    6  A    between atoms: C_18  and  C_19
REMARK    7  A    between atoms: C_20  and  C_21
REMARK    8  A    between atoms: C_21  and  C_22
REMARK    9  A    between atoms: C_22  and  C_23
REMARK   10  A    between atoms: C_23  and  N_24
REMARK   11  A    between atoms: N_24  and  C_25
REMARK   12  A    between atoms: N_24  and  C_26
REMARK                            x       y       z     vdW  Elec       q    Type
REMARK                         _______ _______ _______ _____ _____    ______ ____
ROOT
ATOM      1  C   UNL     1       4.956   6.143  17.228  0.00  0.00    +0.000 A 
ATOM      2  C   UNL     1       4.936   5.226  18.300  0.00  0.00    +0.000 A 
ATOM      3  C   UNL     1       4.061   5.411  19.365  0.00  0.00    +0.000 A 
ATOM      4  C   UNL     1       3.224   6.509  19.315  0.00  0.00    +0.000 A 
ATOM      5  C   UNL     1       3.217   7.436  18.260  0.00  0.00    +0.000 A 
ATOM      6  C   UNL     1       4.088   7.257  17.192  0.00  0.00    +0.000 A 
ATOM      7  C   UNL     1       2.162   8.414  18.599  0.00  0.00    +0.000 C 
ATOM      8  C   UNL     1       1.752   9.464  17.866  0.00  0.00    +0.000 C 
ATOM      9  C   UNL     1       1.590   7.993  19.937  0.00  0.00    +0.000 C 
ATOM     10  O   UNL     1       0.748   8.533  20.630  0.00  0.00    +0.000 OA
ATOM     11  N   UNL     1       2.275   6.840  20.272  0.00  0.00    +0.000 N 
ATOM     12  H   UNL     1       2.085   6.333  21.122  0.00  0.00    +0.000 HD
ENDROOT
BRANCH   8  13
ATOM     13  C   UNL     1       0.639  10.273  18.231  0.00  0.00    +0.000 A 
ATOM     14  N   UNL     1      -0.624   9.868  17.876  0.00  0.00    +0.000 N 
ATOM     15  C   UNL     1      -1.554  10.793  18.289  0.00  0.00    +0.000 A 
ATOM     16  C   UNL     1      -3.002  10.642  17.984  0.00  0.00    +0.000 C 
ATOM     17  C   UNL     1      -0.879  11.811  18.942  0.00  0.00    +0.000 A 
ATOM     18  C   UNL     1      -1.479  13.043  19.530  0.00  0.00    +0.000 C 
ATOM     19  C   UNL     1       0.519  11.475  18.911  0.00  0.00    +0.000 A 
ATOM     20  H   UNL     1      -0.838   9.040  17.341  0.00  0.00    +0.000 HD
BRANCH  19  21
ATOM     21  C   UNL     1       1.634  12.304  19.476  0.00  0.00    +0.000 C 
BRANCH  21  22
ATOM     22  C   UNL     1       2.350  13.151  18.422  0.00  0.00    +0.000 C 
BRANCH  22  23
ATOM     23  C   UNL     1       3.171  14.303  19.017  0.00  0.00    +0.000 C 
BRANCH  23  24
ATOM     24  N   UNL     1       3.845  15.120  17.987  0.00  0.00    +0.000 NA
ATOM     25  C   UNL     1       3.790  16.549  18.303  0.00  0.00    +0.000 C 
ATOM     26  C   UNL     1       5.244  14.703  17.858  0.00  0.00    +0.000 C 
ENDBRANCH  23  24
ENDBRANCH  22  23
ENDBRANCH  21  22
ENDBRANCH  19  21
ENDBRANCH   8  13
BRANCH   1  27
ATOM     27  S   UNL     1       6.012   5.768  15.842  0.00  0.00    +0.000 S 
ATOM     28  O   UNL     1       7.381   5.955  16.275  0.00  0.00    +0.000 OA
ATOM     29  O   UNL     1       5.488   6.430  14.672  0.00  0.00    +0.000 OA
BRANCH  27  31
ATOM     30  C   UNL     1       6.114   3.526  14.339  0.00  0.00    +0.000 C 
ATOM     31  N   UNL     1       5.816   4.106  15.647  0.00  0.00    +0.000 NA
ATOM     32  H   UNL     1       6.168   3.606  16.463  0.00  0.00    +0.000 HD
ENDBRANCH  27  31
ENDBRANCH   1  27
TORSDOF 7
ENDMDL
MODEL 8
REMARK VINA RESULT:      -7.2      2.397      4.489
REMARK  Name = 
REMARK  12 active torsions:
REMARK  status: ('A' for Active; 'I' for Inactive)
REMARK    1  A    between atoms: C_1  and  N_2
REMARK    2  A    between atoms: N_2  and  S_3
REMARK    3  A    between atoms: S_3  and  C_6
REMARK    4  A    between atoms: C_13  and  C_14
REMARK    5  A    between atoms: C_16  and  C_17
REMARK    6  A    between atoms: C_18  and  C_19
REMARK    7  A    between atoms: C_20  and  C_21
REMARK    8  A    between atoms: C_21  and  C_22
REMARK    9  A    between atoms: C_22  and  C_23
REMARK   10  A    between atoms: C_23  and  N_24
REMARK   11  A    between atoms: N_24  and  C_25
REMARK   12  A    between atoms: N_24  and  C_26
REMARK                            x       y       z     vdW  Elec       q    Type
REMARK                         _______ _______ _______ _____ _____    ______ ____
ROOT
ATOM      1  C   UNL     1       2.710   4.519  18.625  0.00  0.00    +0.000 A 
ATOM      2  C   UNL     1       2.480   4.095  19.951  0.00  0.00    +0.000 A 
ATOM      3  C   UNL     1       2.106   5.013  20.926  0.00  0.00    +0.000 A 
ATOM      4  C   UNL     1       1.964   6.332  20.535  0.00  0.00    +0.000 A 
ATOM      5  C   UNL     1       2.181   6.782  19.223  0.00  0.00    +0.000 A 
ATOM      6  C   UNL     1       2.554   5.870  18.243  0.00  0.00    +0.000 A 
ATOM      7  C   UNL     1       1.891   8.232  19.249  0.00  0.00    +0.000 C 
ATOM      8  C   UNL     1       1.915   9.090  18.215  0.00  0.00    +0.000 C 
ATOM      9  C   UNL     1       1.523   8.577  20.677  0.00  0.00    +0.000 C 
ATOM     10  O   UNL     1       1.269   9.656  21.178  0.00  0.00    +0.000 OA
ATOM     11  N   UNL     1       1.579   7.377  21.361  0.00  0.00    +0.000 N 
ATOM     12  H   UNL     1       1.365   7.311  22.344  0.00  0.00    +0.000 HD
ENDROOT
BRANCH   8  13
ATOM     13  C   UNL     1       1.497  10.446  18.329  0.00  0.00    +0.000 A 
ATOM     14  N   UNL     1       2.425  11.446  18.168  0.00  0.00    +0.000 N 
ATOM     15  C   UNL     1       1.835  12.675  18.345  0.00  0.00    +0.000 A 
ATOM     16  C   UNL     1       2.619  13.938  18.288  0.00  0.00    +0.000 C 
ATOM     17  C   UNL     1       0.491  12.468  18.609  0.00  0.00    +0.000 A 
ATOM     18  C   UNL     1      -0.531  13.514  18.899  0.00  0.00    +0.000 C 
ATOM     19  C   UNL     1       0.275  11.046  18.592  0.00  0.00    +0.000 A 
ATOM     20  H   UNL     1       3.408  11.300  17.998  0.00  0.00    +0.000 HD
BRANCH  19  21
ATOM     21  C   UNL     1      -1.029  10.353  18.856  0.00  0.00    +0.000 C 
BRANCH  21  22
ATOM     22  C   UNL     1      -1.825  10.060  17.584  0.00  0.00    +0.000 C 
BRANCH  22  23
ATOM     23  C   UNL     1      -2.723  11.223  17.141  0.00  0.00    +0.000 C 
BRANCH  23  24
ATOM     24  N   UNL     1      -4.004  10.772  16.559  0.00  0.00    +0.000 NA
ATOM     25  C   UNL     1      -5.077  11.743  16.785  0.00  0.00    +0.000 C 
ATOM     26  C   UNL     1      -3.845  10.547  15.119  0.00  0.00    +0.000 C 
ENDBRANCH  23  24
ENDBRANCH  22  23
ENDBRANCH  21  22
ENDBRANCH  19  21
ENDBRANCH   8  13
BRANCH   1  27
ATOM     27  S   UNL     1       3.059   3.264  17.408  0.00  0.00    +0.000 S 
ATOM     28  O   UNL     1       4.480   3.311  17.130  0.00  0.00    +0.000 OA
ATOM     29  O   UNL     1       2.076   3.358  16.356  0.00  0.00    +0.000 OA
BRANCH  27  31
ATOM     30  C   UNL     1       3.973   1.055  18.666  0.00  0.00    +0.000 C 
ATOM     31  N   UNL     1       2.804   1.827  18.250  0.00  0.00    +0.000 NA
ATOM     32  H   UNL     1       2.061   1.944  18.939  0.00  0.00    +0.000 HD
ENDBRANCH  27  31
ENDBRANCH   1  27
TORSDOF 7
ENDMDL
MODEL 9
REMARK VINA RESULT:      -7.2      3.897      8.756
REMARK  Name = 
REMARK  12 active torsions:
REMARK  status: ('A' for Active; 'I' for Inactive)
REMARK    1  A    between atoms: C_1  and  N_2
REMARK    2  A    between atoms: N_2  and  S_3
REMARK    3  A    between atoms: S_3  and  C_6
REMARK    4  A    between atoms: C_13  and  C_14
REMARK    5  A    between atoms: C_16  and  C_17
REMARK    6  A    between atoms: C_18  and  C_19
REMARK    7  A    between atoms: C_20  and  C_21
REMARK    8  A    between atoms: C_21  and  C_22
REMARK    9  A    between atoms: C_22  and  C_23
REMARK   10  A    between atoms: C_23  and  N_24
REMARK   11  A    between atoms: N_24  and  C_25
REMARK   12  A    between atoms: N_24  and  C_26
REMARK                            x       y       z     vdW  Elec       q    Type
REMARK                         _______ _______ _______ _____ _____    ______ ____
ROOT
ATOM      1  C   UNL     1      -0.554  11.236  19.855  0.00  0.00    +0.000 A 
ATOM      2  C   UNL     1      -0.654  11.079  21.254  0.00  0.00    +0.000 A 
ATOM      3  C   UNL     1      -0.010  10.022  21.888  0.00  0.00    +0.000 A 
ATOM      4  C   UNL     1       0.726   9.160  21.097  0.00  0.00    +0.000 A 
ATOM      5  C   UNL     1       0.848   9.294  19.705  0.00  0.00    +0.000 A 
ATOM      6  C   UNL     1       0.208  10.348  19.064  0.00  0.00    +0.000 A 
ATOM      7  C   UNL     1       1.735   8.191  19.277  0.00  0.00    +0.000 C 
ATOM      8  C   UNL     1       2.182   7.935  18.036  0.00  0.00    +0.000 C 
ATOM      9  C   UNL     1       2.083   7.404  20.523  0.00  0.00    +0.000 C 
ATOM     10  O   UNL     1       2.734   6.383  20.644  0.00  0.00    +0.000 OA
ATOM     11  N   UNL     1       1.449   8.069  21.556  0.00  0.00    +0.000 N 
ATOM     12  H   UNL     1       1.522   7.763  22.513  0.00  0.00    +0.000 HD
ENDROOT
BRANCH   8  13
ATOM     13  C   UNL     1       3.135   6.915  17.754  0.00  0.00    +0.000 A 
ATOM     14  N   UNL     1       4.463   7.253  17.659  0.00  0.00    +0.000 N 
ATOM     15  C   UNL     1       5.215   6.143  17.353  0.00  0.00    +0.000 A 
ATOM     16  C   UNL     1       6.683   6.226  17.128  0.00  0.00    +0.000 C 
ATOM     17  C   UNL     1       4.357   5.059  17.266  0.00  0.00    +0.000 A 
ATOM     18  C   UNL     1       4.726   3.656  16.923  0.00  0.00    +0.000 C 
ATOM     19  C   UNL     1       3.031   5.551  17.528  0.00  0.00    +0.000 A 
ATOM     20  H   UNL     1       4.830   8.188  17.746  0.00  0.00    +0.000 HD
BRANCH  19  21
ATOM     21  C   UNL     1       1.773   4.735  17.514  0.00  0.00    +0.000 C 
BRANCH  21  22
ATOM     22  C   UNL     1       1.398   4.178  18.888  0.00  0.00    +0.000 C 
BRANCH  22  23
ATOM     23  C   UNL     1       2.140   2.882  19.245  0.00  0.00    +0.000 C 
BRANCH  23  24
ATOM     24  N   UNL     1       3.066   3.046  20.385  0.00  0.00    +0.000 NA
ATOM     25  C   UNL     1       2.432   2.690  21.657  0.00  0.00    +0.000 C 
ATOM     26  C   UNL     1       4.256   2.215  20.183  0.00  0.00    +0.000 C 
ENDBRANCH  23  24
ENDBRANCH  22  23
ENDBRANCH  21  22
ENDBRANCH  19  21
ENDBRANCH   8  13
BRANCH   1  27
ATOM     27  S   UNL     1      -1.300  12.686  19.135  0.00  0.00    +0.000 S 
ATOM     28  O   UNL     1      -0.798  12.808  17.782  0.00  0.00    +0.000 OA
ATOM     29  O   UNL     1      -1.203  13.771  20.081  0.00  0.00    +0.000 OA
BRANCH  27  31
ATOM     30  C   UNL     1      -3.275  11.241  17.991  0.00  0.00    +0.000 C 
ATOM     31  N   UNL     1      -2.921  12.252  18.985  0.00  0.00    +0.000 NA
ATOM     32  H   UNL     1      -3.355  12.166  19.904  0.00  0.00    +0.000 HD
ENDBRANCH  27  31
ENDBRANCH   1  27
TORSDOF 7
ENDMDL
