MODEL 1
REMARK VINA RESULT:      -6.1      0.000      0.000
REMARK  Name = 
REMARK  4 active torsions:
REMARK  status: ('A' for Active; 'I' for Inactive)
REMARK    1  A    between atoms: C_1  and  C_2
REMARK    2  A    between atoms: C_2  and  N_3
REMARK    3  A    between atoms: N_3  and  C_4
REMARK    4  A    between atoms: C_4  and  C_5
REMARK                            x       y       z     vdW  Elec       q    Type
REMARK                         _______ _______ _______ _____ _____    ______ ____
ROOT
ATOM      1  N   UNL     1       6.381   5.184  16.220  0.00  0.00    +0.000 N 
ATOM      2  C   UNL     1       5.261   6.005  16.358  0.00  0.00    +0.000 C 
ATOM      3  O   UNL     1       4.850   6.621  15.367  0.00  0.00    +0.000 OA
ATOM      4  N   UNL     1       4.597   6.160  17.573  0.00  0.00    +0.000 N 
ATOM      5  C   UNL     1       4.871   5.649  18.925  0.00  0.00    +0.000 C 
ATOM      6  C   UNL     1       3.818   4.583  19.283  0.00  0.00    +0.000 C 
ATOM      7  N   UNL     1       4.150   3.255  19.353  0.00  0.00    +0.000 N 
ATOM      8  N   UNL     1       2.573   4.876  19.524  0.00  0.00    +0.000 NA
ATOM      9  C   UNL     1       2.198   6.217  19.633  0.00  0.00    +0.000 A 
ATOM     10  C   UNL     1       1.459   6.537  20.781  0.00  0.00    +0.000 A 
ATOM     11  C   UNL     1       1.078   7.848  21.052  0.00  0.00    +0.000 A 
ATOM     12  C   UNL     1       1.418   8.854  20.158  0.00  0.00    +0.000 A 
ATOM     13  C   UNL     1       2.144   8.550  19.004  0.00  0.00    +0.000 A 
ATOM     14  C   UNL     1       2.559   7.232  18.729  0.00  0.00    +0.000 A 
ATOM     15  C   UNL     1       3.355   6.962  17.465  0.00  0.00    +0.000 C 
ATOM     16  H   UNL     1       4.915   2.893  18.812  0.00  0.00    +0.000 HD
ATOM     17  H   UNL     1       3.331   2.654  19.350  0.00  0.00    +0.000 HD
ENDROOT
BRANCH   1  19
ATOM     18  C   UNL     1       6.659   4.202  13.933  0.00  0.00    +0.000 C 
ATOM     19  C   UNL     1       7.098   5.262  14.933  0.00  0.00    +0.000 C 
ENDBRANCH   1  19
BRANCH   1  20
ATOM     20  C   UNL     1       6.936   4.344  17.256  0.00  0.00    +0.000 C 
ATOM     21  C   UNL     1       7.968   4.858  18.242  0.00  0.00    +0.000 C 
ENDBRANCH   1  20
TORSDOF 2
ENDMDL
MODEL 2
REMARK VINA RESULT:      -5.9      2.351      3.375
REMARK  Name = 
REMARK  4 active torsions:
REMARK  status: ('A' for Active; 'I' for Inactive)
REMARK    1  A    between atoms: C_1  and  C_2
REMARK    2  A    between atoms: C_2  and  N_3
REMARK    3  A    between atoms: N_3  and  C_4
REMARK    4  A    between atoms: C_4  and  C_5
REMARK                            x       y       z     vdW  Elec       q    Type
REMARK                         _______ _______ _______ _____ _____    ______ ____
ROOT
ATOM      1  N   UNL     1       6.537   6.727  17.325  0.00  0.00    +0.000 N 
ATOM      2  C   UNL     1       5.214   6.727  17.770  0.00  0.00    +0.000 C 
ATOM      3  O   UNL     1       4.596   7.797  17.800  0.00  0.00    +0.000 OA
ATOM      4  N   UNL     1       4.571   5.563  18.188  0.00  0.00    +0.000 N 
ATOM      5  C   UNL     1       5.036   4.177  18.352  0.00  0.00    +0.000 C 
ATOM      6  C   UNL     1       4.399   3.301  17.256  0.00  0.00    +0.000 C 
ATOM      7  N   UNL     1       5.150   2.807  16.220  0.00  0.00    +0.000 N 
ATOM      8  N   UNL     1       3.135   2.995  17.244  0.00  0.00    +0.000 NA
ATOM      9  C   UNL     1       2.345   3.323  18.348  0.00  0.00    +0.000 A 
ATOM     10  C   UNL     1       1.575   2.269  18.862  0.00  0.00    +0.000 A 
ATOM     11  C   UNL     1       0.793   2.436  20.002  0.00  0.00    +0.000 A 
ATOM     12  C   UNL     1       0.761   3.675  20.628  0.00  0.00    +0.000 A 
ATOM     13  C   UNL     1       1.513   4.737  20.122  0.00  0.00    +0.000 A 
ATOM     14  C   UNL     1       2.328   4.576  18.984  0.00  0.00    +0.000 A 
ATOM     15  C   UNL     1       3.132   5.763  18.485  0.00  0.00    +0.000 C 
ATOM     16  H   UNL     1       5.976   3.291  15.915  0.00  0.00    +0.000 HD
ATOM     17  H   UNL     1       4.573   2.467  15.457  0.00  0.00    +0.000 HD
ENDROOT
BRANCH   1  19
ATOM     18  C   UNL     1       8.235   8.393  18.110  0.00  0.00    +0.000 C 
ATOM     19  C   UNL     1       7.152   8.049  17.097  0.00  0.00    +0.000 C 
ENDBRANCH   1  19
BRANCH   1  20
ATOM     20  C   UNL     1       7.366   5.556  17.159  0.00  0.00    +0.000 C 
ATOM     21  C   UNL     1       7.571   4.901  15.806  0.00  0.00    +0.000 C 
ENDBRANCH   1  20
TORSDOF 2
ENDMDL
MODEL 3
REMARK VINA RESULT:      -5.8      1.684      5.846
REMARK  Name = 
REMARK  4 active torsions:
REMARK  status: ('A' for Active; 'I' for Inactive)
REMARK    1  A    between atoms: C_1  and  C_2
REMARK    2  A    between atoms: C_2  and  N_3
REMARK    3  A    between atoms: N_3  and  C_4
REMARK    4  A    between atoms: C_4  and  C_5
REMARK                            x       y       z     vdW  Elec       q    Type
REMARK                         _______ _______ _______ _____ _____    ______ ____
ROOT
ATOM      1  N   UNL     1       1.899   6.224  20.248  0.00  0.00    +0.000 N 
ATOM      2  C   UNL     1       2.666   6.694  19.181  0.00  0.00    +0.000 C 
ATOM      3  O   UNL     1       2.611   7.896  18.894  0.00  0.00    +0.000 OA
ATOM      4  N   UNL     1       3.482   5.855  18.425  0.00  0.00    +0.000 N 
ATOM      5  C   UNL     1       3.704   4.401  18.450  0.00  0.00    +0.000 C 
ATOM      6  C   UNL     1       5.113   4.116  19.005  0.00  0.00    +0.000 C 
ATOM      7  N   UNL     1       5.286   3.570  20.251  0.00  0.00    +0.000 N 
ATOM      8  N   UNL     1       6.199   4.384  18.341  0.00  0.00    +0.000 NA
ATOM      9  C   UNL     1       6.099   4.787  17.008  0.00  0.00    +0.000 A 
ATOM     10  C   UNL     1       6.913   4.079  16.111  0.00  0.00    +0.000 A 
ATOM     11  C   UNL     1       6.865   4.329  14.742  0.00  0.00    +0.000 A 
ATOM     12  C   UNL     1       6.011   5.312  14.260  0.00  0.00    +0.000 A 
ATOM     13  C   UNL     1       5.203   6.033  15.141  0.00  0.00    +0.000 A 
ATOM     14  C   UNL     1       5.222   5.774  16.526  0.00  0.00    +0.000 A 
ATOM     15  C   UNL     1       4.314   6.582  17.436  0.00  0.00    +0.000 C 
ATOM     16  H   UNL     1       4.595   3.708  20.967  0.00  0.00    +0.000 HD
ATOM     17  H   UNL     1       6.241   3.667  20.583  0.00  0.00    +0.000 HD
ENDROOT
BRANCH   1  19
ATOM     18  C   UNL     1       1.601   8.279  21.647  0.00  0.00    +0.000 C 
ATOM     19  C   UNL     1       0.937   7.176  20.835  0.00  0.00    +0.000 C 
ENDBRANCH   1  19
BRANCH   1  20
ATOM     20  C   UNL     1       1.909   4.871  20.755  0.00  0.00    +0.000 C 
ATOM     21  C   UNL     1       0.858   3.853  20.354  0.00  0.00    +0.000 C 
ENDBRANCH   1  20
TORSDOF 2
ENDMDL
MODEL 4
REMARK VINA RESULT:      -5.8      2.900      6.306
REMARK  Name = 
REMARK  4 active torsions:
REMARK  status: ('A' for Active; 'I' for Inactive)
REMARK    1  A    between atoms: C_1  and  C_2
REMARK    2  A    between atoms: C_2  and  N_3
REMARK    3  A    between atoms: N_3  and  C_4
REMARK    4  A    between atoms: C_4  and  C_5
REMARK                            x       y       z     vdW  Elec       q    Type
REMARK                         _______ _______ _______ _____ _____    ______ ____
ROOT
ATOM      1  N   UNL     1       3.191   3.163  18.763  0.00  0.00    +0.000 N 
ATOM      2  C   UNL     1       3.247   3.411  17.391  0.00  0.00    +0.000 C 
ATOM      3  O   UNL     1       2.197   3.380  16.737  0.00  0.00    +0.000 OA
ATOM      4  N   UNL     1       4.445   3.684  16.733  0.00  0.00    +0.000 N 
ATOM      5  C   UNL     1       5.843   3.711  17.189  0.00  0.00    +0.000 C 
ATOM      6  C   UNL     1       6.335   5.172  17.215  0.00  0.00    +0.000 C 
ATOM      7  N   UNL     1       6.552   5.824  18.401  0.00  0.00    +0.000 N 
ATOM      8  N   UNL     1       6.556   5.860  16.133  0.00  0.00    +0.000 NA
ATOM      9  C   UNL     1       6.514   5.214  14.895  0.00  0.00    +0.000 A 
ATOM     10  C   UNL     1       7.628   5.435  14.072  0.00  0.00    +0.000 A 
ATOM     11  C   UNL     1       7.750   4.800  12.839  0.00  0.00    +0.000 A 
ATOM     12  C   UNL     1       6.742   3.948  12.409  0.00  0.00    +0.000 A 
ATOM     13  C   UNL     1       5.622   3.726  13.213  0.00  0.00    +0.000 A 
ATOM     14  C   UNL     1       5.495   4.342  14.474  0.00  0.00    +0.000 A 
ATOM     15  C   UNL     1       4.260   4.055  15.309  0.00  0.00    +0.000 C 
ATOM     16  H   UNL     1       6.047   5.559  19.228  0.00  0.00    +0.000 HD
ATOM     17  H   UNL     1       6.629   6.829  18.277  0.00  0.00    +0.000 HD
ENDROOT
BRANCH   1  19
ATOM     18  C   UNL     1       1.186   3.742  20.149  0.00  0.00    +0.000 C 
ATOM     19  C   UNL     1       1.894   2.700  19.293  0.00  0.00    +0.000 C 
ENDBRANCH   1  19
BRANCH   1  20
ATOM     20  C   UNL     1       4.309   3.237  19.674  0.00  0.00    +0.000 C 
ATOM     21  C   UNL     1       4.790   2.029  20.456  0.00  0.00    +0.000 C 
ENDBRANCH   1  20
TORSDOF 2
ENDMDL
MODEL 5
REMARK VINA RESULT:      -5.8      2.273      6.166
REMARK  Name = 
REMARK  4 active torsions:
REMARK  status: ('A' for Active; 'I' for Inactive)
REMARK    1  A    between atoms: C_1  and  C_2
REMARK    2  A    between atoms: C_2  and  N_3
REMARK    3  A    between atoms: N_3  and  C_4
REMARK    4  A    between atoms: C_4  and  C_5
REMARK                            x       y       z     vdW  Elec       q    Type
REMARK                         _______ _______ _______ _____ _____    ______ ____
ROOT
ATOM      1  N   UNL     1       1.909   3.920  20.070  0.00  0.00    +0.000 N 
ATOM      2  C   UNL     1       2.427   3.522  18.837  0.00  0.00    +0.000 C 
ATOM      3  O   UNL     1       1.948   2.525  18.285  0.00  0.00    +0.000 OA
ATOM      4  N   UNL     1       3.469   4.205  18.213  0.00  0.00    +0.000 N 
ATOM      5  C   UNL     1       4.296   5.348  18.629  0.00  0.00    +0.000 C 
ATOM      6  C   UNL     1       3.914   6.579  17.784  0.00  0.00    +0.000 C 
ATOM      7  N   UNL     1       3.227   7.630  18.334  0.00  0.00    +0.000 N 
ATOM      8  N   UNL     1       4.206   6.683  16.521  0.00  0.00    +0.000 NA
ATOM      9  C   UNL     1       5.043   5.731  15.934  0.00  0.00    +0.000 A 
ATOM     10  C   UNL     1       6.121   6.255  15.206  0.00  0.00    +0.000 A 
ATOM     11  C   UNL     1       7.073   5.421  14.625  0.00  0.00    +0.000 A 
ATOM     12  C   UNL     1       6.940   4.045  14.753  0.00  0.00    +0.000 A 
ATOM     13  C   UNL     1       5.866   3.508  15.466  0.00  0.00    +0.000 A 
ATOM     14  C   UNL     1       4.908   4.339  16.080  0.00  0.00    +0.000 A 
ATOM     15  C   UNL     1       3.768   3.699  16.851  0.00  0.00    +0.000 C 
ATOM     16  H   UNL     1       2.623   7.485  19.124  0.00  0.00    +0.000 HD
ATOM     17  H   UNL     1       2.832   8.242  17.627  0.00  0.00    +0.000 HD
ENDROOT
BRANCH   1  19
ATOM     18  C   UNL     1       1.434   2.434  22.030  0.00  0.00    +0.000 C 
ATOM     19  C   UNL     1       0.945   3.001  20.705  0.00  0.00    +0.000 C 
ENDBRANCH   1  19
BRANCH   1  20
ATOM     20  C   UNL     1       2.304   5.101  20.804  0.00  0.00    +0.000 C 
ATOM     21  C   UNL     1       1.422   6.332  20.881  0.00  0.00    +0.000 C 
ENDBRANCH   1  20
TORSDOF 2
ENDMDL
MODEL 6
REMARK VINA RESULT:      -5.7      2.123      3.557
REMARK  Name = 
REMARK  4 active torsions:
REMARK  status: ('A' for Active; 'I' for Inactive)
REMARK    1  A    between atoms: C_1  and  C_2
REMARK    2  A    between atoms: C_2  and  N_3
REMARK    3  A    between atoms: N_3  and  C_4
REMARK    4  A    between atoms: C_4  and  C_5
REMARK                            x       y       z     vdW  Elec       q    Type
REMARK                         _______ _______ _______ _____ _____    ______ ____
ROOT
ATOM      1  N   UNL     1       6.194   5.089  16.047  0.00  0.00    +0.000 N 
ATOM      2  C   UNL     1       6.058   4.509  17.308  0.00  0.00    +0.000 C 
ATOM      3  O   UNL     1       7.071   4.092  17.883  0.00  0.00    +0.000 OA
ATOM      4  N   UNL     1       4.822   4.375  17.937  0.00  0.00    +0.000 N 
ATOM      5  C   UNL     1       3.450   4.682  17.501  0.00  0.00    +0.000 C 
ATOM      6  C   UNL     1       2.934   5.902  18.289  0.00  0.00    +0.000 C 
ATOM      7  N   UNL     1       2.770   7.120  17.679  0.00  0.00    +0.000 N 
ATOM      8  N   UNL     1       2.642   5.851  19.555  0.00  0.00    +0.000 NA
ATOM      9  C   UNL     1       2.627   4.612  20.201  0.00  0.00    +0.000 A 
ATOM     10  C   UNL     1       1.466   4.341  20.940  0.00  0.00    +0.000 A 
ATOM     11  C   UNL     1       1.288   3.117  21.579  0.00  0.00    +0.000 A 
ATOM     12  C   UNL     1       2.287   2.156  21.499  0.00  0.00    +0.000 A 
ATOM     13  C   UNL     1       3.453   2.416  20.776  0.00  0.00    +0.000 A 
ATOM     14  C   UNL     1       3.637   3.640  20.104  0.00  0.00    +0.000 A 
ATOM     15  C   UNL     1       4.921   3.862  19.324  0.00  0.00    +0.000 C 
ATOM     16  H   UNL     1       3.324   7.366  16.879  0.00  0.00    +0.000 HD
ATOM     17  H   UNL     1       2.668   7.874  18.352  0.00  0.00    +0.000 HD
ENDROOT
BRANCH   1  19
ATOM     18  C   UNL     1       7.474   4.936  13.899  0.00  0.00    +0.000 C 
ATOM     19  C   UNL     1       7.526   4.992  15.419  0.00  0.00    +0.000 C 
ENDBRANCH   1  19
BRANCH   1  20
ATOM     20  C   UNL     1       5.126   5.690  15.281  0.00  0.00    +0.000 C 
ATOM     21  C   UNL     1       4.910   7.191  15.242  0.00  0.00    +0.000 C 
ENDBRANCH   1  20
TORSDOF 2
ENDMDL
MODEL 7
REMARK VINA RESULT:      -5.6      2.399      3.906
REMARK  Name = 
REMARK  4 active torsions:
REMARK  status: ('A' for Active; 'I' for Inactive)
REMARK    1  A    between atoms: C_1  and  C_2
REMARK    2  A    between atoms: C_2  and  N_3
REMARK    3  A    between atoms: N_3  and  C_4
REMARK    4  A    between atoms: C_4  and  C_5
REMARK                            x       y       z     vdW  Elec       q    Type
REMARK                         _______ _______ _______ _____ _____    ______ ____
ROOT
ATOM      1  N   UNL     1       6.384   6.752  17.517  0.00  0.00    +0.000 N 
ATOM      2  C   UNL     1       6.034   5.925  18.584  0.00  0.00    +0.000 C 
ATOM      3  O   UNL     1       6.901   5.628  19.416  0.00  0.00    +0.000 OA
ATOM      4  N   UNL     1       4.747   5.416  18.740  0.00  0.00    +0.000 N 
ATOM      5  C   UNL     1       3.538   5.505  17.906  0.00  0.00    +0.000 C 
ATOM      6  C   UNL     1       2.510   6.414  18.606  0.00  0.00    +0.000 C 
ATOM      7  N   UNL     1       2.223   7.664  18.119  0.00  0.00    +0.000 N 
ATOM      8  N   UNL     1       1.876   6.061  19.685  0.00  0.00    +0.000 NA
ATOM      9  C   UNL     1       1.994   4.747  20.144  0.00  0.00    +0.000 A 
ATOM     10  C   UNL     1       0.778   4.100  20.413  0.00  0.00    +0.000 A 
ATOM     11  C   UNL     1       0.743   2.766  20.811  0.00  0.00    +0.000 A 
ATOM     12  C   UNL     1       1.935   2.071  20.964  0.00  0.00    +0.000 A 
ATOM     13  C   UNL     1       3.154   2.704  20.710  0.00  0.00    +0.000 A 
ATOM     14  C   UNL     1       3.204   4.046  20.283  0.00  0.00    +0.000 A 
ATOM     15  C   UNL     1       4.557   4.679  20.012  0.00  0.00    +0.000 C 
ATOM     16  H   UNL     1       2.906   8.171  17.585  0.00  0.00    +0.000 HD
ATOM     17  H   UNL     1       1.731   8.236  18.799  0.00  0.00    +0.000 HD
ENDROOT
BRANCH   1  19
ATOM     18  C   UNL     1       8.174   8.489  17.758  0.00  0.00    +0.000 C 
ATOM     19  C   UNL     1       7.820   7.060  17.368  0.00  0.00    +0.000 C 
ENDBRANCH   1  19
BRANCH   1  20
ATOM     20  C   UNL     1       5.476   7.250  16.509  0.00  0.00    +0.000 C 
ATOM     21  C   UNL     1       5.278   6.540  15.184  0.00  0.00    +0.000 C 
ENDBRANCH   1  20
TORSDOF 2
ENDMDL
MODEL 8
REMARK VINA RESULT:      -5.6      7.067      9.411
REMARK  Name = 
REMARK  4 active torsions:
REMARK  status: ('A' for Active; 'I' for Inactive)
REMARK    1  A    between atoms: C_1  and  C_2
REMARK    2  A    between atoms: C_2  and  N_3
REMARK    3  A    between atoms: N_3  and  C_4
REMARK    4  A    between atoms: C_4  and  C_5
REMARK                            x       y       z     vdW  Elec       q    Type
REMARK                         _______ _______ _______ _____ _____    ______ ____
ROOT
ATOM      1  N   UNL     1       1.300  16.243  18.626  0.00  0.00    +0.000 N 
ATOM      2  C   UNL     1       0.375  15.454  19.310  0.00  0.00    +0.000 C 
ATOM      3  O   UNL     1      -0.759  15.906  19.510  0.00  0.00    +0.000 OA
ATOM      4  N   UNL     1       0.688  14.181  19.782  0.00  0.00    +0.000 N 
ATOM      5  C   UNL     1       1.937  13.404  19.786  0.00  0.00    +0.000 C 
ATOM      6  C   UNL     1       1.807  12.239  18.786  0.00  0.00    +0.000 C 
ATOM      7  N   UNL     1       2.502  12.240  17.603  0.00  0.00    +0.000 N 
ATOM      8  N   UNL     1       1.036  11.213  18.996  0.00  0.00    +0.000 NA
ATOM      9  C   UNL     1       0.426  11.064  20.244  0.00  0.00    +0.000 A 
ATOM     10  C   UNL     1       0.592   9.805  20.839  0.00  0.00    +0.000 A 
ATOM     11  C   UNL     1       0.096   9.538  22.113  0.00  0.00    +0.000 A 
ATOM     12  C   UNL     1      -0.592  10.531  22.796  0.00  0.00    +0.000 A 
ATOM     13  C   UNL     1      -0.775  11.787  22.212  0.00  0.00    +0.000 A 
ATOM     14  C   UNL     1      -0.258  12.079  20.934  0.00  0.00    +0.000 A 
ATOM     15  C   UNL     1      -0.478  13.465  20.354  0.00  0.00    +0.000 C 
ATOM     16  H   UNL     1       2.773  13.107  17.174  0.00  0.00    +0.000 HD
ATOM     17  H   UNL     1       2.141  11.555  16.946  0.00  0.00    +0.000 HD
ENDROOT
BRANCH   1  19
ATOM     18  C   UNL     1       1.183  18.077  16.924  0.00  0.00    +0.000 C 
ATOM     19  C   UNL     1       0.900  17.637  18.353  0.00  0.00    +0.000 C 
ENDBRANCH   1  19
BRANCH   1  20
ATOM     20  C   UNL     1       2.633  15.834  18.247  0.00  0.00    +0.000 C 
ATOM     21  C   UNL     1       3.871  16.458  18.864  0.00  0.00    +0.000 C 
ENDBRANCH   1  20
TORSDOF 2
ENDMDL
MODEL 9
REMARK VINA RESULT:      -5.5      8.953     11.023
REMARK  Name = 
REMARK  4 active torsions:
REMARK  status: ('A' for Active; 'I' for Inactive)
REMARK    1  A    between atoms: C_1  and  C_2
REMARK    2  A    between atoms: C_2  and  N_3
REMARK    3  A    between atoms: N_3  and  C_4
REMARK    4  A    between atoms: C_4  and  C_5
REMARK                            x       y       z     vdW  Elec       q    Type
REMARK                         _______ _______ _______ _____ _____    ______ ____
ROOT
ATOM      1  N   UNL     1       7.986  13.107  24.377  0.00  0.00    +0.000 N 
ATOM      2  C   UNL     1       8.362  12.266  23.329  0.00  0.00    +0.000 C 
ATOM      3  O   UNL     1       8.218  11.045  23.465  0.00  0.00    +0.000 OA
ATOM      4  N   UNL     1       8.903  12.754  22.141  0.00  0.00    +0.000 N 
ATOM      5  C   UNL     1       9.275  14.109  21.703  0.00  0.00    +0.000 C 
ATOM      6  C   UNL     1       8.278  14.581  20.627  0.00  0.00    +0.000 C 
ATOM      7  N   UNL     1       7.355  15.559  20.898  0.00  0.00    +0.000 N 
ATOM      8  N   UNL     1       8.246  14.080  19.428  0.00  0.00    +0.000 NA
ATOM      9  C   UNL     1       9.257  13.200  19.030  0.00  0.00    +0.000 A 
ATOM     10  C   UNL     1       9.871  13.514  17.809  0.00  0.00    +0.000 A 
ATOM     11  C   UNL     1      10.939  12.763  17.325  0.00  0.00    +0.000 A 
ATOM     12  C   UNL     1      11.389  11.672  18.056  0.00  0.00    +0.000 A 
ATOM     13  C   UNL     1      10.781  11.341  19.269  0.00  0.00    +0.000 A 
ATOM     14  C   UNL     1       9.716  12.106  19.783  0.00  0.00    +0.000 A 
ATOM     15  C   UNL     1       9.100  11.705  21.112  0.00  0.00    +0.000 C 
ATOM     16  H   UNL     1       7.028  15.704  21.836  0.00  0.00    +0.000 HD
ATOM     17  H   UNL     1       6.618  15.594  20.200  0.00  0.00    +0.000 HD
ENDROOT
BRANCH   1  19
ATOM     18  C   UNL     1       6.126  12.552  25.960  0.00  0.00    +0.000 C 
ATOM     19  C   UNL     1       7.611  12.450  25.644  0.00  0.00    +0.000 C 
ENDBRANCH   1  19
BRANCH   1  20
ATOM     20  C   UNL     1       8.020  14.551  24.346  0.00  0.00    +0.000 C 
ATOM     21  C   UNL     1       8.950  15.353  25.236  0.00  0.00    +0.000 C 
ENDBRANCH   1  20
TORSDOF 2
ENDMDL
