MODEL 1
REMARK VINA RESULT:      -6.8      0.000      0.000
REMARK  Name = 
REMARK  4 active torsions:
REMARK  status: ('A' for Active; 'I' for Inactive)
REMARK    1  A    between atoms: O_1  and  C_2
REMARK    2  A    between atoms: C_2  and  C_3
REMARK    3  A    between atoms: C_2  and  C_9
REMARK    4  A    between atoms: C_3  and  N_4
REMARK                            x       y       z     vdW  Elec       q    Type
REMARK                         _______ _______ _______ _____ _____    ______ ____
ROOT
ATOM      1  C   UNL     1       3.332   4.741  17.662  0.00  0.00    +0.000 C 
ENDROOT
BRANCH   1   2
ATOM      2  C   UNL     1       2.655   4.149  18.887  0.00  0.00    +0.000 A 
ATOM      3  C   UNL     1       2.685   4.841  20.113  0.00  0.00    +0.000 A 
ATOM      4  C   UNL     1       2.109   4.293  21.263  0.00  0.00    +0.000 A 
ATOM      5  C   UNL     1       1.485   3.056  21.195  0.00  0.00    +0.000 A 
ATOM      6  F   UNL     1       0.954   2.522  22.303  0.00  0.00    +0.000 F 
ATOM      7  C   UNL     1       1.399   2.369  19.996  0.00  0.00    +0.000 A 
ATOM      8  C   UNL     1       1.965   2.927  18.853  0.00  0.00    +0.000 A 
ATOM      9  F   UNL     1       1.842   2.252  17.705  0.00  0.00    +0.000 F 
ENDBRANCH   1   2
BRANCH   1  10
ATOM     10  O   UNL     1       3.985   5.967  18.037  0.00  0.00    +0.000 OA
ATOM     11  H   UNL     1       3.793   6.145  18.974  0.00  0.00    +0.000 HD
ENDBRANCH   1  10
BRANCH   1  12
ATOM     12  C   UNL     1       4.331   3.862  16.888  0.00  0.00    +0.000 C 
BRANCH  12  13
ATOM     13  N   UNL     1       5.732   4.216  16.980  0.00  0.00    +0.000 N 
ATOM     14  C   UNL     1       6.654   4.438  16.006  0.00  0.00    +0.000 A 
ATOM     15  N   UNL     1       7.815   4.723  16.551  0.00  0.00    +0.000 NA
ATOM     16  C   UNL     1       7.553   4.641  17.886  0.00  0.00    +0.000 A 
ATOM     17  N   UNL     1       6.296   4.319  18.201  0.00  0.00    +0.000 NA
ENDBRANCH  12  13
ENDBRANCH   1  12
TORSDOF 4
ENDMDL
MODEL 2
REMARK VINA RESULT:      -6.6      2.031      2.835
REMARK  Name = 
REMARK  4 active torsions:
REMARK  status: ('A' for Active; 'I' for Inactive)
REMARK    1  A    between atoms: O_1  and  C_2
REMARK    2  A    between atoms: C_2  and  C_3
REMARK    3  A    between atoms: C_2  and  C_9
REMARK    4  A    between atoms: C_3  and  N_4
REMARK                            x       y       z     vdW  Elec       q    Type
REMARK                         _______ _______ _______ _____ _____    ______ ____
ROOT
ATOM      1  C   UNL     1       5.118   4.954  18.211  0.00  0.00    +0.000 C 
ENDROOT
BRANCH   1   2
ATOM      2  C   UNL     1       3.812   4.192  18.357  0.00  0.00    +0.000 A 
ATOM      3  C   UNL     1       3.657   2.934  17.744  0.00  0.00    +0.000 A 
ATOM      4  C   UNL     1       2.448   2.238  17.827  0.00  0.00    +0.000 A 
ATOM      5  C   UNL     1       1.388   2.785  18.535  0.00  0.00    +0.000 A 
ATOM      6  F   UNL     1       0.222   2.127  18.593  0.00  0.00    +0.000 F 
ATOM      7  C   UNL     1       1.521   4.000  19.185  0.00  0.00    +0.000 A 
ATOM      8  C   UNL     1       2.732   4.681  19.108  0.00  0.00    +0.000 A 
ATOM      9  F   UNL     1       2.837   5.839  19.770  0.00  0.00    +0.000 F 
ENDBRANCH   1   2
BRANCH   1  10
ATOM     10  O   UNL     1       6.211   4.019  18.252  0.00  0.00    +0.000 OA
ATOM     11  H   UNL     1       5.846   3.120  18.321  0.00  0.00    +0.000 HD
ENDBRANCH   1  10
BRANCH   1  12
ATOM     12  C   UNL     1       5.294   5.869  16.985  0.00  0.00    +0.000 C 
BRANCH  12  13
ATOM     13  N   UNL     1       5.872   5.278  15.796  0.00  0.00    +0.000 N 
ATOM     14  C   UNL     1       5.313   4.494  14.837  0.00  0.00    +0.000 A 
ATOM     15  N   UNL     1       6.219   4.175  13.942  0.00  0.00    +0.000 NA
ATOM     16  C   UNL     1       7.344   4.781  14.417  0.00  0.00    +0.000 A 
ATOM     17  N   UNL     1       7.188   5.457  15.558  0.00  0.00    +0.000 NA
ENDBRANCH  12  13
ENDBRANCH   1  12
TORSDOF 4
ENDMDL
MODEL 3
REMARK VINA RESULT:      -6.5      1.663      2.006
REMARK  Name = 
REMARK  4 active torsions:
REMARK  status: ('A' for Active; 'I' for Inactive)
REMARK    1  A    between atoms: O_1  and  C_2
REMARK    2  A    between atoms: C_2  and  C_3
REMARK    3  A    between atoms: C_2  and  C_9
REMARK    4  A    between atoms: C_3  and  N_4
REMARK                            x       y       z     vdW  Elec       q    Type
REMARK                         _______ _______ _______ _____ _____    ______ ____
ROOT
ATOM      1  C   UNL     1       3.402   3.512  17.630  0.00  0.00    +0.000 C 
ENDROOT
BRANCH   1   2
ATOM      2  C   UNL     1       2.732   3.210  18.960  0.00  0.00    +0.000 A 
ATOM      3  C   UNL     1       1.345   3.402  19.110  0.00  0.00    +0.000 A 
ATOM      4  C   UNL     1       0.717   3.175  20.338  0.00  0.00    +0.000 A 
ATOM      5  C   UNL     1       1.466   2.741  21.422  0.00  0.00    +0.000 A 
ATOM      6  F   UNL     1       0.865   2.546  22.604  0.00  0.00    +0.000 F 
ATOM      7  C   UNL     1       2.823   2.501  21.297  0.00  0.00    +0.000 A 
ATOM      8  C   UNL     1       3.439   2.718  20.068  0.00  0.00    +0.000 A 
ATOM      9  F   UNL     1       4.747   2.452  19.972  0.00  0.00    +0.000 F 
ENDBRANCH   1   2
BRANCH   1  10
ATOM     10  O   UNL     1       2.423   3.411  16.581  0.00  0.00    +0.000 OA
ATOM     11  H   UNL     1       1.540   3.364  16.986  0.00  0.00    +0.000 HD
ENDBRANCH   1  10
BRANCH   1  12
ATOM     12  C   UNL     1       4.154   4.847  17.480  0.00  0.00    +0.000 C 
BRANCH  12  13
ATOM     13  N   UNL     1       5.543   4.873  17.890  0.00  0.00    +0.000 N 
ATOM     14  C   UNL     1       6.115   5.296  19.048  0.00  0.00    +0.000 A 
ATOM     15  N   UNL     1       7.418   5.146  18.979  0.00  0.00    +0.000 NA
ATOM     16  C   UNL     1       7.601   4.637  17.727  0.00  0.00    +0.000 A 
ATOM     17  N   UNL     1       6.485   4.466  17.014  0.00  0.00    +0.000 NA
ENDBRANCH  12  13
ENDBRANCH   1  12
TORSDOF 4
ENDMDL
MODEL 4
REMARK VINA RESULT:      -6.5      3.619      6.124
REMARK  Name = 
REMARK  4 active torsions:
REMARK  status: ('A' for Active; 'I' for Inactive)
REMARK    1  A    between atoms: O_1  and  C_2
REMARK    2  A    between atoms: C_2  and  C_3
REMARK    3  A    between atoms: C_2  and  C_9
REMARK    4  A    between atoms: C_3  and  N_4
REMARK                            x       y       z     vdW  Elec       q    Type
REMARK                         _______ _______ _______ _____ _____    ______ ____
ROOT
ATOM      1  C   UNL     1       5.086   4.190  19.235  0.00  0.00    +0.000 C 
ENDROOT
BRANCH   1   2
ATOM      2  C   UNL     1       5.613   4.366  17.821  0.00  0.00    +0.000 A 
ATOM      3  C   UNL     1       4.754   4.180  16.720  0.00  0.00    +0.000 A 
ATOM      4  C   UNL     1       5.230   4.291  15.410  0.00  0.00    +0.000 A 
ATOM      5  C   UNL     1       6.563   4.603  15.188  0.00  0.00    +0.000 A 
ATOM      6  F   UNL     1       7.022   4.686  13.932  0.00  0.00    +0.000 F 
ATOM      7  C   UNL     1       7.423   4.835  16.248  0.00  0.00    +0.000 A 
ATOM      8  C   UNL     1       6.939   4.734  17.549  0.00  0.00    +0.000 A 
ATOM      9  F   UNL     1       7.789   4.991  18.550  0.00  0.00    +0.000 F 
ENDBRANCH   1   2
BRANCH   1  10
ATOM     10  O   UNL     1       4.226   5.298  19.554  0.00  0.00    +0.000 OA
ATOM     11  H   UNL     1       3.328   4.957  19.711  0.00  0.00    +0.000 HD
ENDBRANCH   1  10
BRANCH   1  12
ATOM     12  C   UNL     1       4.356   2.879  19.582  0.00  0.00    +0.000 C 
BRANCH  12  13
ATOM     13  N   UNL     1       3.014   2.990  20.114  0.00  0.00    +0.000 N 
ATOM     14  C   UNL     1       2.539   2.769  21.368  0.00  0.00    +0.000 A 
ATOM     15  N   UNL     1       1.244   2.982  21.396  0.00  0.00    +0.000 NA
ATOM     16  C   UNL     1       0.962   3.317  20.105  0.00  0.00    +0.000 A 
ATOM     17  N   UNL     1       2.010   3.321  19.276  0.00  0.00    +0.000 NA
ENDBRANCH  12  13
ENDBRANCH   1  12
TORSDOF 4
ENDMDL
MODEL 5
REMARK VINA RESULT:      -6.5      1.670      2.074
REMARK  Name = 
REMARK  4 active torsions:
REMARK  status: ('A' for Active; 'I' for Inactive)
REMARK    1  A    between atoms: O_1  and  C_2
REMARK    2  A    between atoms: C_2  and  C_3
REMARK    3  A    between atoms: C_2  and  C_9
REMARK    4  A    between atoms: C_3  and  N_4
REMARK                            x       y       z     vdW  Elec       q    Type
REMARK                         _______ _______ _______ _____ _____    ______ ____
ROOT
ATOM      1  C   UNL     1       3.485   3.414  17.544  0.00  0.00    +0.000 C 
ENDROOT
BRANCH   1   2
ATOM      2  C   UNL     1       2.789   3.151  18.869  0.00  0.00    +0.000 A 
ATOM      3  C   UNL     1       1.390   3.283  18.969  0.00  0.00    +0.000 A 
ATOM      4  C   UNL     1       0.735   3.092  20.188  0.00  0.00    +0.000 A 
ATOM      5  C   UNL     1       1.469   2.754  21.316  0.00  0.00    +0.000 A 
ATOM      6  F   UNL     1       0.842   2.594  22.489  0.00  0.00    +0.000 F 
ATOM      7  C   UNL     1       2.840   2.573  21.243  0.00  0.00    +0.000 A 
ATOM      8  C   UNL     1       3.483   2.754  20.022  0.00  0.00    +0.000 A 
ATOM      9  F   UNL     1       4.804   2.546  19.978  0.00  0.00    +0.000 F 
ENDBRANCH   1   2
BRANCH   1  10
ATOM     10  O   UNL     1       2.510   3.371  16.488  0.00  0.00    +0.000 OA
ATOM     11  H   UNL     1       2.067   4.237  16.441  0.00  0.00    +0.000 HD
ENDBRANCH   1  10
BRANCH   1  12
ATOM     12  C   UNL     1       4.317   4.702  17.401  0.00  0.00    +0.000 C 
BRANCH  12  13
ATOM     13  N   UNL     1       5.484   4.644  16.547  0.00  0.00    +0.000 N 
ATOM     14  C   UNL     1       6.787   4.928  16.809  0.00  0.00    +0.000 A 
ATOM     15  N   UNL     1       7.508   4.746  15.727  0.00  0.00    +0.000 NA
ATOM     16  C   UNL     1       6.580   4.363  14.804  0.00  0.00    +0.000 A 
ATOM     17  N   UNL     1       5.324   4.300  15.252  0.00  0.00    +0.000 NA
ENDBRANCH  12  13
ENDBRANCH   1  12
TORSDOF 4
ENDMDL
MODEL 6
REMARK VINA RESULT:      -6.5      1.784      2.601
REMARK  Name = 
REMARK  4 active torsions:
REMARK  status: ('A' for Active; 'I' for Inactive)
REMARK    1  A    between atoms: O_1  and  C_2
REMARK    2  A    between atoms: C_2  and  C_3
REMARK    3  A    between atoms: C_2  and  C_9
REMARK    4  A    between atoms: C_3  and  N_4
REMARK                            x       y       z     vdW  Elec       q    Type
REMARK                         _______ _______ _______ _____ _____    ______ ____
ROOT
ATOM      1  C   UNL     1       4.680   5.027  19.155  0.00  0.00    +0.000 C 
ENDROOT
BRANCH   1   2
ATOM      2  C   UNL     1       3.425   4.176  19.059  0.00  0.00    +0.000 A 
ATOM      3  C   UNL     1       3.379   3.086  18.168  0.00  0.00    +0.000 A 
ATOM      4  C   UNL     1       2.219   2.319  18.030  0.00  0.00    +0.000 A 
ATOM      5  C   UNL     1       1.099   2.624  18.790  0.00  0.00    +0.000 A 
ATOM      6  F   UNL     1      -0.020   1.902  18.639  0.00  0.00    +0.000 F 
ATOM      7  C   UNL     1       1.125   3.662  19.706  0.00  0.00    +0.000 A 
ATOM      8  C   UNL     1       2.288   4.413  19.846  0.00  0.00    +0.000 A 
ATOM      9  F   UNL     1       2.290   5.392  20.759  0.00  0.00    +0.000 F 
ENDBRANCH   1   2
BRANCH   1  10
ATOM     10  O   UNL     1       5.828   4.162  19.207  0.00  0.00    +0.000 OA
ATOM     11  H   UNL     1       5.998   3.929  20.136  0.00  0.00    +0.000 HD
ENDBRANCH   1  10
BRANCH   1  12
ATOM     12  C   UNL     1       4.915   6.101  18.077  0.00  0.00    +0.000 C 
BRANCH  12  13
ATOM     13  N   UNL     1       5.847   5.779  17.016  0.00  0.00    +0.000 N 
ATOM     14  C   UNL     1       7.085   6.270  16.747  0.00  0.00    +0.000 A 
ATOM     15  N   UNL     1       7.566   5.696  15.669  0.00  0.00    +0.000 NA
ATOM     16  C   UNL     1       6.557   4.859  15.294  0.00  0.00    +0.000 A 
ATOM     17  N   UNL     1       5.476   4.885  16.077  0.00  0.00    +0.000 NA
ENDBRANCH  12  13
ENDBRANCH   1  12
TORSDOF 4
ENDMDL
MODEL 7
REMARK VINA RESULT:      -6.4      3.098      5.888
REMARK  Name = 
REMARK  4 active torsions:
REMARK  status: ('A' for Active; 'I' for Inactive)
REMARK    1  A    between atoms: O_1  and  C_2
REMARK    2  A    between atoms: C_2  and  C_3
REMARK    3  A    between atoms: C_2  and  C_9
REMARK    4  A    between atoms: C_3  and  N_4
REMARK                            x       y       z     vdW  Elec       q    Type
REMARK                         _______ _______ _______ _____ _____    ______ ____
ROOT
ATOM      1  C   UNL     1       4.953   4.233  19.209  0.00  0.00    +0.000 C 
ENDROOT
BRANCH   1   2
ATOM      2  C   UNL     1       5.551   4.359  17.818  0.00  0.00    +0.000 A 
ATOM      3  C   UNL     1       6.922   4.644  17.663  0.00  0.00    +0.000 A 
ATOM      4  C   UNL     1       7.483   4.811  16.394  0.00  0.00    +0.000 A 
ATOM      5  C   UNL     1       6.684   4.680  15.267  0.00  0.00    +0.000 A 
ATOM      6  F   UNL     1       7.219   4.864  14.053  0.00  0.00    +0.000 F 
ATOM      7  C   UNL     1       5.342   4.358  15.383  0.00  0.00    +0.000 A 
ATOM      8  C   UNL     1       4.794   4.182  16.650  0.00  0.00    +0.000 A 
ATOM      9  F   UNL     1       3.502   3.844  16.727  0.00  0.00    +0.000 F 
ENDBRANCH   1   2
BRANCH   1  10
ATOM     10  O   UNL     1       3.966   5.264  19.387  0.00  0.00    +0.000 OA
ATOM     11  H   UNL     1       4.045   5.898  18.653  0.00  0.00    +0.000 HD
ENDBRANCH   1  10
BRANCH   1  12
ATOM     12  C   UNL     1       4.339   2.881  19.617  0.00  0.00    +0.000 C 
BRANCH  12  13
ATOM     13  N   UNL     1       3.009   2.905  20.188  0.00  0.00    +0.000 N 
ATOM     14  C   UNL     1       2.591   2.703  21.466  0.00  0.00    +0.000 A 
ATOM     15  N   UNL     1       1.284   2.808  21.527  0.00  0.00    +0.000 NA
ATOM     16  C   UNL     1       0.937   3.059  20.232  0.00  0.00    +0.000 A 
ATOM     17  N   UNL     1       1.956   3.113  19.371  0.00  0.00    +0.000 NA
ENDBRANCH  12  13
ENDBRANCH   1  12
TORSDOF 4
ENDMDL
MODEL 8
REMARK VINA RESULT:      -6.4      3.601      5.737
REMARK  Name = 
REMARK  4 active torsions:
REMARK  status: ('A' for Active; 'I' for Inactive)
REMARK    1  A    between atoms: O_1  and  C_2
REMARK    2  A    between atoms: C_2  and  C_3
REMARK    3  A    between atoms: C_2  and  C_9
REMARK    4  A    between atoms: C_3  and  N_4
REMARK                            x       y       z     vdW  Elec       q    Type
REMARK                         _______ _______ _______ _____ _____    ______ ____
ROOT
ATOM      1  C   UNL     1       4.310   4.064  17.536  0.00  0.00    +0.000 C 
ENDROOT
BRANCH   1   2
ATOM      2  C   UNL     1       5.506   4.963  17.803  0.00  0.00    +0.000 A 
ATOM      3  C   UNL     1       6.226   4.839  19.007  0.00  0.00    +0.000 A 
ATOM      4  C   UNL     1       7.300   5.687  19.293  0.00  0.00    +0.000 A 
ATOM      5  C   UNL     1       7.673   6.656  18.373  0.00  0.00    +0.000 A 
ATOM      6  F   UNL     1       8.687   7.483  18.660  0.00  0.00    +0.000 F 
ATOM      7  C   UNL     1       7.013   6.776  17.162  0.00  0.00    +0.000 A 
ATOM      8  C   UNL     1       5.953   5.920  16.879  0.00  0.00    +0.000 A 
ATOM      9  F   UNL     1       5.354   6.044  15.690  0.00  0.00    +0.000 F 
ENDBRANCH   1   2
BRANCH   1  10
ATOM     10  O   UNL     1       4.486   2.828  18.251  0.00  0.00    +0.000 OA
ATOM     11  H   UNL     1       5.324   2.424  17.966  0.00  0.00    +0.000 HD
ENDBRANCH   1  10
BRANCH   1  12
ATOM     12  C   UNL     1       2.904   4.615  17.835  0.00  0.00    +0.000 C 
BRANCH  12  13
ATOM     13  N   UNL     1       2.317   4.270  19.113  0.00  0.00    +0.000 N 
ATOM     14  C   UNL     1       1.193   3.567  19.409  0.00  0.00    +0.000 A 
ATOM     15  N   UNL     1       1.035   3.509  20.711  0.00  0.00    +0.000 NA
ATOM     16  C   UNL     1       2.098   4.223  21.179  0.00  0.00    +0.000 A 
ATOM     17  N   UNL     1       2.905   4.724  20.239  0.00  0.00    +0.000 NA
ENDBRANCH  12  13
ENDBRANCH   1  12
TORSDOF 4
ENDMDL
MODEL 9
REMARK VINA RESULT:      -6.4      1.001      1.438
REMARK  Name = 
REMARK  4 active torsions:
REMARK  status: ('A' for Active; 'I' for Inactive)
REMARK    1  A    between atoms: O_1  and  C_2
REMARK    2  A    between atoms: C_2  and  C_3
REMARK    3  A    between atoms: C_2  and  C_9
REMARK    4  A    between atoms: C_3  and  N_4
REMARK                            x       y       z     vdW  Elec       q    Type
REMARK                         _______ _______ _______ _____ _____    ______ ____
ROOT
ATOM      1  C   UNL     1       3.821   4.533  17.502  0.00  0.00    +0.000 C 
ENDROOT
BRANCH   1   2
ATOM      2  C   UNL     1       2.970   4.026  18.654  0.00  0.00    +0.000 A 
ATOM      3  C   UNL     1       2.802   4.816  19.807  0.00  0.00    +0.000 A 
ATOM      4  C   UNL     1       2.062   4.350  20.897  0.00  0.00    +0.000 A 
ATOM      5  C   UNL     1       1.472   3.095  20.840  0.00  0.00    +0.000 A 
ATOM      6  F   UNL     1       0.784   2.640  21.895  0.00  0.00    +0.000 F 
ATOM      7  C   UNL     1       1.582   2.311  19.704  0.00  0.00    +0.000 A 
ATOM      8  C   UNL     1       2.310   2.788  18.619  0.00  0.00    +0.000 A 
ATOM      9  F   UNL     1       2.375   2.018  17.527  0.00  0.00    +0.000 F 
ENDBRANCH   1   2
BRANCH   1  10
ATOM     10  O   UNL     1       3.824   5.971  17.522  0.00  0.00    +0.000 OA
ATOM     11  H   UNL     1       2.913   6.281  17.666  0.00  0.00    +0.000 HD
ENDBRANCH   1  10
BRANCH   1  12
ATOM     12  C   UNL     1       5.274   4.034  17.395  0.00  0.00    +0.000 C 
BRANCH  12  13
ATOM     13  N   UNL     1       6.035   4.458  16.238  0.00  0.00    +0.000 N 
ATOM     14  C   UNL     1       7.036   5.370  16.124  0.00  0.00    +0.000 A 
ATOM     15  N   UNL     1       7.429   5.443  14.873  0.00  0.00    +0.000 NA
ATOM     16  C   UNL     1       6.610   4.554  14.244  0.00  0.00    +0.000 A 
ATOM     17  N   UNL     1       5.727   3.936  15.033  0.00  0.00    +0.000 NA
ENDBRANCH  12  13
ENDBRANCH   1  12
TORSDOF 4
ENDMDL
