MODEL 1
REMARK VINA RESULT:      -7.0      0.000      0.000
REMARK  Name = 
REMARK  10 active torsions:
REMARK  status: ('A' for Active; 'I' for Inactive)
REMARK    1  A    between atoms: C_2  and  C_3
REMARK    2  A    between atoms: C_3  and  C_4
REMARK    3  A    between atoms: C_3  and  C_5
REMARK    4  A    between atoms: C_3  and  C_14
REMARK    5  A    between atoms: C_6  and  C_7
REMARK    6  A    between atoms: C_10  and  O_11
REMARK    7  A    between atoms: C_14  and  C_15
REMARK    8  A    between atoms: C_15  and  C_16
REMARK    9  A    between atoms: C_16  and  C_18
REMARK   10  A    between atoms: C_18  and  C_20
REMARK                            x       y       z     vdW  Elec       q    Type
REMARK                         _______ _______ _______ _____ _____    ______ ____
ROOT
ATOM      1  C   UNL     1       4.123   4.284  17.470  0.00  0.00    +0.000 C 
ATOM      2  C   UNL     1       4.861   3.855  18.765  0.00  0.00    +0.000 C 
ENDROOT
BRANCH   1   4
ATOM      3  C   UNL     1       5.452   5.573  15.669  0.00  0.00    +0.000 C 
ATOM      4  C   UNL     1       5.105   4.442  16.305  0.00  0.00    +0.000 C 
ENDBRANCH   1   4
BRANCH   1   5
ATOM      5  C   UNL     1       3.382   5.612  17.646  0.00  0.00    +0.000 C 
ATOM      6  C   UNL     1       3.148   6.249  18.806  0.00  0.00    +0.000 C 
BRANCH   6   7
ATOM      7  C   UNL     1       2.415   7.505  18.896  0.00  0.00    +0.000 A 
ATOM      8  C   UNL     1       2.198   8.277  17.748  0.00  0.00    +0.000 A 
ATOM      9  C   UNL     1       1.444   9.450  17.822  0.00  0.00    +0.000 A 
ATOM     10  C   UNL     1       0.916   9.844  19.047  0.00  0.00    +0.000 A 
ATOM     11  C   UNL     1       1.130   9.089  20.196  0.00  0.00    +0.000 A 
ATOM     12  C   UNL     1       1.882   7.917  20.121  0.00  0.00    +0.000 A 
BRANCH  10  13
ATOM     13  O   UNL     1       0.169  10.980  19.166  0.00  0.00    +0.000 OA
ATOM     14  H   UNL     1      -0.707  10.740  19.505  0.00  0.00    +0.000 HD
ENDBRANCH  10  13
ENDBRANCH   6   7
ENDBRANCH   1   5
BRANCH   1  15
ATOM     15  C   UNL     1       3.096   3.174  17.080  0.00  0.00    +0.000 C 
BRANCH  15  16
ATOM     16  C   UNL     1       2.812   2.152  18.192  0.00  0.00    +0.000 C 
BRANCH  16  17
ATOM     17  C   UNL     1       1.513   2.416  18.943  0.00  0.00    +0.000 C 
ATOM     18  O   UNL     1       0.427   2.028  18.514  0.00  0.00    +0.000 OA
BRANCH  17  19
ATOM     19  C   UNL     1       1.582   3.164  20.250  0.00  0.00    +0.000 C 
ATOM     20  C   UNL     1       0.823   4.248  20.498  0.00  0.00    +0.000 C 
ATOM     21  C   UNL     1       2.544   2.662  21.289  0.00  0.00    +0.000 C 
ENDBRANCH  17  19
ENDBRANCH  16  17
ENDBRANCH  15  16
ENDBRANCH   1  15
TORSDOF 8
ENDMDL
MODEL 2
REMARK VINA RESULT:      -6.8      2.359      4.138
REMARK  Name = 
REMARK  10 active torsions:
REMARK  status: ('A' for Active; 'I' for Inactive)
REMARK    1  A    between atoms: C_2  and  C_3
REMARK    2  A    between atoms: C_3  and  C_4
REMARK    3  A    between atoms: C_3  and  C_5
REMARK    4  A    between atoms: C_3  and  C_14
REMARK    5  A    between atoms: C_6  and  C_7
REMARK    6  A    between atoms: C_10  and  O_11
REMARK    7  A    between atoms: C_14  and  C_15
REMARK    8  A    between atoms: C_15  and  C_16
REMARK    9  A    between atoms: C_16  and  C_18
REMARK   10  A    between atoms: C_18  and  C_20
REMARK                            x       y       z     vdW  Elec       q    Type
REMARK                         _______ _______ _______ _____ _____    ______ ____
ROOT
ATOM      1  C   UNL     1       3.517   4.174  17.859  0.00  0.00    +0.000 C 
ATOM      2  C   UNL     1       2.416   3.176  17.416  0.00  0.00    +0.000 C 
ENDROOT
BRANCH   1   4
ATOM      3  C   UNL     1       4.518   2.599  19.644  0.00  0.00    +0.000 C 
ATOM      4  C   UNL     1       4.077   3.799  19.235  0.00  0.00    +0.000 C 
ENDBRANCH   1   4
BRANCH   1   5
ATOM      5  C   UNL     1       2.991   5.610  17.939  0.00  0.00    +0.000 C 
ATOM      6  C   UNL     1       2.699   6.292  19.061  0.00  0.00    +0.000 C 
BRANCH   6   7
ATOM      7  C   UNL     1       2.181   7.654  19.056  0.00  0.00    +0.000 A 
ATOM      8  C   UNL     1       2.225   8.420  17.886  0.00  0.00    +0.000 A 
ATOM      9  C   UNL     1       1.674   9.703  17.864  0.00  0.00    +0.000 A 
ATOM     10  C   UNL     1       1.086  10.211  19.018  0.00  0.00    +0.000 A 
ATOM     11  C   UNL     1       1.041   9.462  20.189  0.00  0.00    +0.000 A 
ATOM     12  C   UNL     1       1.591   8.180  20.209  0.00  0.00    +0.000 A 
BRANCH  10  13
ATOM     13  O   UNL     1       0.531  11.458  19.042  0.00  0.00    +0.000 OA
ATOM     14  H   UNL     1       0.671  11.875  18.177  0.00  0.00    +0.000 HD
ENDBRANCH  10  13
ENDBRANCH   6   7
ENDBRANCH   1   5
BRANCH   1  15
ATOM     15  C   UNL     1       4.694   4.119  16.834  0.00  0.00    +0.000 C 
BRANCH  15  16
ATOM     16  C   UNL     1       5.378   5.471  16.578  0.00  0.00    +0.000 C 
BRANCH  16  17
ATOM     17  C   UNL     1       6.878   5.453  16.842  0.00  0.00    +0.000 C 
ATOM     18  O   UNL     1       7.648   4.778  16.159  0.00  0.00    +0.000 OA
BRANCH  17  19
ATOM     19  C   UNL     1       7.417   6.300  17.967  0.00  0.00    +0.000 C 
ATOM     20  C   UNL     1       7.625   5.806  19.201  0.00  0.00    +0.000 C 
ATOM     21  C   UNL     1       7.718   7.742  17.669  0.00  0.00    +0.000 C 
ENDBRANCH  17  19
ENDBRANCH  16  17
ENDBRANCH  15  16
ENDBRANCH   1  15
TORSDOF 8
ENDMDL
MODEL 3
REMARK VINA RESULT:      -6.6      1.970      4.134
REMARK  Name = 
REMARK  10 active torsions:
REMARK  status: ('A' for Active; 'I' for Inactive)
REMARK    1  A    between atoms: C_2  and  C_3
REMARK    2  A    between atoms: C_3  and  C_4
REMARK    3  A    between atoms: C_3  and  C_5
REMARK    4  A    between atoms: C_3  and  C_14
REMARK    5  A    between atoms: C_6  and  C_7
REMARK    6  A    between atoms: C_10  and  O_11
REMARK    7  A    between atoms: C_14  and  C_15
REMARK    8  A    between atoms: C_15  and  C_16
REMARK    9  A    between atoms: C_16  and  C_18
REMARK   10  A    between atoms: C_18  and  C_20
REMARK                            x       y       z     vdW  Elec       q    Type
REMARK                         _______ _______ _______ _____ _____    ______ ____
ROOT
ATOM      1  C   UNL     1       2.369   3.812  19.393  0.00  0.00    +0.000 C 
ATOM      2  C   UNL     1       2.284   2.877  18.159  0.00  0.00    +0.000 C 
ENDROOT
BRANCH   1   4
ATOM      3  C   UNL     1       1.701   2.585  21.565  0.00  0.00    +0.000 C 
ATOM      4  C   UNL     1       1.415   3.349  20.499  0.00  0.00    +0.000 C 
ENDBRANCH   1   4
BRANCH   1   5
ATOM      5  C   UNL     1       2.015   5.259  19.040  0.00  0.00    +0.000 C 
ATOM      6  C   UNL     1       2.371   6.358  19.728  0.00  0.00    +0.000 C 
BRANCH   6   7
ATOM      7  C   UNL     1       1.978   7.707  19.340  0.00  0.00    +0.000 A 
ATOM      8  C   UNL     1       1.334   8.544  20.259  0.00  0.00    +0.000 A 
ATOM      9  C   UNL     1       1.012   9.857  19.908  0.00  0.00    +0.000 A 
ATOM     10  C   UNL     1       1.333  10.320  18.636  0.00  0.00    +0.000 A 
ATOM     11  C   UNL     1       1.966   9.495  17.712  0.00  0.00    +0.000 A 
ATOM     12  C   UNL     1       2.289   8.185  18.064  0.00  0.00    +0.000 A 
BRANCH  10  13
ATOM     13  O   UNL     1       1.041  11.596  18.250  0.00  0.00    +0.000 OA
ATOM     14  H   UNL     1       0.099  11.761  18.414  0.00  0.00    +0.000 HD
ENDBRANCH  10  13
ENDBRANCH   6   7
ENDBRANCH   1   5
BRANCH   1  15
ATOM     15  C   UNL     1       3.821   3.766  19.965  0.00  0.00    +0.000 C 
BRANCH  15  16
ATOM     16  C   UNL     1       4.924   3.701  18.897  0.00  0.00    +0.000 C 
BRANCH  16  17
ATOM     17  C   UNL     1       5.803   4.944  18.855  0.00  0.00    +0.000 C 
ATOM     18  O   UNL     1       6.578   5.221  19.770  0.00  0.00    +0.000 OA
BRANCH  17  19
ATOM     19  C   UNL     1       5.716   5.842  17.647  0.00  0.00    +0.000 C 
ATOM     20  C   UNL     1       6.454   6.960  17.528  0.00  0.00    +0.000 C 
ATOM     21  C   UNL     1       4.759   5.449  16.557  0.00  0.00    +0.000 C 
ENDBRANCH  17  19
ENDBRANCH  16  17
ENDBRANCH  15  16
ENDBRANCH   1  15
TORSDOF 8
ENDMDL
MODEL 4
REMARK VINA RESULT:      -6.5      1.280      1.375
REMARK  Name = 
REMARK  10 active torsions:
REMARK  status: ('A' for Active; 'I' for Inactive)
REMARK    1  A    between atoms: C_2  and  C_3
REMARK    2  A    between atoms: C_3  and  C_4
REMARK    3  A    between atoms: C_3  and  C_5
REMARK    4  A    between atoms: C_3  and  C_14
REMARK    5  A    between atoms: C_6  and  C_7
REMARK    6  A    between atoms: C_10  and  O_11
REMARK    7  A    between atoms: C_14  and  C_15
REMARK    8  A    between atoms: C_15  and  C_16
REMARK    9  A    between atoms: C_16  and  C_18
REMARK   10  A    between atoms: C_18  and  C_20
REMARK                            x       y       z     vdW  Elec       q    Type
REMARK                         _______ _______ _______ _____ _____    ______ ____
ROOT
ATOM      1  C   UNL     1       5.037   4.973  17.374  0.00  0.00    +0.000 C 
ATOM      2  C   UNL     1       6.361   4.718  18.141  0.00  0.00    +0.000 C 
ENDROOT
BRANCH   1   4
ATOM      3  C   UNL     1       5.586   4.944  14.850  0.00  0.00    +0.000 C 
ATOM      4  C   UNL     1       5.310   5.586  15.997  0.00  0.00    +0.000 C 
ENDBRANCH   1   4
BRANCH   1   5
ATOM      5  C   UNL     1       4.106   5.920  18.136  0.00  0.00    +0.000 C 
ATOM      6  C   UNL     1       3.411   6.946  17.616  0.00  0.00    +0.000 C 
BRANCH   6   7
ATOM      7  C   UNL     1       2.558   7.819  18.411  0.00  0.00    +0.000 A 
ATOM      8  C   UNL     1       2.034   8.992  17.853  0.00  0.00    +0.000 A 
ATOM      9  C   UNL     1       1.167   9.797  18.594  0.00  0.00    +0.000 A 
ATOM     10  C   UNL     1       0.835   9.425  19.893  0.00  0.00    +0.000 A 
ATOM     11  C   UNL     1       1.354   8.266  20.461  0.00  0.00    +0.000 A 
ATOM     12  C   UNL     1       2.219   7.462  19.719  0.00  0.00    +0.000 A 
BRANCH  10  13
ATOM     13  O   UNL     1      -0.011  10.179  20.652  0.00  0.00    +0.000 OA
ATOM     14  H   UNL     1       0.292  10.151  21.574  0.00  0.00    +0.000 HD
ENDBRANCH  10  13
ENDBRANCH   6   7
ENDBRANCH   1   5
BRANCH   1  15
ATOM     15  C   UNL     1       4.309   3.609  17.153  0.00  0.00    +0.000 C 
BRANCH  15  16
ATOM     16  C   UNL     1       2.961   3.483  17.881  0.00  0.00    +0.000 C 
BRANCH  16  17
ATOM     17  C   UNL     1       3.075   2.868  19.269  0.00  0.00    +0.000 C 
ATOM     18  O   UNL     1       3.993   2.103  19.565  0.00  0.00    +0.000 OA
BRANCH  17  19
ATOM     19  C   UNL     1       2.032   3.225  20.298  0.00  0.00    +0.000 C 
ATOM     20  C   UNL     1       0.936   3.943  19.989  0.00  0.00    +0.000 C 
ATOM     21  C   UNL     1       2.255   2.753  21.707  0.00  0.00    +0.000 C 
ENDBRANCH  17  19
ENDBRANCH  16  17
ENDBRANCH  15  16
ENDBRANCH   1  15
TORSDOF 8
ENDMDL
MODEL 5
REMARK VINA RESULT:      -6.5      3.333      6.263
REMARK  Name = 
REMARK  10 active torsions:
REMARK  status: ('A' for Active; 'I' for Inactive)
REMARK    1  A    between atoms: C_2  and  C_3
REMARK    2  A    between atoms: C_3  and  C_4
REMARK    3  A    between atoms: C_3  and  C_5
REMARK    4  A    between atoms: C_3  and  C_14
REMARK    5  A    between atoms: C_6  and  C_7
REMARK    6  A    between atoms: C_10  and  O_11
REMARK    7  A    between atoms: C_14  and  C_15
REMARK    8  A    between atoms: C_15  and  C_16
REMARK    9  A    between atoms: C_16  and  C_18
REMARK   10  A    between atoms: C_18  and  C_20
REMARK                            x       y       z     vdW  Elec       q    Type
REMARK                         _______ _______ _______ _____ _____    ______ ____
ROOT
ATOM      1  C   UNL     1       6.273   5.329  16.270  0.00  0.00    +0.000 C 
ATOM      2  C   UNL     1       7.615   4.553  16.231  0.00  0.00    +0.000 C 
ENDROOT
BRANCH   1   4
ATOM      3  C   UNL     1       7.405   7.302  17.491  0.00  0.00    +0.000 C 
ATOM      4  C   UNL     1       6.499   6.799  16.639  0.00  0.00    +0.000 C 
ENDBRANCH   1   4
BRANCH   1   5
ATOM      5  C   UNL     1       5.295   4.732  17.287  0.00  0.00    +0.000 C 
ATOM      6  C   UNL     1       3.961   4.899  17.305  0.00  0.00    +0.000 C 
BRANCH   6   7
ATOM      7  C   UNL     1       3.096   4.313  18.320  0.00  0.00    +0.000 A 
ATOM      8  C   UNL     1       3.313   4.591  19.675  0.00  0.00    +0.000 A 
ATOM      9  C   UNL     1       2.448   4.080  20.645  0.00  0.00    +0.000 A 
ATOM     10  C   UNL     1       1.373   3.290  20.251  0.00  0.00    +0.000 A 
ATOM     11  C   UNL     1       1.151   3.002  18.908  0.00  0.00    +0.000 A 
ATOM     12  C   UNL     1       2.015   3.513  17.940  0.00  0.00    +0.000 A 
BRANCH  10  13
ATOM     13  O   UNL     1       0.500   2.773  21.163  0.00  0.00    +0.000 OA
ATOM     14  H   UNL     1       0.072   3.507  21.632  0.00  0.00    +0.000 HD
ENDBRANCH  10  13
ENDBRANCH   6   7
ENDBRANCH   1   5
BRANCH   1  15
ATOM     15  C   UNL     1       5.621   5.288  14.851  0.00  0.00    +0.000 C 
BRANCH  15  16
ATOM     16  C   UNL     1       5.486   3.879  14.254  0.00  0.00    +0.000 C 
BRANCH  16  17
ATOM     17  C   UNL     1       6.120   3.739  12.876  0.00  0.00    +0.000 C 
ATOM     18  O   UNL     1       7.158   4.329  12.578  0.00  0.00    +0.000 OA
BRANCH  17  19
ATOM     19  C   UNL     1       5.450   2.840  11.868  0.00  0.00    +0.000 C 
ATOM     20  C   UNL     1       6.017   1.699  11.435  0.00  0.00    +0.000 C 
ATOM     21  C   UNL     1       4.106   3.262  11.346  0.00  0.00    +0.000 C 
ENDBRANCH  17  19
ENDBRANCH  16  17
ENDBRANCH  15  16
ENDBRANCH   1  15
TORSDOF 8
ENDMDL
MODEL 6
REMARK VINA RESULT:      -6.5      1.779      4.209
REMARK  Name = 
REMARK  10 active torsions:
REMARK  status: ('A' for Active; 'I' for Inactive)
REMARK    1  A    between atoms: C_2  and  C_3
REMARK    2  A    between atoms: C_3  and  C_4
REMARK    3  A    between atoms: C_3  and  C_5
REMARK    4  A    between atoms: C_3  and  C_14
REMARK    5  A    between atoms: C_6  and  C_7
REMARK    6  A    between atoms: C_10  and  O_11
REMARK    7  A    between atoms: C_14  and  C_15
REMARK    8  A    between atoms: C_15  and  C_16
REMARK    9  A    between atoms: C_16  and  C_18
REMARK   10  A    between atoms: C_18  and  C_20
REMARK                            x       y       z     vdW  Elec       q    Type
REMARK                         _______ _______ _______ _____ _____    ______ ____
ROOT
ATOM      1  C   UNL     1       2.484   3.226  19.412  0.00  0.00    +0.000 C 
ATOM      2  C   UNL     1       1.489   2.221  18.777  0.00  0.00    +0.000 C 
ENDROOT
BRANCH   1   4
ATOM      3  C   UNL     1       1.508   2.686  21.742  0.00  0.00    +0.000 C 
ATOM      4  C   UNL     1       2.506   3.086  20.938  0.00  0.00    +0.000 C 
ENDBRANCH   1   4
BRANCH   1   5
ATOM      5  C   UNL     1       2.127   4.676  19.077  0.00  0.00    +0.000 C 
ATOM      6  C   UNL     1       2.544   5.774  19.731  0.00  0.00    +0.000 C 
BRANCH   6   7
ATOM      7  C   UNL     1       2.144   7.126  19.363  0.00  0.00    +0.000 A 
ATOM      8  C   UNL     1       1.522   7.956  20.304  0.00  0.00    +0.000 A 
ATOM      9  C   UNL     1       1.192   9.271  19.971  0.00  0.00    +0.000 A 
ATOM     10  C   UNL     1       1.485   9.745  18.696  0.00  0.00    +0.000 A 
ATOM     11  C   UNL     1       2.096   8.927  17.751  0.00  0.00    +0.000 A 
ATOM     12  C   UNL     1       2.426   7.614  18.084  0.00  0.00    +0.000 A 
BRANCH  10  13
ATOM     13  O   UNL     1       1.185  11.024  18.328  0.00  0.00    +0.000 OA
ATOM     14  H   UNL     1       1.549  11.185  17.443  0.00  0.00    +0.000 HD
ENDBRANCH  10  13
ENDBRANCH   6   7
ENDBRANCH   1   5
BRANCH   1  15
ATOM     15  C   UNL     1       3.922   2.919  18.885  0.00  0.00    +0.000 C 
BRANCH  15  16
ATOM     16  C   UNL     1       4.240   3.536  17.513  0.00  0.00    +0.000 C 
BRANCH  16  17
ATOM     17  C   UNL     1       5.517   4.366  17.502  0.00  0.00    +0.000 C 
ATOM     18  O   UNL     1       6.293   4.373  18.457  0.00  0.00    +0.000 OA
BRANCH  17  19
ATOM     19  C   UNL     1       5.826   5.186  16.275  0.00  0.00    +0.000 C 
ATOM     20  C   UNL     1       5.168   6.324  15.988  0.00  0.00    +0.000 C 
ATOM     21  C   UNL     1       6.908   4.686  15.359  0.00  0.00    +0.000 C 
ENDBRANCH  17  19
ENDBRANCH  16  17
ENDBRANCH  15  16
ENDBRANCH   1  15
TORSDOF 8
ENDMDL
MODEL 7
REMARK VINA RESULT:      -6.5      1.848      3.831
REMARK  Name = 
REMARK  10 active torsions:
REMARK  status: ('A' for Active; 'I' for Inactive)
REMARK    1  A    between atoms: C_2  and  C_3
REMARK    2  A    between atoms: C_3  and  C_4
REMARK    3  A    between atoms: C_3  and  C_5
REMARK    4  A    between atoms: C_3  and  C_14
REMARK    5  A    between atoms: C_6  and  C_7
REMARK    6  A    between atoms: C_10  and  O_11
REMARK    7  A    between atoms: C_14  and  C_15
REMARK    8  A    between atoms: C_15  and  C_16
REMARK    9  A    between atoms: C_16  and  C_18
REMARK   10  A    between atoms: C_18  and  C_20
REMARK                            x       y       z     vdW  Elec       q    Type
REMARK                         _______ _______ _______ _____ _____    ______ ____
ROOT
ATOM      1  C   UNL     1       2.212   3.597  19.156  0.00  0.00    +0.000 C 
ATOM      2  C   UNL     1       1.021   2.687  18.759  0.00  0.00    +0.000 C 
ENDROOT
BRANCH   1   4
ATOM      3  C   UNL     1       1.773   2.975  21.624  0.00  0.00    +0.000 C 
ATOM      4  C   UNL     1       2.564   3.426  20.638  0.00  0.00    +0.000 C 
ENDBRANCH   1   4
BRANCH   1   5
ATOM      5  C   UNL     1       1.908   5.078  18.912  0.00  0.00    +0.000 C 
ATOM      6  C   UNL     1       2.418   6.121  19.591  0.00  0.00    +0.000 C 
BRANCH   6   7
ATOM      7  C   UNL     1       2.064   7.507  19.313  0.00  0.00    +0.000 A 
ATOM      8  C   UNL     1       2.314   8.057  18.050  0.00  0.00    +0.000 A 
ATOM      9  C   UNL     1       1.920   9.366  17.763  0.00  0.00    +0.000 A 
ATOM     10  C   UNL     1       1.282  10.116  18.746  0.00  0.00    +0.000 A 
ATOM     11  C   UNL     1       1.034   9.582  20.006  0.00  0.00    +0.000 A 
ATOM     12  C   UNL     1       1.426   8.274  20.292  0.00  0.00    +0.000 A 
BRANCH  10  13
ATOM     13  O   UNL     1       0.876  11.397  18.509  0.00  0.00    +0.000 OA
ATOM     14  H   UNL     1      -0.043  11.377  18.196  0.00  0.00    +0.000 HD
ENDBRANCH  10  13
ENDBRANCH   6   7
ENDBRANCH   1   5
BRANCH   1  15
ATOM     15  C   UNL     1       3.465   3.189  18.318  0.00  0.00    +0.000 C 
BRANCH  15  16
ATOM     16  C   UNL     1       4.804   3.362  19.051  0.00  0.00    +0.000 C 
BRANCH  16  17
ATOM     17  C   UNL     1       5.686   4.452  18.456  0.00  0.00    +0.000 C 
ATOM     18  O   UNL     1       6.567   5.004  19.115  0.00  0.00    +0.000 OA
BRANCH  17  19
ATOM     19  C   UNL     1       5.467   4.843  17.017  0.00  0.00    +0.000 C 
ATOM     20  C   UNL     1       4.844   5.985  16.670  0.00  0.00    +0.000 C 
ATOM     21  C   UNL     1       5.967   3.904  15.956  0.00  0.00    +0.000 C 
ENDBRANCH  17  19
ENDBRANCH  16  17
ENDBRANCH  15  16
ENDBRANCH   1  15
TORSDOF 8
ENDMDL
MODEL 8
REMARK VINA RESULT:      -6.4      1.184      1.691
REMARK  Name = 
REMARK  10 active torsions:
REMARK  status: ('A' for Active; 'I' for Inactive)
REMARK    1  A    between atoms: C_2  and  C_3
REMARK    2  A    between atoms: C_3  and  C_4
REMARK    3  A    between atoms: C_3  and  C_5
REMARK    4  A    between atoms: C_3  and  C_14
REMARK    5  A    between atoms: C_6  and  C_7
REMARK    6  A    between atoms: C_10  and  O_11
REMARK    7  A    between atoms: C_14  and  C_15
REMARK    8  A    between atoms: C_15  and  C_16
REMARK    9  A    between atoms: C_16  and  C_18
REMARK   10  A    between atoms: C_18  and  C_20
REMARK                            x       y       z     vdW  Elec       q    Type
REMARK                         _______ _______ _______ _____ _____    ______ ____
ROOT
ATOM      1  C   UNL     1       4.929   5.336  17.801  0.00  0.00    +0.000 C 
ATOM      2  C   UNL     1       5.754   4.550  18.853  0.00  0.00    +0.000 C 
ENDROOT
BRANCH   1   4
ATOM      3  C   UNL     1       7.087   6.625  17.209  0.00  0.00    +0.000 C 
ATOM      4  C   UNL     1       5.838   6.217  16.937  0.00  0.00    +0.000 C 
ENDBRANCH   1   4
BRANCH   1   5
ATOM      5  C   UNL     1       3.880   6.240  18.455  0.00  0.00    +0.000 C 
ATOM      6  C   UNL     1       3.218   7.251  17.865  0.00  0.00    +0.000 C 
BRANCH   6   7
ATOM      7  C   UNL     1       2.245   8.084  18.561  0.00  0.00    +0.000 A 
ATOM      8  C   UNL     1       1.953   7.848  19.910  0.00  0.00    +0.000 A 
ATOM      9  C   UNL     1       1.067   8.682  20.594  0.00  0.00    +0.000 A 
ATOM     10  C   UNL     1       0.474   9.745  19.919  0.00  0.00    +0.000 A 
ATOM     11  C   UNL     1       0.751   9.985  18.577  0.00  0.00    +0.000 A 
ATOM     12  C   UNL     1       1.637   9.152  17.895  0.00  0.00    +0.000 A 
BRANCH  10  13
ATOM     13  O   UNL     1      -0.395  10.588  20.548  0.00  0.00    +0.000 OA
ATOM     14  H   UNL     1       0.102  11.351  20.883  0.00  0.00    +0.000 HD
ENDBRANCH  10  13
ENDBRANCH   6   7
ENDBRANCH   1   5
BRANCH   1  15
ATOM     15  C   UNL     1       4.210   4.321  16.857  0.00  0.00    +0.000 C 
BRANCH  15  16
ATOM     16  C   UNL     1       3.520   3.156  17.583  0.00  0.00    +0.000 C 
BRANCH  16  17
ATOM     17  C   UNL     1       2.148   3.515  18.140  0.00  0.00    +0.000 C 
ATOM     18  O   UNL     1       1.208   3.812  17.404  0.00  0.00    +0.000 OA
BRANCH  17  19
ATOM     19  C   UNL     1       1.954   3.489  19.635  0.00  0.00    +0.000 C 
ATOM     20  C   UNL     1       0.944   4.142  20.239  0.00  0.00    +0.000 C 
ATOM     21  C   UNL     1       2.940   2.702  20.451  0.00  0.00    +0.000 C 
ENDBRANCH  17  19
ENDBRANCH  16  17
ENDBRANCH  15  16
ENDBRANCH   1  15
TORSDOF 8
ENDMDL
MODEL 9
REMARK VINA RESULT:      -6.4      0.910      1.652
REMARK  Name = 
REMARK  10 active torsions:
REMARK  status: ('A' for Active; 'I' for Inactive)
REMARK    1  A    between atoms: C_2  and  C_3
REMARK    2  A    between atoms: C_3  and  C_4
REMARK    3  A    between atoms: C_3  and  C_5
REMARK    4  A    between atoms: C_3  and  C_14
REMARK    5  A    between atoms: C_6  and  C_7
REMARK    6  A    between atoms: C_10  and  O_11
REMARK    7  A    between atoms: C_14  and  C_15
REMARK    8  A    between atoms: C_15  and  C_16
REMARK    9  A    between atoms: C_16  and  C_18
REMARK   10  A    between atoms: C_18  and  C_20
REMARK                            x       y       z     vdW  Elec       q    Type
REMARK                         _______ _______ _______ _____ _____    ______ ____
ROOT
ATOM      1  C   UNL     1       4.106   5.164  17.831  0.00  0.00    +0.000 C 
ATOM      2  C   UNL     1       5.156   4.663  18.857  0.00  0.00    +0.000 C 
ENDROOT
BRANCH   1   4
ATOM      3  C   UNL     1       6.085   5.643  16.242  0.00  0.00    +0.000 C 
ATOM      4  C   UNL     1       4.787   5.719  16.576  0.00  0.00    +0.000 C 
ENDBRANCH   1   4
BRANCH   1   5
ATOM      5  C   UNL     1       3.217   6.266  18.413  0.00  0.00    +0.000 C 
ATOM      6  C   UNL     1       3.021   7.491  17.894  0.00  0.00    +0.000 C 
BRANCH   6   7
ATOM      7  C   UNL     1       2.171   8.497  18.518  0.00  0.00    +0.000 A 
ATOM      8  C   UNL     1       1.641   8.277  19.795  0.00  0.00    +0.000 A 
ATOM      9  C   UNL     1       0.878   9.266  20.419  0.00  0.00    +0.000 A 
ATOM     10  C   UNL     1       0.647  10.467  19.756  0.00  0.00    +0.000 A 
ATOM     11  C   UNL     1       1.163  10.695  18.485  0.00  0.00    +0.000 A 
ATOM     12  C   UNL     1       1.926   9.707  17.863  0.00  0.00    +0.000 A 
BRANCH  10  13
ATOM     13  O   UNL     1      -0.090  11.463  20.329  0.00  0.00    +0.000 OA
ATOM     14  H   UNL     1       0.341  12.313  20.144  0.00  0.00    +0.000 HD
ENDBRANCH  10  13
ENDBRANCH   6   7
ENDBRANCH   1   5
BRANCH   1  15
ATOM     15  C   UNL     1       3.210   3.962  17.395  0.00  0.00    +0.000 C 
BRANCH  15  16
ATOM     16  C   UNL     1       1.745   4.063  17.849  0.00  0.00    +0.000 C 
BRANCH  16  17
ATOM     17  C   UNL     1       1.367   3.041  18.913  0.00  0.00    +0.000 C 
ATOM     18  O   UNL     1       0.966   1.916  18.617  0.00  0.00    +0.000 OA
BRANCH  17  19
ATOM     19  C   UNL     1       1.504   3.434  20.363  0.00  0.00    +0.000 C 
ATOM     20  C   UNL     1       1.769   2.534  21.328  0.00  0.00    +0.000 C 
ATOM     21  C   UNL     1       1.330   4.885  20.710  0.00  0.00    +0.000 C 
ENDBRANCH  17  19
ENDBRANCH  16  17
ENDBRANCH  15  16
ENDBRANCH   1  15
TORSDOF 8
ENDMDL
