MODEL 1
REMARK VINA RESULT:      -7.5      0.000      0.000
REMARK  Name = 
REMARK  4 active torsions:
REMARK  status: ('A' for Active; 'I' for Inactive)
REMARK    1  A    between atoms: C_2  and  C_3
REMARK    2  A    between atoms: C_4  and  C_5
REMARK    3  A    between atoms: C_8  and  C_9
REMARK    4  A    between atoms: N_17  and  C_18
REMARK                            x       y       z     vdW  Elec       q    Type
REMARK                         _______ _______ _______ _____ _____    ______ ____
ROOT
ATOM      1  C   UNL     1       3.702   5.153  19.376  0.00  0.00    +0.000 C 
ATOM      2  C   UNL     1       3.232   4.985  17.869  0.00  0.00    +0.000 C 
ATOM      3  C   UNL     1       2.206   3.836  17.676  0.00  0.00    +0.000 C 
ATOM      4  C   UNL     1       1.813   3.012  18.941  0.00  0.00    +0.000 C 
ATOM      5  C   UNL     1       0.819   3.765  19.827  0.00  0.00    +0.000 C 
ATOM      6  C   UNL     1       1.702   4.471  20.854  0.00  0.00    +0.000 C 
ATOM      7  C   UNL     1       3.132   4.121  20.432  0.00  0.00    +0.000 C 
ATOM      8  N   UNL     1       2.941   2.785  19.866  0.00  0.00    +0.000 NA
ATOM      9  C   UNL     1       4.161   2.140  19.385  0.00  0.00    +0.000 C 
ENDROOT
BRANCH   2  10
ATOM     10  C   UNL     1       4.418   4.926  16.833  0.00  0.00    +0.000 A 
ATOM     11  C   UNL     1       4.911   6.089  16.186  0.00  0.00    +0.000 A 
ATOM     12  C   UNL     1       5.777   6.015  15.105  0.00  0.00    +0.000 A 
ATOM     13  C   UNL     1       6.233   4.789  14.636  0.00  0.00    +0.000 A 
ATOM     14  C   UNL     1       7.094   4.763  13.402  0.00  0.00    +0.000 C 
ATOM     15  C   UNL     1       5.851   3.618  15.317  0.00  0.00    +0.000 A 
ATOM     16  C   UNL     1       4.942   3.683  16.397  0.00  0.00    +0.000 A 
ENDBRANCH   2  10
BRANCH   1  18
ATOM     17  C   UNL     1       6.372   5.383  19.449  0.00  0.00    +0.000 C 
ATOM     18  C   UNL     1       5.171   5.302  19.436  0.00  0.00    +0.000 C 
ENDBRANCH   1  18
TORSDOF 2
ENDMDL
MODEL 2
REMARK VINA RESULT:      -7.3      0.442      1.216
REMARK  Name = 
REMARK  4 active torsions:
REMARK  status: ('A' for Active; 'I' for Inactive)
REMARK    1  A    between atoms: C_2  and  C_3
REMARK    2  A    between atoms: C_4  and  C_5
REMARK    3  A    between atoms: C_8  and  C_9
REMARK    4  A    between atoms: N_17  and  C_18
REMARK                            x       y       z     vdW  Elec       q    Type
REMARK                         _______ _______ _______ _____ _____    ______ ____
ROOT
ATOM      1  C   UNL     1       3.670   5.023  19.553  0.00  0.00    +0.000 C 
ATOM      2  C   UNL     1       2.974   5.060  18.126  0.00  0.00    +0.000 C 
ATOM      3  C   UNL     1       1.870   3.982  17.958  0.00  0.00    +0.000 C 
ATOM      4  C   UNL     1       1.624   3.021  19.163  0.00  0.00    +0.000 C 
ATOM      5  C   UNL     1       0.813   3.693  20.273  0.00  0.00    +0.000 C 
ATOM      6  C   UNL     1       1.874   4.234  21.228  0.00  0.00    +0.000 C 
ATOM      7  C   UNL     1       3.206   3.888  20.555  0.00  0.00    +0.000 C 
ATOM      8  N   UNL     1       2.862   2.641  19.871  0.00  0.00    +0.000 NA
ATOM      9  C   UNL     1       3.961   2.017  19.137  0.00  0.00    +0.000 C 
ENDROOT
BRANCH   2  10
ATOM     10  C   UNL     1       3.990   5.088  16.922  0.00  0.00    +0.000 A 
ATOM     11  C   UNL     1       4.520   3.899  16.357  0.00  0.00    +0.000 A 
ATOM     12  C   UNL     1       5.589   3.920  15.472  0.00  0.00    +0.000 A 
ATOM     13  C   UNL     1       6.160   5.120  15.070  0.00  0.00    +0.000 A 
ATOM     14  C   UNL     1       7.376   5.080  14.184  0.00  0.00    +0.000 C 
ATOM     15  C   UNL     1       5.596   6.327  15.525  0.00  0.00    +0.000 A 
ATOM     16  C   UNL     1       4.530   6.312  16.453  0.00  0.00    +0.000 A 
ENDBRANCH   2  10
BRANCH   1  18
ATOM     17  C   UNL     1       6.334   5.208  19.330  0.00  0.00    +0.000 C 
ATOM     18  C   UNL     1       5.138   5.110  19.405  0.00  0.00    +0.000 C 
ENDBRANCH   1  18
TORSDOF 2
ENDMDL
MODEL 3
REMARK VINA RESULT:      -7.1      1.560      2.822
REMARK  Name = 
REMARK  4 active torsions:
REMARK  status: ('A' for Active; 'I' for Inactive)
REMARK    1  A    between atoms: C_2  and  C_3
REMARK    2  A    between atoms: C_4  and  C_5
REMARK    3  A    between atoms: C_8  and  C_9
REMARK    4  A    between atoms: N_17  and  C_18
REMARK                            x       y       z     vdW  Elec       q    Type
REMARK                         _______ _______ _______ _____ _____    ______ ____
ROOT
ATOM      1  C   UNL     1       2.169   4.658  17.956  0.00  0.00    +0.000 C 
ATOM      2  C   UNL     1       3.480   3.896  17.483  0.00  0.00    +0.000 C 
ATOM      3  C   UNL     1       3.728   2.574  18.258  0.00  0.00    +0.000 C 
ATOM      4  C   UNL     1       2.707   2.202  19.377  0.00  0.00    +0.000 C 
ATOM      5  C   UNL     1       1.409   1.633  18.799  0.00  0.00    +0.000 C 
ATOM      6  C   UNL     1       0.489   2.846  18.694  0.00  0.00    +0.000 C 
ATOM      7  C   UNL     1       1.355   4.023  19.155  0.00  0.00    +0.000 C 
ATOM      8  N   UNL     1       2.220   3.370  20.138  0.00  0.00    +0.000 NA
ATOM      9  C   UNL     1       3.172   4.255  20.806  0.00  0.00    +0.000 C 
ENDROOT
BRANCH   2  10
ATOM     10  C   UNL     1       4.760   4.813  17.413  0.00  0.00    +0.000 A 
ATOM     11  C   UNL     1       5.656   4.941  18.507  0.00  0.00    +0.000 A 
ATOM     12  C   UNL     1       6.636   5.922  18.541  0.00  0.00    +0.000 A 
ATOM     13  C   UNL     1       6.806   6.800  17.479  0.00  0.00    +0.000 A 
ATOM     14  C   UNL     1       7.821   7.904  17.610  0.00  0.00    +0.000 C 
ATOM     15  C   UNL     1       6.007   6.640  16.331  0.00  0.00    +0.000 A 
ATOM     16  C   UNL     1       4.984   5.665  16.302  0.00  0.00    +0.000 A 
ENDBRANCH   2  10
BRANCH   1  18
ATOM     17  C   UNL     1       2.638   7.274  18.303  0.00  0.00    +0.000 C 
ATOM     18  C   UNL     1       2.455   6.097  18.138  0.00  0.00    +0.000 C 
ENDBRANCH   1  18
TORSDOF 2
ENDMDL
MODEL 4
REMARK VINA RESULT:      -7.0      1.649      5.622
REMARK  Name = 
REMARK  4 active torsions:
REMARK  status: ('A' for Active; 'I' for Inactive)
REMARK    1  A    between atoms: C_2  and  C_3
REMARK    2  A    between atoms: C_4  and  C_5
REMARK    3  A    between atoms: C_8  and  C_9
REMARK    4  A    between atoms: N_17  and  C_18
REMARK                            x       y       z     vdW  Elec       q    Type
REMARK                         _______ _______ _______ _____ _____    ______ ____
ROOT
ATOM      1  C   UNL     1       3.957   3.959  16.858  0.00  0.00    +0.000 C 
ATOM      2  C   UNL     1       3.001   5.012  17.567  0.00  0.00    +0.000 C 
ATOM      3  C   UNL     1       3.661   6.405  17.751  0.00  0.00    +0.000 C 
ATOM      4  C   UNL     1       5.132   6.567  17.259  0.00  0.00    +0.000 C 
ATOM      5  C   UNL     1       5.212   6.718  15.738  0.00  0.00    +0.000 C 
ATOM      6  C   UNL     1       5.454   5.296  15.239  0.00  0.00    +0.000 C 
ATOM      7  C   UNL     1       5.424   4.436  16.506  0.00  0.00    +0.000 C 
ATOM      8  N   UNL     1       5.964   5.371  17.495  0.00  0.00    +0.000 NA
ATOM      9  C   UNL     1       6.098   4.830  18.845  0.00  0.00    +0.000 C 
ENDROOT
BRANCH   2  10
ATOM     10  C   UNL     1       2.328   4.475  18.887  0.00  0.00    +0.000 A 
ATOM     11  C   UNL     1       2.904   4.689  20.166  0.00  0.00    +0.000 A 
ATOM     12  C   UNL     1       2.454   4.017  21.294  0.00  0.00    +0.000 A 
ATOM     13  C   UNL     1       1.387   3.131  21.221  0.00  0.00    +0.000 A 
ATOM     14  C   UNL     1       1.003   2.360  22.455  0.00  0.00    +0.000 C 
ATOM     15  C   UNL     1       0.721   2.971  19.991  0.00  0.00    +0.000 A 
ATOM     16  C   UNL     1       1.195   3.625  18.831  0.00  0.00    +0.000 A 
ENDBRANCH   2  10
BRANCH   1  18
ATOM     17  C   UNL     1       3.844   1.606  18.136  0.00  0.00    +0.000 C 
ATOM     18  C   UNL     1       3.916   2.670  17.580  0.00  0.00    +0.000 C 
ENDBRANCH   1  18
TORSDOF 2
ENDMDL
MODEL 5
REMARK VINA RESULT:      -6.4      1.754      2.923
REMARK  Name = 
REMARK  4 active torsions:
REMARK  status: ('A' for Active; 'I' for Inactive)
REMARK    1  A    between atoms: C_2  and  C_3
REMARK    2  A    between atoms: C_4  and  C_5
REMARK    3  A    between atoms: C_8  and  C_9
REMARK    4  A    between atoms: N_17  and  C_18
REMARK                            x       y       z     vdW  Elec       q    Type
REMARK                         _______ _______ _______ _____ _____    ______ ____
ROOT
ATOM      1  C   UNL     1       2.080   4.632  18.036  0.00  0.00    +0.000 C 
ATOM      2  C   UNL     1       3.546   4.087  17.757  0.00  0.00    +0.000 C 
ATOM      3  C   UNL     1       3.901   2.835  18.603  0.00  0.00    +0.000 C 
ATOM      4  C   UNL     1       2.818   2.318  19.599  0.00  0.00    +0.000 C 
ATOM      5  C   UNL     1       1.713   1.536  18.886  0.00  0.00    +0.000 C 
ATOM      6  C   UNL     1       0.632   2.581  18.624  0.00  0.00    +0.000 C 
ATOM      7  C   UNL     1       1.232   3.890  19.147  0.00  0.00    +0.000 C 
ATOM      8  N   UNL     1       2.057   3.402  20.252  0.00  0.00    +0.000 NA
ATOM      9  C   UNL     1       2.762   4.440  21.001  0.00  0.00    +0.000 C 
ENDROOT
BRANCH   2  10
ATOM     10  C   UNL     1       4.660   5.200  17.813  0.00  0.00    +0.000 A 
ATOM     11  C   UNL     1       4.862   6.118  16.750  0.00  0.00    +0.000 A 
ATOM     12  C   UNL     1       5.985   6.931  16.686  0.00  0.00    +0.000 A 
ATOM     13  C   UNL     1       6.944   6.906  17.690  0.00  0.00    +0.000 A 
ATOM     14  C   UNL     1       8.187   7.738  17.522  0.00  0.00    +0.000 C 
ATOM     15  C   UNL     1       6.729   6.086  18.814  0.00  0.00    +0.000 A 
ATOM     16  C   UNL     1       5.605   5.231  18.870  0.00  0.00    +0.000 A 
ENDBRANCH   2  10
BRANCH   1  18
ATOM     17  C   UNL     1       2.107   7.289  18.384  0.00  0.00    +0.000 C 
ATOM     18  C   UNL     1       2.107   6.100  18.201  0.00  0.00    +0.000 C 
ENDBRANCH   1  18
TORSDOF 2
ENDMDL
MODEL 6
REMARK VINA RESULT:      -6.3      2.545      5.476
REMARK  Name = 
REMARK  4 active torsions:
REMARK  status: ('A' for Active; 'I' for Inactive)
REMARK    1  A    between atoms: C_2  and  C_3
REMARK    2  A    between atoms: C_4  and  C_5
REMARK    3  A    between atoms: C_8  and  C_9
REMARK    4  A    between atoms: N_17  and  C_18
REMARK                            x       y       z     vdW  Elec       q    Type
REMARK                         _______ _______ _______ _____ _____    ______ ____
ROOT
ATOM      1  C   UNL     1       3.820   4.824  16.889  0.00  0.00    +0.000 C 
ATOM      2  C   UNL     1       4.142   6.337  17.247  0.00  0.00    +0.000 C 
ATOM      3  C   UNL     1       5.584   6.541  17.786  0.00  0.00    +0.000 C 
ATOM      4  C   UNL     1       6.478   5.270  17.926  0.00  0.00    +0.000 C 
ATOM      5  C   UNL     1       7.036   4.813  16.577  0.00  0.00    +0.000 C 
ATOM      6  C   UNL     1       6.034   3.764  16.100  0.00  0.00    +0.000 C 
ATOM      7  C   UNL     1       4.949   3.754  17.181  0.00  0.00    +0.000 C 
ATOM      8  N   UNL     1       5.734   4.076  18.373  0.00  0.00    +0.000 NA
ATOM      9  C   UNL     1       4.973   4.115  19.620  0.00  0.00    +0.000 C 
ENDROOT
BRANCH   2  10
ATOM     10  C   UNL     1       3.049   7.026  18.149  0.00  0.00    +0.000 A 
ATOM     11  C   UNL     1       2.312   8.156  17.708  0.00  0.00    +0.000 A 
ATOM     12  C   UNL     1       1.534   8.908  18.576  0.00  0.00    +0.000 A 
ATOM     13  C   UNL     1       1.413   8.558  19.914  0.00  0.00    +0.000 A 
ATOM     14  C   UNL     1       0.634   9.463  20.830  0.00  0.00    +0.000 C 
ATOM     15  C   UNL     1       2.043   7.384  20.368  0.00  0.00    +0.000 A 
ATOM     16  C   UNL     1       2.865   6.632  19.498  0.00  0.00    +0.000 A 
ENDBRANCH   2  10
BRANCH   1  18
ATOM     17  C   UNL     1       1.438   4.085  17.872  0.00  0.00    +0.000 C 
ATOM     18  C   UNL     1       2.498   4.444  17.431  0.00  0.00    +0.000 C 
ENDBRANCH   1  18
TORSDOF 2
ENDMDL
MODEL 7
REMARK VINA RESULT:      -6.2      1.310      2.420
REMARK  Name = 
REMARK  4 active torsions:
REMARK  status: ('A' for Active; 'I' for Inactive)
REMARK    1  A    between atoms: C_2  and  C_3
REMARK    2  A    between atoms: C_4  and  C_5
REMARK    3  A    between atoms: C_8  and  C_9
REMARK    4  A    between atoms: N_17  and  C_18
REMARK                            x       y       z     vdW  Elec       q    Type
REMARK                         _______ _______ _______ _____ _____    ______ ____
ROOT
ATOM      1  C   UNL     1       3.658   3.242  19.619  0.00  0.00    +0.000 C 
ATOM      2  C   UNL     1       4.395   4.566  19.144  0.00  0.00    +0.000 C 
ATOM      3  C   UNL     1       3.479   5.819  19.182  0.00  0.00    +0.000 C 
ATOM      4  C   UNL     1       2.002   5.608  19.638  0.00  0.00    +0.000 C 
ATOM      5  C   UNL     1       1.888   5.466  21.157  0.00  0.00    +0.000 C 
ATOM      6  C   UNL     1       1.924   3.957  21.389  0.00  0.00    +0.000 C 
ATOM      7  C   UNL     1       2.125   3.361  19.992  0.00  0.00    +0.000 C 
ATOM      8  N   UNL     1       1.418   4.338  19.163  0.00  0.00    +0.000 NA
ATOM      9  C   UNL     1       1.397   4.033  17.734  0.00  0.00    +0.000 C 
ENDROOT
BRANCH   2  10
ATOM     10  C   UNL     1       5.165   4.412  17.778  0.00  0.00    +0.000 A 
ATOM     11  C   UNL     1       6.582   4.392  17.711  0.00  0.00    +0.000 A 
ATOM     12  C   UNL     1       7.261   4.503  16.505  0.00  0.00    +0.000 A 
ATOM     13  C   UNL     1       6.572   4.599  15.303  0.00  0.00    +0.000 A 
ATOM     14  C   UNL     1       7.357   4.813  14.037  0.00  0.00    +0.000 C 
ATOM     15  C   UNL     1       5.167   4.517  15.317  0.00  0.00    +0.000 A 
ATOM     16  C   UNL     1       4.468   4.438  16.544  0.00  0.00    +0.000 A 
ENDBRANCH   2  10
BRANCH   1  18
ATOM     17  C   UNL     1       4.137   1.217  17.930  0.00  0.00    +0.000 C 
ATOM     18  C   UNL     1       3.950   2.135  18.684  0.00  0.00    +0.000 C 
ENDBRANCH   1  18
TORSDOF 2
ENDMDL
MODEL 8
REMARK VINA RESULT:      -6.2      1.885      5.599
REMARK  Name = 
REMARK  4 active torsions:
REMARK  status: ('A' for Active; 'I' for Inactive)
REMARK    1  A    between atoms: C_2  and  C_3
REMARK    2  A    between atoms: C_4  and  C_5
REMARK    3  A    between atoms: C_8  and  C_9
REMARK    4  A    between atoms: N_17  and  C_18
REMARK                            x       y       z     vdW  Elec       q    Type
REMARK                         _______ _______ _______ _____ _____    ______ ____
ROOT
ATOM      1  C   UNL     1       6.643   4.480  17.176  0.00  0.00    +0.000 C 
ATOM      2  C   UNL     1       5.313   3.616  17.079  0.00  0.00    +0.000 C 
ATOM      3  C   UNL     1       4.502   3.892  15.785  0.00  0.00    +0.000 C 
ATOM      4  C   UNL     1       5.067   4.966  14.805  0.00  0.00    +0.000 C 
ATOM      5  C   UNL     1       6.230   4.423  13.972  0.00  0.00    +0.000 C 
ATOM      6  C   UNL     1       7.471   4.834  14.760  0.00  0.00    +0.000 C 
ATOM      7  C   UNL     1       6.918   5.518  16.014  0.00  0.00    +0.000 C 
ATOM      8  N   UNL     1       5.689   6.116  15.491  0.00  0.00    +0.000 NA
ATOM      9  C   UNL     1       4.919   6.891  16.462  0.00  0.00    +0.000 C 
ENDROOT
BRANCH   2  10
ATOM     10  C   UNL     1       4.425   3.663  18.380  0.00  0.00    +0.000 A 
ATOM     11  C   UNL     1       4.562   2.706  19.419  0.00  0.00    +0.000 A 
ATOM     12  C   UNL     1       3.630   2.596  20.442  0.00  0.00    +0.000 A 
ATOM     13  C   UNL     1       2.539   3.453  20.510  0.00  0.00    +0.000 A 
ATOM     14  C   UNL     1       1.510   3.227  21.584  0.00  0.00    +0.000 C 
ATOM     15  C   UNL     1       2.424   4.484  19.558  0.00  0.00    +0.000 A 
ATOM     16  C   UNL     1       3.351   4.580  18.494  0.00  0.00    +0.000 A 
ENDBRANCH   2  10
BRANCH   1  18
ATOM     17  C   UNL     1       6.921   5.562  19.613  0.00  0.00    +0.000 C 
ATOM     18  C   UNL     1       6.769   5.066  18.528  0.00  0.00    +0.000 C 
ENDBRANCH   1  18
TORSDOF 2
ENDMDL
MODEL 9
REMARK VINA RESULT:      -6.1      1.719      3.369
REMARK  Name = 
REMARK  4 active torsions:
REMARK  status: ('A' for Active; 'I' for Inactive)
REMARK    1  A    between atoms: C_2  and  C_3
REMARK    2  A    between atoms: C_4  and  C_5
REMARK    3  A    between atoms: C_8  and  C_9
REMARK    4  A    between atoms: N_17  and  C_18
REMARK                            x       y       z     vdW  Elec       q    Type
REMARK                         _______ _______ _______ _____ _____    ______ ____
ROOT
ATOM      1  C   UNL     1       3.917   3.123  18.153  0.00  0.00    +0.000 C 
ATOM      2  C   UNL     1       4.546   4.108  19.229  0.00  0.00    +0.000 C 
ATOM      3  C   UNL     1       3.486   4.729  20.178  0.00  0.00    +0.000 C 
ATOM      4  C   UNL     1       1.996   4.338  19.933  0.00  0.00    +0.000 C 
ATOM      5  C   UNL     1       1.675   2.943  20.474  0.00  0.00    +0.000 C 
ATOM      6  C   UNL     1       1.864   2.029  19.266  0.00  0.00    +0.000 C 
ATOM      7  C   UNL     1       2.343   2.963  18.150  0.00  0.00    +0.000 C 
ATOM      8  N   UNL     1       1.651   4.203  18.504  0.00  0.00    +0.000 NA
ATOM      9  C   UNL     1       1.881   5.320  17.590  0.00  0.00    +0.000 C 
ENDROOT
BRANCH   2  10
ATOM     10  C   UNL     1       5.523   5.181  18.616  0.00  0.00    +0.000 A 
ATOM     11  C   UNL     1       6.910   5.198  18.920  0.00  0.00    +0.000 A 
ATOM     12  C   UNL     1       7.721   6.272  18.585  0.00  0.00    +0.000 A 
ATOM     13  C   UNL     1       7.212   7.366  17.897  0.00  0.00    +0.000 A 
ATOM     14  C   UNL     1       8.114   8.543  17.644  0.00  0.00    +0.000 C 
ATOM     15  C   UNL     1       5.866   7.342  17.484  0.00  0.00    +0.000 A 
ATOM     16  C   UNL     1       5.025   6.266  17.852  0.00  0.00    +0.000 A 
ENDBRANCH   2  10
BRANCH   1  18
ATOM     17  C   UNL     1       4.988   3.630  15.749  0.00  0.00    +0.000 C 
ATOM     18  C   UNL     1       4.481   3.405  16.816  0.00  0.00    +0.000 C 
ENDBRANCH   1  18
TORSDOF 2
ENDMDL
