MODEL 1
REMARK VINA RESULT:      -8.3      0.000      0.000
REMARK  Name = 
REMARK  7 active torsions:
REMARK  status: ('A' for Active; 'I' for Inactive)
REMARK    1  A    between atoms: C_1  and  C_2
REMARK    2  A    between atoms: C_2  and  N_3
REMARK    3  A    between atoms: N_12  and  C_13
REMARK    4  A    between atoms: C_13  and  C_14
REMARK    5  A    between atoms: N_16  and  C_17
REMARK    6  A    between atoms: C_17  and  C_18
REMARK    7  A    between atoms: C_18  and  C_19
REMARK                            x       y       z     vdW  Elec       q    Type
REMARK                         _______ _______ _______ _____ _____    ______ ____
ROOT
ATOM      1  N   UNL     1       4.557   4.266  18.410  0.00  0.00    +0.000 N 
ATOM      2  C   UNL     1       4.201   3.963  17.105  0.00  0.00    +0.000 A 
ATOM      3  O   UNL     1       3.113   3.489  16.782  0.00  0.00    +0.000 OA
ATOM      4  C   UNL     1       5.214   4.213  16.067  0.00  0.00    +0.000 A 
ATOM      5  C   UNL     1       4.965   3.796  14.749  0.00  0.00    +0.000 A 
ATOM      6  C   UNL     1       5.926   3.991  13.764  0.00  0.00    +0.000 A 
ATOM      7  C   UNL     1       7.120   4.624  14.092  0.00  0.00    +0.000 A 
ATOM      8  C   UNL     1       7.356   5.057  15.405  0.00  0.00    +0.000 A 
ATOM      9  C   UNL     1       6.410   4.842  16.417  0.00  0.00    +0.000 A 
ATOM     10  N   UNL     1       6.636   5.201  17.774  0.00  0.00    +0.000 N 
ATOM     11  C   UNL     1       5.779   4.802  18.789  0.00  0.00    +0.000 A 
ATOM     12  O   UNL     1       6.103   4.931  19.975  0.00  0.00    +0.000 OA
ENDROOT
BRANCH   1  14
ATOM     13  C   UNL     1       2.705   5.094  19.803  0.00  0.00    +0.000 C 
ATOM     14  C   UNL     1       3.611   3.920  19.464  0.00  0.00    +0.000 C 
ENDBRANCH   1  14
BRANCH  10  15
ATOM     15  C   UNL     1       7.823   5.947  18.185  0.00  0.00    +0.000 C 
BRANCH  15  16
ATOM     16  C   UNL     1       7.671   7.450  17.947  0.00  0.00    +0.000 C 
ATOM     17  O   UNL     1       6.817   7.897  17.182  0.00  0.00    +0.000 OA
ATOM     18  N   UNL     1       8.586   8.248  18.611  0.00  0.00    +0.000 N 
ATOM     19  H   UNL     1       9.462   7.793  18.873  0.00  0.00    +0.000 HD
BRANCH  18  20
ATOM     20  C   UNL     1       8.618   9.675  18.333  0.00  0.00    +0.000 C 
BRANCH  20  21
ATOM     21  C   UNL     1       9.443  10.486  19.335  0.00  0.00    +0.000 C 
BRANCH  21  22
ATOM     22  C   UNL     1       9.997  11.749  18.704  0.00  0.00    +0.000 C 
ATOM     23  C   UNL     1       9.326  12.916  18.738  0.00  0.00    +0.000 C 
ATOM     24  C   UNL     1       9.829  14.185  18.112  0.00  0.00    +0.000 C 
ATOM     25  C   UNL     1      10.965  13.952  17.117  0.00  0.00    +0.000 C 
ATOM     26  C   UNL     1      11.991  12.979  17.687  0.00  0.00    +0.000 C 
ATOM     27  C   UNL     1      11.350  11.631  18.033  0.00  0.00    +0.000 C 
ENDBRANCH  21  22
ENDBRANCH  20  21
ENDBRANCH  18  20
ENDBRANCH  15  16
ENDBRANCH  10  15
TORSDOF 6
ENDMDL
MODEL 2
REMARK VINA RESULT:      -8.2      0.567      1.090
REMARK  Name = 
REMARK  7 active torsions:
REMARK  status: ('A' for Active; 'I' for Inactive)
REMARK    1  A    between atoms: C_1  and  C_2
REMARK    2  A    between atoms: C_2  and  N_3
REMARK    3  A    between atoms: N_12  and  C_13
REMARK    4  A    between atoms: C_13  and  C_14
REMARK    5  A    between atoms: N_16  and  C_17
REMARK    6  A    between atoms: C_17  and  C_18
REMARK    7  A    between atoms: C_18  and  C_19
REMARK                            x       y       z     vdW  Elec       q    Type
REMARK                         _______ _______ _______ _____ _____    ______ ____
ROOT
ATOM      1  N   UNL     1       4.521   4.295  18.434  0.00  0.00    +0.000 N 
ATOM      2  C   UNL     1       4.128   3.992  17.140  0.00  0.00    +0.000 A 
ATOM      3  O   UNL     1       3.019   3.550  16.844  0.00  0.00    +0.000 OA
ATOM      4  C   UNL     1       5.125   4.200  16.079  0.00  0.00    +0.000 A 
ATOM      5  C   UNL     1       4.835   3.781  14.770  0.00  0.00    +0.000 A 
ATOM      6  C   UNL     1       5.782   3.937  13.763  0.00  0.00    +0.000 A 
ATOM      7  C   UNL     1       7.002   4.534  14.061  0.00  0.00    +0.000 A 
ATOM      8  C   UNL     1       7.278   4.971  15.364  0.00  0.00    +0.000 A 
ATOM      9  C   UNL     1       6.348   4.795  16.398  0.00  0.00    +0.000 A 
ATOM     10  N   UNL     1       6.614   5.157  17.747  0.00  0.00    +0.000 N 
ATOM     11  C   UNL     1       5.766   4.795  18.783  0.00  0.00    +0.000 A 
ATOM     12  O   UNL     1       6.119   4.923  19.961  0.00  0.00    +0.000 OA
ENDROOT
BRANCH   1  14
ATOM     13  C   UNL     1       3.745   2.553  19.991  0.00  0.00    +0.000 C 
ATOM     14  C   UNL     1       3.586   3.988  19.511  0.00  0.00    +0.000 C 
ENDBRANCH   1  14
BRANCH  10  15
ATOM     15  C   UNL     1       7.832   5.869  18.125  0.00  0.00    +0.000 C 
BRANCH  15  16
ATOM     16  C   UNL     1       7.701   7.381  17.933  0.00  0.00    +0.000 C 
ATOM     17  O   UNL     1       6.891   7.861  17.141  0.00  0.00    +0.000 OA
ATOM     18  N   UNL     1       8.586   8.148  18.671  0.00  0.00    +0.000 N 
ATOM     19  H   UNL     1       9.444   7.678  18.961  0.00  0.00    +0.000 HD
BRANCH  18  20
ATOM     20  C   UNL     1       8.640   9.583  18.444  0.00  0.00    +0.000 C 
BRANCH  20  21
ATOM     21  C   UNL     1       9.409  10.354  19.520  0.00  0.00    +0.000 C 
BRANCH  21  22
ATOM     22  C   UNL     1      10.062  11.599  18.952  0.00  0.00    +0.000 C 
ATOM     23  C   UNL     1      10.621  11.614  17.726  0.00  0.00    +0.000 C 
ATOM     24  C   UNL     1      11.293  12.819  17.132  0.00  0.00    +0.000 C 
ATOM     25  C   UNL     1      11.624  13.892  18.168  0.00  0.00    +0.000 C 
ATOM     26  C   UNL     1      10.443  14.120  19.105  0.00  0.00    +0.000 C 
ATOM     27  C   UNL     1      10.052  12.830  19.833  0.00  0.00    +0.000 C 
ENDBRANCH  21  22
ENDBRANCH  20  21
ENDBRANCH  18  20
ENDBRANCH  15  16
ENDBRANCH  10  15
TORSDOF 6
ENDMDL
MODEL 3
REMARK VINA RESULT:      -8.2      2.182      3.723
REMARK  Name = 
REMARK  7 active torsions:
REMARK  status: ('A' for Active; 'I' for Inactive)
REMARK    1  A    between atoms: C_1  and  C_2
REMARK    2  A    between atoms: C_2  and  N_3
REMARK    3  A    between atoms: N_12  and  C_13
REMARK    4  A    between atoms: C_13  and  C_14
REMARK    5  A    between atoms: N_16  and  C_17
REMARK    6  A    between atoms: C_17  and  C_18
REMARK    7  A    between atoms: C_18  and  C_19
REMARK                            x       y       z     vdW  Elec       q    Type
REMARK                         _______ _______ _______ _____ _____    ______ ____
ROOT
ATOM      1  N   UNL     1       3.691   4.310  19.425  0.00  0.00    +0.000 N 
ATOM      2  C   UNL     1       2.776   5.232  19.911  0.00  0.00    +0.000 A 
ATOM      3  O   UNL     1       2.025   5.018  20.862  0.00  0.00    +0.000 OA
ATOM      4  C   UNL     1       2.705   6.525  19.214  0.00  0.00    +0.000 A 
ATOM      5  C   UNL     1       1.704   7.444  19.570  0.00  0.00    +0.000 A 
ATOM      6  C   UNL     1       1.601   8.656  18.897  0.00  0.00    +0.000 A 
ATOM      7  C   UNL     1       2.511   8.957  17.890  0.00  0.00    +0.000 A 
ATOM      8  C   UNL     1       3.522   8.046  17.553  0.00  0.00    +0.000 A 
ATOM      9  C   UNL     1       3.623   6.807  18.201  0.00  0.00    +0.000 A 
ATOM     10  N   UNL     1       4.587   5.824  17.843  0.00  0.00    +0.000 N 
ATOM     11  C   UNL     1       4.544   4.536  18.355  0.00  0.00    +0.000 A 
ATOM     12  O   UNL     1       5.247   3.641  17.872  0.00  0.00    +0.000 OA
ENDROOT
BRANCH   1  14
ATOM     13  C   UNL     1       2.674   2.069  19.369  0.00  0.00    +0.000 C 
ATOM     14  C   UNL     1       3.696   2.983  20.029  0.00  0.00    +0.000 C 
ENDBRANCH   1  14
BRANCH  10  15
ATOM     15  C   UNL     1       5.633   6.096  16.860  0.00  0.00    +0.000 C 
BRANCH  15  16
ATOM     16  C   UNL     1       6.894   6.677  17.503  0.00  0.00    +0.000 C 
ATOM     17  O   UNL     1       7.619   5.995  18.226  0.00  0.00    +0.000 OA
ATOM     18  N   UNL     1       7.120   8.018  17.249  0.00  0.00    +0.000 N 
ATOM     19  H   UNL     1       6.296   8.567  17.001  0.00  0.00    +0.000 HD
BRANCH  18  20
ATOM     20  C   UNL     1       8.208   8.696  17.935  0.00  0.00    +0.000 C 
BRANCH  20  21
ATOM     21  C   UNL     1       8.236  10.210  17.712  0.00  0.00    +0.000 C 
BRANCH  21  22
ATOM     22  C   UNL     1       9.406  10.855  18.430  0.00  0.00    +0.000 C 
ATOM     23  C   UNL     1      10.402  11.468  17.762  0.00  0.00    +0.000 C 
ATOM     24  C   UNL     1      11.587  12.104  18.431  0.00  0.00    +0.000 C 
ATOM     25  C   UNL     1      11.759  11.666  19.885  0.00  0.00    +0.000 C 
ATOM     26  C   UNL     1      10.423  11.693  20.618  0.00  0.00    +0.000 C 
ATOM     27  C   UNL     1       9.397  10.777  19.942  0.00  0.00    +0.000 C 
ENDBRANCH  21  22
ENDBRANCH  20  21
ENDBRANCH  18  20
ENDBRANCH  15  16
ENDBRANCH  10  15
TORSDOF 6
ENDMDL
MODEL 4
REMARK VINA RESULT:      -8.2      2.062      3.648
REMARK  Name = 
REMARK  7 active torsions:
REMARK  status: ('A' for Active; 'I' for Inactive)
REMARK    1  A    between atoms: C_1  and  C_2
REMARK    2  A    between atoms: C_2  and  N_3
REMARK    3  A    between atoms: N_12  and  C_13
REMARK    4  A    between atoms: C_13  and  C_14
REMARK    5  A    between atoms: N_16  and  C_17
REMARK    6  A    between atoms: C_17  and  C_18
REMARK    7  A    between atoms: C_18  and  C_19
REMARK                            x       y       z     vdW  Elec       q    Type
REMARK                         _______ _______ _______ _____ _____    ______ ____
ROOT
ATOM      1  N   UNL     1       4.059   4.055  19.124  0.00  0.00    +0.000 N 
ATOM      2  C   UNL     1       3.159   4.873  19.791  0.00  0.00    +0.000 A 
ATOM      3  O   UNL     1       2.538   4.534  20.798  0.00  0.00    +0.000 OA
ATOM      4  C   UNL     1       2.937   6.212  19.225  0.00  0.00    +0.000 A 
ATOM      5  C   UNL     1       1.936   7.033  19.772  0.00  0.00    +0.000 A 
ATOM      6  C   UNL     1       1.688   8.287  19.225  0.00  0.00    +0.000 A 
ATOM      7  C   UNL     1       2.456   8.727  18.152  0.00  0.00    +0.000 A 
ATOM      8  C   UNL     1       3.468   7.913  17.623  0.00  0.00    +0.000 A 
ATOM      9  C   UNL     1       3.712   6.634  18.143  0.00  0.00    +0.000 A 
ATOM     10  N   UNL     1       4.678   5.748  17.592  0.00  0.00    +0.000 N 
ATOM     11  C   UNL     1       4.766   4.422  17.990  0.00  0.00    +0.000 A 
ATOM     12  O   UNL     1       5.454   3.617  17.352  0.00  0.00    +0.000 OA
ENDROOT
BRANCH   1  14
ATOM     13  C   UNL     1       3.269   1.737  18.872  0.00  0.00    +0.000 C 
ATOM     14  C   UNL     1       4.207   2.685  19.604  0.00  0.00    +0.000 C 
ENDBRANCH   1  14
BRANCH  10  15
ATOM     15  C   UNL     1       5.585   6.166  16.526  0.00  0.00    +0.000 C 
BRANCH  15  16
ATOM     16  C   UNL     1       6.909   6.703  17.070  0.00  0.00    +0.000 C 
ATOM     17  O   UNL     1       7.835   5.950  17.369  0.00  0.00    +0.000 OA
ATOM     18  N   UNL     1       6.963   8.075  17.242  0.00  0.00    +0.000 N 
ATOM     19  H   UNL     1       6.063   8.543  17.357  0.00  0.00    +0.000 HD
BRANCH  18  20
ATOM     20  C   UNL     1       8.123   8.664  17.893  0.00  0.00    +0.000 C 
BRANCH  20  21
ATOM     21  C   UNL     1       8.296  10.161  17.620  0.00  0.00    +0.000 C 
BRANCH  21  22
ATOM     22  C   UNL     1       9.368  10.765  18.505  0.00  0.00    +0.000 C 
ATOM     23  C   UNL     1       9.263  10.774  19.848  0.00  0.00    +0.000 C 
ATOM     24  C   UNL     1      10.292  11.378  20.761  0.00  0.00    +0.000 C 
ATOM     25  C   UNL     1      11.264  12.307  20.035  0.00  0.00    +0.000 C 
ATOM     26  C   UNL     1      11.744  11.676  18.733  0.00  0.00    +0.000 C 
ATOM     27  C   UNL     1      10.569  11.360  17.800  0.00  0.00    +0.000 C 
ENDBRANCH  21  22
ENDBRANCH  20  21
ENDBRANCH  18  20
ENDBRANCH  15  16
ENDBRANCH  10  15
TORSDOF 6
ENDMDL
MODEL 5
REMARK VINA RESULT:      -8.2      5.212      7.990
REMARK  Name = 
REMARK  7 active torsions:
REMARK  status: ('A' for Active; 'I' for Inactive)
REMARK    1  A    between atoms: C_1  and  C_2
REMARK    2  A    between atoms: C_2  and  N_3
REMARK    3  A    between atoms: N_12  and  C_13
REMARK    4  A    between atoms: C_13  and  C_14
REMARK    5  A    between atoms: N_16  and  C_17
REMARK    6  A    between atoms: C_17  and  C_18
REMARK    7  A    between atoms: C_18  and  C_19
REMARK                            x       y       z     vdW  Elec       q    Type
REMARK                         _______ _______ _______ _____ _____    ______ ____
ROOT
ATOM      1  N   UNL     1       1.773   4.187  19.318  0.00  0.00    +0.000 N 
ATOM      2  C   UNL     1       2.439   3.636  18.234  0.00  0.00    +0.000 A 
ATOM      3  O   UNL     1       2.251   2.492  17.821  0.00  0.00    +0.000 OA
ATOM      4  C   UNL     1       3.440   4.485  17.570  0.00  0.00    +0.000 A 
ATOM      5  C   UNL     1       4.244   3.936  16.557  0.00  0.00    +0.000 A 
ATOM      6  C   UNL     1       5.220   4.715  15.945  0.00  0.00    +0.000 A 
ATOM      7  C   UNL     1       5.372   6.043  16.327  0.00  0.00    +0.000 A 
ATOM      8  C   UNL     1       4.552   6.592  17.323  0.00  0.00    +0.000 A 
ATOM      9  C   UNL     1       3.583   5.814  17.971  0.00  0.00    +0.000 A 
ATOM     10  N   UNL     1       2.779   6.310  19.035  0.00  0.00    +0.000 N 
ATOM     11  C   UNL     1       1.973   5.475  19.793  0.00  0.00    +0.000 A 
ATOM     12  O   UNL     1       1.457   5.878  20.842  0.00  0.00    +0.000 OA
ENDROOT
BRANCH   1  14
ATOM     13  C   UNL     1       1.559   2.658  21.235  0.00  0.00    +0.000 C 
ATOM     14  C   UNL     1       0.860   3.323  20.058  0.00  0.00    +0.000 C 
ENDBRANCH   1  14
BRANCH  10  15
ATOM     15  C   UNL     1       2.814   7.714  19.434  0.00  0.00    +0.000 C 
BRANCH  15  16
ATOM     16  C   UNL     1       1.786   8.556  18.677  0.00  0.00    +0.000 C 
ATOM     17  O   UNL     1       1.571   8.384  17.478  0.00  0.00    +0.000 OA
ATOM     18  N   UNL     1       1.165   9.541  19.424  0.00  0.00    +0.000 N 
ATOM     19  H   UNL     1       1.678   9.863  20.246  0.00  0.00    +0.000 HD
BRANCH  18  20
ATOM     20  C   UNL     1       0.284  10.488  18.758  0.00  0.00    +0.000 C 
BRANCH  20  21
ATOM     21  C   UNL     1      -1.181  10.383  19.188  0.00  0.00    +0.000 C 
BRANCH  21  22
ATOM     22  C   UNL     1      -2.116  10.474  17.998  0.00  0.00    +0.000 C 
ATOM     23  C   UNL     1      -1.914   9.758  16.875  0.00  0.00    +0.000 C 
ATOM     24  C   UNL     1      -2.804   9.831  15.668  0.00  0.00    +0.000 C 
ATOM     25  C   UNL     1      -3.722  11.052  15.675  0.00  0.00    +0.000 C 
ATOM     26  C   UNL     1      -4.359  11.241  17.047  0.00  0.00    +0.000 C 
ATOM     27  C   UNL     1      -3.296  11.413  18.136  0.00  0.00    +0.000 C 
ENDBRANCH  21  22
ENDBRANCH  20  21
ENDBRANCH  18  20
ENDBRANCH  15  16
ENDBRANCH  10  15
TORSDOF 6
ENDMDL
MODEL 6
REMARK VINA RESULT:      -8.0      5.186      7.884
REMARK  Name = 
REMARK  7 active torsions:
REMARK  status: ('A' for Active; 'I' for Inactive)
REMARK    1  A    between atoms: C_1  and  C_2
REMARK    2  A    between atoms: C_2  and  N_3
REMARK    3  A    between atoms: N_12  and  C_13
REMARK    4  A    between atoms: C_13  and  C_14
REMARK    5  A    between atoms: N_16  and  C_17
REMARK    6  A    between atoms: C_17  and  C_18
REMARK    7  A    between atoms: C_18  and  C_19
REMARK                            x       y       z     vdW  Elec       q    Type
REMARK                         _______ _______ _______ _____ _____    ______ ____
ROOT
ATOM      1  N   UNL     1       1.796   4.131  19.103  0.00  0.00    +0.000 N 
ATOM      2  C   UNL     1       2.453   3.563  18.022  0.00  0.00    +0.000 A 
ATOM      3  O   UNL     1       2.222   2.434  17.593  0.00  0.00    +0.000 OA
ATOM      4  C   UNL     1       3.501   4.374  17.384  0.00  0.00    +0.000 A 
ATOM      5  C   UNL     1       4.296   3.802  16.377  0.00  0.00    +0.000 A 
ATOM      6  C   UNL     1       5.315   4.544  15.789  0.00  0.00    +0.000 A 
ATOM      7  C   UNL     1       5.519   5.859  16.190  0.00  0.00    +0.000 A 
ATOM      8  C   UNL     1       4.710   6.433  17.180  0.00  0.00    +0.000 A 
ATOM      9  C   UNL     1       3.697   5.691  17.804  0.00  0.00    +0.000 A 
ATOM     10  N   UNL     1       2.899   6.209  18.861  0.00  0.00    +0.000 N 
ATOM     11  C   UNL     1       2.045   5.402  19.597  0.00  0.00    +0.000 A 
ATOM     12  O   UNL     1       1.531   5.815  20.643  0.00  0.00    +0.000 OA
ENDROOT
BRANCH   1  14
ATOM     13  C   UNL     1       1.485   2.587  20.995  0.00  0.00    +0.000 C 
ATOM     14  C   UNL     1       0.834   3.299  19.819  0.00  0.00    +0.000 C 
ENDBRANCH   1  14
BRANCH  10  15
ATOM     15  C   UNL     1       2.990   7.606  19.279  0.00  0.00    +0.000 C 
BRANCH  15  16
ATOM     16  C   UNL     1       2.049   8.510  18.481  0.00  0.00    +0.000 C 
ATOM     17  O   UNL     1       2.154   8.629  17.261  0.00  0.00    +0.000 OA
ATOM     18  N   UNL     1       1.121   9.207  19.234  0.00  0.00    +0.000 N 
ATOM     19  H   UNL     1       1.368   9.356  20.213  0.00  0.00    +0.000 HD
BRANCH  18  20
ATOM     20  C   UNL     1       0.283  10.203  18.584  0.00  0.00    +0.000 C 
BRANCH  20  21
ATOM     21  C   UNL     1      -1.129  10.303  19.167  0.00  0.00    +0.000 C 
BRANCH  21  22
ATOM     22  C   UNL     1      -2.153  10.600  18.089  0.00  0.00    +0.000 C 
ATOM     23  C   UNL     1      -3.221  11.388  18.318  0.00  0.00    +0.000 C 
ATOM     24  C   UNL     1      -4.269  11.694  17.286  0.00  0.00    +0.000 C 
ATOM     25  C   UNL     1      -4.227  10.742  16.091  0.00  0.00    +0.000 C 
ATOM     26  C   UNL     1      -2.793  10.534  15.617  0.00  0.00    +0.000 C 
ATOM     27  C   UNL     1      -1.913   9.965  16.735  0.00  0.00    +0.000 C 
ENDBRANCH  21  22
ENDBRANCH  20  21
ENDBRANCH  18  20
ENDBRANCH  15  16
ENDBRANCH  10  15
TORSDOF 6
ENDMDL
MODEL 7
REMARK VINA RESULT:      -7.8      1.074      1.520
REMARK  Name = 
REMARK  7 active torsions:
REMARK  status: ('A' for Active; 'I' for Inactive)
REMARK    1  A    between atoms: C_1  and  C_2
REMARK    2  A    between atoms: C_2  and  N_3
REMARK    3  A    between atoms: N_12  and  C_13
REMARK    4  A    between atoms: C_13  and  C_14
REMARK    5  A    between atoms: N_16  and  C_17
REMARK    6  A    between atoms: C_17  and  C_18
REMARK    7  A    between atoms: C_18  and  C_19
REMARK                            x       y       z     vdW  Elec       q    Type
REMARK                         _______ _______ _______ _____ _____    ______ ____
ROOT
ATOM      1  N   UNL     1       4.726   4.317  18.470  0.00  0.00    +0.000 N 
ATOM      2  C   UNL     1       4.318   3.966  17.192  0.00  0.00    +0.000 A 
ATOM      3  O   UNL     1       3.238   3.435  16.938  0.00  0.00    +0.000 OA
ATOM      4  C   UNL     1       5.263   4.236  16.098  0.00  0.00    +0.000 A 
ATOM      5  C   UNL     1       4.965   3.777  14.804  0.00  0.00    +0.000 A 
ATOM      6  C   UNL     1       5.865   3.992  13.765  0.00  0.00    +0.000 A 
ATOM      7  C   UNL     1       7.043   4.686  14.016  0.00  0.00    +0.000 A 
ATOM      8  C   UNL     1       7.325   5.161  15.305  0.00  0.00    +0.000 A 
ATOM      9  C   UNL     1       6.444   4.928  16.370  0.00  0.00    +0.000 A 
ATOM     10  N   UNL     1       6.723   5.329  17.705  0.00  0.00    +0.000 N 
ATOM     11  C   UNL     1       5.939   4.916  18.773  0.00  0.00    +0.000 A 
ATOM     12  O   UNL     1       6.318   5.088  19.937  0.00  0.00    +0.000 OA
ENDROOT
BRANCH   1  14
ATOM     13  C   UNL     1       2.916   5.095  19.945  0.00  0.00    +0.000 C 
ATOM     14  C   UNL     1       3.852   3.953  19.580  0.00  0.00    +0.000 C 
ENDBRANCH   1  14
BRANCH  10  15
ATOM     15  C   UNL     1       7.893   6.139  18.036  0.00  0.00    +0.000 C 
BRANCH  15  16
ATOM     16  C   UNL     1       7.632   7.634  17.853  0.00  0.00    +0.000 C 
ATOM     17  O   UNL     1       6.693   8.044  17.171  0.00  0.00    +0.000 OA
ATOM     18  N   UNL     1       8.548   8.472  18.464  0.00  0.00    +0.000 N 
ATOM     19  H   UNL     1       9.469   8.067  18.642  0.00  0.00    +0.000 HD
BRANCH  18  20
ATOM     20  C   UNL     1       8.471   9.904  18.223  0.00  0.00    +0.000 C 
BRANCH  20  21
ATOM     21  C   UNL     1       9.823  10.620  18.291  0.00  0.00    +0.000 C 
BRANCH  21  22
ATOM     22  C   UNL     1       9.877  11.594  19.452  0.00  0.00    +0.000 C 
ATOM     23  C   UNL     1       9.342  11.302  20.653  0.00  0.00    +0.000 C 
ATOM     24  C   UNL     1       9.358  12.243  21.823  0.00  0.00    +0.000 C 
ATOM     25  C   UNL     1       9.685  13.683  21.429  0.00  0.00    +0.000 C 
ATOM     26  C   UNL     1      10.862  13.724  20.461  0.00  0.00    +0.000 C 
ATOM     27  C   UNL     1      10.568  12.916  19.192  0.00  0.00    +0.000 C 
ENDBRANCH  21  22
ENDBRANCH  20  21
ENDBRANCH  18  20
ENDBRANCH  15  16
ENDBRANCH  10  15
TORSDOF 6
ENDMDL
MODEL 8
REMARK VINA RESULT:      -7.7      0.895      1.215
REMARK  Name = 
REMARK  7 active torsions:
REMARK  status: ('A' for Active; 'I' for Inactive)
REMARK    1  A    between atoms: C_1  and  C_2
REMARK    2  A    between atoms: C_2  and  N_3
REMARK    3  A    between atoms: N_12  and  C_13
REMARK    4  A    between atoms: C_13  and  C_14
REMARK    5  A    between atoms: N_16  and  C_17
REMARK    6  A    between atoms: C_17  and  C_18
REMARK    7  A    between atoms: C_18  and  C_19
REMARK                            x       y       z     vdW  Elec       q    Type
REMARK                         _______ _______ _______ _____ _____    ______ ____
ROOT
ATOM      1  N   UNL     1       4.502   4.357  18.412  0.00  0.00    +0.000 N 
ATOM      2  C   UNL     1       4.112   4.058  17.115  0.00  0.00    +0.000 A 
ATOM      3  O   UNL     1       2.998   3.632  16.813  0.00  0.00    +0.000 OA
ATOM      4  C   UNL     1       5.119   4.251  16.060  0.00  0.00    +0.000 A 
ATOM      5  C   UNL     1       4.831   3.834  14.750  0.00  0.00    +0.000 A 
ATOM      6  C   UNL     1       5.785   3.976  13.749  0.00  0.00    +0.000 A 
ATOM      7  C   UNL     1       7.012   4.555  14.053  0.00  0.00    +0.000 A 
ATOM      8  C   UNL     1       7.287   4.989  15.357  0.00  0.00    +0.000 A 
ATOM      9  C   UNL     1       6.348   4.828  16.386  0.00  0.00    +0.000 A 
ATOM     10  N   UNL     1       6.611   5.188  17.736  0.00  0.00    +0.000 N 
ATOM     11  C   UNL     1       5.752   4.838  18.768  0.00  0.00    +0.000 A 
ATOM     12  O   UNL     1       6.100   4.963  19.947  0.00  0.00    +0.000 OA
ENDROOT
BRANCH   1  14
ATOM     13  C   UNL     1       3.739   2.650  20.013  0.00  0.00    +0.000 C 
ATOM     14  C   UNL     1       3.556   4.064  19.484  0.00  0.00    +0.000 C 
ENDBRANCH   1  14
BRANCH  10  15
ATOM     15  C   UNL     1       7.837   5.882  18.121  0.00  0.00    +0.000 C 
BRANCH  15  16
ATOM     16  C   UNL     1       7.723   7.397  17.945  0.00  0.00    +0.000 C 
ATOM     17  O   UNL     1       6.942   7.893  17.134  0.00  0.00    +0.000 OA
ATOM     18  N   UNL     1       8.587   8.148  18.722  0.00  0.00    +0.000 N 
ATOM     19  H   UNL     1       9.433   7.668  19.034  0.00  0.00    +0.000 HD
BRANCH  18  20
ATOM     20  C   UNL     1       8.659   9.586  18.518  0.00  0.00    +0.000 C 
BRANCH  20  21
ATOM     21  C   UNL     1       9.529  10.317  19.543  0.00  0.00    +0.000 C 
BRANCH  21  22
ATOM     22  C   UNL     1       9.423  11.822  19.388  0.00  0.00    +0.000 C 
ATOM     23  C   UNL     1       9.578  12.659  20.431  0.00  0.00    +0.000 C 
ATOM     24  C   UNL     1       9.463  14.153  20.326  0.00  0.00    +0.000 C 
ATOM     25  C   UNL     1       8.786  14.611  19.035  0.00  0.00    +0.000 C 
ATOM     26  C   UNL     1       9.338  13.849  17.835  0.00  0.00    +0.000 C 
ATOM     27  C   UNL     1       9.134  12.339  17.993  0.00  0.00    +0.000 C 
ENDBRANCH  21  22
ENDBRANCH  20  21
ENDBRANCH  18  20
ENDBRANCH  15  16
ENDBRANCH  10  15
TORSDOF 6
ENDMDL
MODEL 9
REMARK VINA RESULT:      -7.4      7.490     11.368
REMARK  Name = 
REMARK  7 active torsions:
REMARK  status: ('A' for Active; 'I' for Inactive)
REMARK    1  A    between atoms: C_1  and  C_2
REMARK    2  A    between atoms: C_2  and  N_3
REMARK    3  A    between atoms: N_12  and  C_13
REMARK    4  A    between atoms: C_13  and  C_14
REMARK    5  A    between atoms: N_16  and  C_17
REMARK    6  A    between atoms: C_17  and  C_18
REMARK    7  A    between atoms: C_18  and  C_19
REMARK                            x       y       z     vdW  Elec       q    Type
REMARK                         _______ _______ _______ _____ _____    ______ ____
ROOT
ATOM      1  N   UNL     1      -2.847  10.579  17.737  0.00  0.00    +0.000 N 
ATOM      2  C   UNL     1      -3.899  11.289  18.295  0.00  0.00    +0.000 A 
ATOM      3  O   UNL     1      -5.053  11.256  17.870  0.00  0.00    +0.000 OA
ATOM      4  C   UNL     1      -3.583  12.141  19.451  0.00  0.00    +0.000 A 
ATOM      5  C   UNL     1      -4.574  12.990  19.972  0.00  0.00    +0.000 A 
ATOM      6  C   UNL     1      -4.280  13.829  21.041  0.00  0.00    +0.000 A 
ATOM      7  C   UNL     1      -3.009  13.799  21.602  0.00  0.00    +0.000 A 
ATOM      8  C   UNL     1      -2.029  12.935  21.093  0.00  0.00    +0.000 A 
ATOM      9  C   UNL     1      -2.298  12.104  19.997  0.00  0.00    +0.000 A 
ATOM     10  N   UNL     1      -1.315  11.265  19.404  0.00  0.00    +0.000 N 
ATOM     11  C   UNL     1      -1.542  10.605  18.205  0.00  0.00    +0.000 A 
ATOM     12  O   UNL     1      -0.612  10.064  17.597  0.00  0.00    +0.000 OA
ENDROOT
BRANCH   1  14
ATOM     13  C   UNL     1      -2.901  10.666  15.277  0.00  0.00    +0.000 C 
ATOM     14  C   UNL     1      -3.117   9.818  16.522  0.00  0.00    +0.000 C 
ENDBRANCH   1  14
BRANCH  10  15
ATOM     15  C   UNL     1       0.016  11.109  19.987  0.00  0.00    +0.000 C 
BRANCH  15  16
ATOM     16  C   UNL     1       0.266   9.685  20.484  0.00  0.00    +0.000 C 
ATOM     17  O   UNL     1      -0.415   9.187  21.380  0.00  0.00    +0.000 OA
ATOM     18  N   UNL     1       1.330   9.031  19.889  0.00  0.00    +0.000 N 
ATOM     19  H   UNL     1       2.049   9.632  19.483  0.00  0.00    +0.000 HD
BRANCH  18  20
ATOM     20  C   UNL     1       1.739   7.731  20.397  0.00  0.00    +0.000 C 
BRANCH  20  21
ATOM     21  C   UNL     1       2.440   6.850  19.360  0.00  0.00    +0.000 C 
BRANCH  21  22
ATOM     22  C   UNL     1       2.007   5.402  19.479  0.00  0.00    +0.000 C 
ATOM     23  C   UNL     1       1.635   4.863  20.656  0.00  0.00    +0.000 C 
ATOM     24  C   UNL     1       1.216   3.430  20.821  0.00  0.00    +0.000 C 
ATOM     25  C   UNL     1       1.610   2.551  19.636  0.00  0.00    +0.000 C 
ATOM     26  C   UNL     1       1.286   3.244  18.317  0.00  0.00    +0.000 C 
ATOM     27  C   UNL     1       2.011   4.589  18.201  0.00  0.00    +0.000 C 
ENDBRANCH  21  22
ENDBRANCH  20  21
ENDBRANCH  18  20
ENDBRANCH  15  16
ENDBRANCH  10  15
TORSDOF 6
ENDMDL
