MODEL 1
REMARK VINA RESULT:      -6.8      0.000      0.000
REMARK  Name = 
REMARK  6 active torsions:
REMARK  status: ('A' for Active; 'I' for Inactive)
REMARK    1  A    between atoms: C_1  and  C_2
REMARK    2  A    between atoms: C_6  and  C_7
REMARK    3  A    between atoms: C_8  and  C_9
REMARK    4  A    between atoms: C_9  and  C_10
REMARK    5  A    between atoms: C_10  and  O_11
REMARK    6  A    between atoms: C_14  and  C_15
REMARK                            x       y       z     vdW  Elec       q    Type
REMARK                         _______ _______ _______ _____ _____    ______ ____
ROOT
ATOM      1  C   UNL     1       2.912   8.515  17.623  0.00  0.00    +0.000 C 
ATOM      2  C   UNL     1       3.063   7.104  18.138  0.00  0.00    +0.000 A 
ATOM      3  C   UNL     1       2.207   6.709  19.182  0.00  0.00    +0.000 A 
ATOM      4  C   UNL     1       2.342   5.447  19.731  0.00  0.00    +0.000 A 
ATOM      5  C   UNL     1       3.286   4.554  19.231  0.00  0.00    +0.000 A 
ATOM      6  C   UNL     1       4.150   4.886  18.179  0.00  0.00    +0.000 A 
ATOM      7  C   UNL     1       5.189   3.916  17.687  0.00  0.00    +0.000 C 
ATOM      8  C   UNL     1       4.047   6.201  17.632  0.00  0.00    +0.000 A 
ATOM      9  C   UNL     1       3.183   3.340  20.060  0.00  0.00    +0.000 C 
ATOM     10  O   UNL     1       3.743   2.280  19.843  0.00  0.00    +0.000 OA
ATOM     11  C   UNL     1       2.316   3.638  21.270  0.00  0.00    +0.000 C 
ATOM     12  C   UNL     1       1.430   2.474  21.675  0.00  0.00    +0.000 C 
ATOM     13  C   UNL     1       1.521   4.879  20.847  0.00  0.00    +0.000 C 
ENDROOT
BRANCH   8  14
ATOM     14  C   UNL     1       5.027   6.667  16.557  0.00  0.00    +0.000 C 
BRANCH  14  15
ATOM     15  C   UNL     1       6.392   7.135  17.066  0.00  0.00    +0.000 C 
BRANCH  15  16
ATOM     16  O   UNL     1       7.463   6.456  16.423  0.00  0.00    +0.000 OA
ATOM     17  H   UNL     1       8.261   6.626  16.954  0.00  0.00    +0.000 HD
ENDBRANCH  15  16
ENDBRANCH  14  15
ENDBRANCH   8  14
TORSDOF 3
ENDMDL
MODEL 2
REMARK VINA RESULT:      -6.7      1.446      2.792
REMARK  Name = 
REMARK  6 active torsions:
REMARK  status: ('A' for Active; 'I' for Inactive)
REMARK    1  A    between atoms: C_1  and  C_2
REMARK    2  A    between atoms: C_6  and  C_7
REMARK    3  A    between atoms: C_8  and  C_9
REMARK    4  A    between atoms: C_9  and  C_10
REMARK    5  A    between atoms: C_10  and  O_11
REMARK    6  A    between atoms: C_14  and  C_15
REMARK                            x       y       z     vdW  Elec       q    Type
REMARK                         _______ _______ _______ _____ _____    ______ ____
ROOT
ATOM      1  C   UNL     1       5.677   3.688  15.678  0.00  0.00    +0.000 C 
ATOM      2  C   UNL     1       4.746   4.064  16.804  0.00  0.00    +0.000 A 
ATOM      3  C   UNL     1       4.140   3.012  17.514  0.00  0.00    +0.000 A 
ATOM      4  C   UNL     1       3.234   3.301  18.516  0.00  0.00    +0.000 A 
ATOM      5  C   UNL     1       2.950   4.621  18.857  0.00  0.00    +0.000 A 
ATOM      6  C   UNL     1       3.541   5.708  18.200  0.00  0.00    +0.000 A 
ATOM      7  C   UNL     1       3.184   7.125  18.561  0.00  0.00    +0.000 C 
ATOM      8  C   UNL     1       4.448   5.422  17.135  0.00  0.00    +0.000 A 
ATOM      9  C   UNL     1       1.932   4.562  19.921  0.00  0.00    +0.000 C 
ATOM     10  O   UNL     1       1.535   5.506  20.580  0.00  0.00    +0.000 OA
ATOM     11  C   UNL     1       1.404   3.142  20.024  0.00  0.00    +0.000 C 
ATOM     12  C   UNL     1       1.111   2.712  21.449  0.00  0.00    +0.000 C 
ATOM     13  C   UNL     1       2.498   2.302  19.355  0.00  0.00    +0.000 C 
ENDROOT
BRANCH   8  14
ATOM     14  C   UNL     1       5.045   6.557  16.305  0.00  0.00    +0.000 C 
BRANCH  14  15
ATOM     15  C   UNL     1       6.322   7.185  16.867  0.00  0.00    +0.000 C 
BRANCH  15  16
ATOM     16  O   UNL     1       7.490   6.512  16.417  0.00  0.00    +0.000 OA
ATOM     17  H   UNL     1       7.937   6.166  17.210  0.00  0.00    +0.000 HD
ENDBRANCH  15  16
ENDBRANCH  14  15
ENDBRANCH   8  14
TORSDOF 3
ENDMDL
MODEL 3
REMARK VINA RESULT:      -6.7      1.741      4.975
REMARK  Name = 
REMARK  6 active torsions:
REMARK  status: ('A' for Active; 'I' for Inactive)
REMARK    1  A    between atoms: C_1  and  C_2
REMARK    2  A    between atoms: C_6  and  C_7
REMARK    3  A    between atoms: C_8  and  C_9
REMARK    4  A    between atoms: C_9  and  C_10
REMARK    5  A    between atoms: C_10  and  O_11
REMARK    6  A    between atoms: C_14  and  C_15
REMARK                            x       y       z     vdW  Elec       q    Type
REMARK                         _______ _______ _______ _____ _____    ______ ____
ROOT
ATOM      1  C   UNL     1       1.380   6.505  20.711  0.00  0.00    +0.000 C 
ATOM      2  C   UNL     1       2.224   5.790  19.684  0.00  0.00    +0.000 A 
ATOM      3  C   UNL     1       3.184   6.555  18.997  0.00  0.00    +0.000 A 
ATOM      4  C   UNL     1       3.943   5.963  18.006  0.00  0.00    +0.000 A 
ATOM      5  C   UNL     1       3.795   4.610  17.713  0.00  0.00    +0.000 A 
ATOM      6  C   UNL     1       2.872   3.794  18.380  0.00  0.00    +0.000 A 
ATOM      7  C   UNL     1       2.704   2.344  18.013  0.00  0.00    +0.000 C 
ATOM      8  C   UNL     1       2.052   4.405  19.378  0.00  0.00    +0.000 A 
ATOM      9  C   UNL     1       4.718   4.326  16.599  0.00  0.00    +0.000 C 
ATOM     10  O   UNL     1       4.983   3.223  16.157  0.00  0.00    +0.000 OA
ATOM     11  C   UNL     1       5.238   5.639  16.040  0.00  0.00    +0.000 C 
ATOM     12  C   UNL     1       6.691   5.574  15.608  0.00  0.00    +0.000 C 
ATOM     13  C   UNL     1       4.994   6.636  17.179  0.00  0.00    +0.000 C 
ENDROOT
BRANCH   8  14
ATOM     14  C   UNL     1       0.952   3.602  20.068  0.00  0.00    +0.000 C 
BRANCH  14  15
ATOM     15  C   UNL     1       1.413   2.696  21.211  0.00  0.00    +0.000 C 
BRANCH  15  16
ATOM     16  O   UNL     1       2.198   3.398  22.166  0.00  0.00    +0.000 OA
ATOM     17  H   UNL     1       2.666   2.726  22.692  0.00  0.00    +0.000 HD
ENDBRANCH  15  16
ENDBRANCH  14  15
ENDBRANCH   8  14
TORSDOF 3
ENDMDL
MODEL 4
REMARK VINA RESULT:      -6.4      1.847      5.657
REMARK  Name = 
REMARK  6 active torsions:
REMARK  status: ('A' for Active; 'I' for Inactive)
REMARK    1  A    between atoms: C_1  and  C_2
REMARK    2  A    between atoms: C_6  and  C_7
REMARK    3  A    between atoms: C_8  and  C_9
REMARK    4  A    between atoms: C_9  and  C_10
REMARK    5  A    between atoms: C_10  and  O_11
REMARK    6  A    between atoms: C_14  and  C_15
REMARK                            x       y       z     vdW  Elec       q    Type
REMARK                         _______ _______ _______ _____ _____    ______ ____
ROOT
ATOM      1  C   UNL     1       2.241   1.964  18.932  0.00  0.00    +0.000 C 
ATOM      2  C   UNL     1       2.974   3.072  18.216  0.00  0.00    +0.000 A 
ATOM      3  C   UNL     1       3.982   2.694  17.312  0.00  0.00    +0.000 A 
ATOM      4  C   UNL     1       4.724   3.670  16.674  0.00  0.00    +0.000 A 
ATOM      5  C   UNL     1       4.453   5.019  16.887  0.00  0.00    +0.000 A 
ATOM      6  C   UNL     1       3.446   5.453  17.759  0.00  0.00    +0.000 A 
ATOM      7  C   UNL     1       3.204   6.918  18.002  0.00  0.00    +0.000 C 
ATOM      8  C   UNL     1       2.701   4.454  18.455  0.00  0.00    +0.000 A 
ATOM      9  C   UNL     1       5.442   5.768  16.090  0.00  0.00    +0.000 C 
ATOM     10  O   UNL     1       5.439   6.971  15.901  0.00  0.00    +0.000 OA
ATOM     11  C   UNL     1       6.508   4.809  15.595  0.00  0.00    +0.000 C 
ATOM     12  C   UNL     1       7.001   5.129  14.196  0.00  0.00    +0.000 C 
ATOM     13  C   UNL     1       5.833   3.436  15.694  0.00  0.00    +0.000 C 
ENDROOT
BRANCH   8  14
ATOM     14  C   UNL     1       1.663   4.856  19.501  0.00  0.00    +0.000 C 
BRANCH  14  15
ATOM     15  C   UNL     1       2.200   5.067  20.918  0.00  0.00    +0.000 C 
BRANCH  15  16
ATOM     16  O   UNL     1       2.087   3.893  21.712  0.00  0.00    +0.000 OA
ATOM     17  H   UNL     1       2.824   3.310  21.455  0.00  0.00    +0.000 HD
ENDBRANCH  15  16
ENDBRANCH  14  15
ENDBRANCH   8  14
TORSDOF 3
ENDMDL
MODEL 5
REMARK VINA RESULT:      -6.4      1.875      5.086
REMARK  Name = 
REMARK  6 active torsions:
REMARK  status: ('A' for Active; 'I' for Inactive)
REMARK    1  A    between atoms: C_1  and  C_2
REMARK    2  A    between atoms: C_6  and  C_7
REMARK    3  A    between atoms: C_8  and  C_9
REMARK    4  A    between atoms: C_9  and  C_10
REMARK    5  A    between atoms: C_10  and  O_11
REMARK    6  A    between atoms: C_14  and  C_15
REMARK                            x       y       z     vdW  Elec       q    Type
REMARK                         _______ _______ _______ _____ _____    ______ ____
ROOT
ATOM      1  C   UNL     1       2.285   7.465  19.695  0.00  0.00    +0.000 C 
ATOM      2  C   UNL     1       3.086   6.474  18.887  0.00  0.00    +0.000 A 
ATOM      3  C   UNL     1       3.772   6.968  17.763  0.00  0.00    +0.000 A 
ATOM      4  C   UNL     1       4.473   6.092  16.955  0.00  0.00    +0.000 A 
ATOM      5  C   UNL     1       4.542   4.738  17.270  0.00  0.00    +0.000 A 
ATOM      6  C   UNL     1       3.898   4.194  18.389  0.00  0.00    +0.000 A 
ATOM      7  C   UNL     1       3.954   2.719  18.681  0.00  0.00    +0.000 C 
ATOM      8  C   UNL     1       3.136   5.082  19.208  0.00  0.00    +0.000 A 
ATOM      9  C   UNL     1       5.325   4.104  16.194  0.00  0.00    +0.000 C 
ATOM     10  O   UNL     1       5.726   2.954  16.187  0.00  0.00    +0.000 OA
ATOM     11  C   UNL     1       5.500   5.096  15.058  0.00  0.00    +0.000 C 
ATOM     12  C   UNL     1       6.858   5.009  14.388  0.00  0.00    +0.000 C 
ATOM     13  C   UNL     1       5.244   6.454  15.723  0.00  0.00    +0.000 C 
ENDROOT
BRANCH   8  14
ATOM     14  C   UNL     1       2.322   4.541  20.381  0.00  0.00    +0.000 C 
BRANCH  14  15
ATOM     15  C   UNL     1       0.988   3.887  20.014  0.00  0.00    +0.000 C 
BRANCH  15  16
ATOM     16  O   UNL     1       0.618   2.873  20.939  0.00  0.00    +0.000 OA
ATOM     17  H   UNL     1       0.912   3.174  21.817  0.00  0.00    +0.000 HD
ENDBRANCH  15  16
ENDBRANCH  14  15
ENDBRANCH   8  14
TORSDOF 3
ENDMDL
MODEL 6
REMARK VINA RESULT:      -6.3      2.144      4.666
REMARK  Name = 
REMARK  6 active torsions:
REMARK  status: ('A' for Active; 'I' for Inactive)
REMARK    1  A    between atoms: C_1  and  C_2
REMARK    2  A    between atoms: C_6  and  C_7
REMARK    3  A    between atoms: C_8  and  C_9
REMARK    4  A    between atoms: C_9  and  C_10
REMARK    5  A    between atoms: C_10  and  O_11
REMARK    6  A    between atoms: C_14  and  C_15
REMARK                            x       y       z     vdW  Elec       q    Type
REMARK                         _______ _______ _______ _____ _____    ______ ____
ROOT
ATOM      1  C   UNL     1       5.029   4.277  16.720  0.00  0.00    +0.000 C 
ATOM      2  C   UNL     1       4.113   5.006  17.672  0.00  0.00    +0.000 A 
ATOM      3  C   UNL     1       3.727   6.311  17.318  0.00  0.00    +0.000 A 
ATOM      4  C   UNL     1       2.936   7.044  18.183  0.00  0.00    +0.000 A 
ATOM      5  C   UNL     1       2.485   6.487  19.376  0.00  0.00    +0.000 A 
ATOM      6  C   UNL     1       2.819   5.185  19.770  0.00  0.00    +0.000 A 
ATOM      7  C   UNL     1       2.352   4.623  21.085  0.00  0.00    +0.000 C 
ATOM      8  C   UNL     1       3.670   4.432  18.904  0.00  0.00    +0.000 A 
ATOM      9  C   UNL     1       1.712   7.542  20.057  0.00  0.00    +0.000 C 
ATOM     10  O   UNL     1       1.036   7.395  21.059  0.00  0.00    +0.000 OA
ATOM     11  C   UNL     1       1.944   8.863  19.346  0.00  0.00    +0.000 C 
ATOM     12  C   UNL     1       0.707   9.739  19.288  0.00  0.00    +0.000 C 
ATOM     13  C   UNL     1       2.449   8.443  17.960  0.00  0.00    +0.000 C 
ENDROOT
BRANCH   8  14
ATOM     14  C   UNL     1       4.161   3.047  19.320  0.00  0.00    +0.000 C 
BRANCH  14  15
ATOM     15  C   UNL     1       3.424   1.866  18.684  0.00  0.00    +0.000 C 
BRANCH  15  16
ATOM     16  O   UNL     1       4.281   0.751  18.477  0.00  0.00    +0.000 OA
ATOM     17  H   UNL     1       4.891   0.997  17.759  0.00  0.00    +0.000 HD
ENDBRANCH  15  16
ENDBRANCH  14  15
ENDBRANCH   8  14
TORSDOF 3
ENDMDL
MODEL 7
REMARK VINA RESULT:      -6.2      1.614      4.768
REMARK  Name = 
REMARK  6 active torsions:
REMARK  status: ('A' for Active; 'I' for Inactive)
REMARK    1  A    between atoms: C_1  and  C_2
REMARK    2  A    between atoms: C_6  and  C_7
REMARK    3  A    between atoms: C_8  and  C_9
REMARK    4  A    between atoms: C_9  and  C_10
REMARK    5  A    between atoms: C_10  and  O_11
REMARK    6  A    between atoms: C_14  and  C_15
REMARK                            x       y       z     vdW  Elec       q    Type
REMARK                         _______ _______ _______ _____ _____    ______ ____
ROOT
ATOM      1  C   UNL     1       2.121   3.401  21.691  0.00  0.00    +0.000 C 
ATOM      2  C   UNL     1       2.532   4.388  20.625  0.00  0.00    +0.000 A 
ATOM      3  C   UNL     1       1.909   5.649  20.645  0.00  0.00    +0.000 A 
ATOM      4  C   UNL     1       2.206   6.569  19.657  0.00  0.00    +0.000 A 
ATOM      5  C   UNL     1       3.144   6.274  18.672  0.00  0.00    +0.000 A 
ATOM      6  C   UNL     1       3.812   5.043  18.616  0.00  0.00    +0.000 A 
ATOM      7  C   UNL     1       4.791   4.736  17.515  0.00  0.00    +0.000 C 
ATOM      8  C   UNL     1       3.483   4.069  19.608  0.00  0.00    +0.000 A 
ATOM      9  C   UNL     1       3.184   7.445  17.777  0.00  0.00    +0.000 C 
ATOM     10  O   UNL     1       3.987   7.628  16.880  0.00  0.00    +0.000 OA
ATOM     11  C   UNL     1       2.020   8.361  18.108  0.00  0.00    +0.000 C 
ATOM     12  C   UNL     1       2.364   9.834  17.993  0.00  0.00    +0.000 C 
ATOM     13  C   UNL     1       1.626   7.944  19.530  0.00  0.00    +0.000 C 
ENDROOT
BRANCH   8  14
ATOM     14  C   UNL     1       4.091   2.670  19.544  0.00  0.00    +0.000 C 
BRANCH  14  15
ATOM     15  C   UNL     1       3.368   1.675  18.635  0.00  0.00    +0.000 C 
BRANCH  15  16
ATOM     16  O   UNL     1       4.158   0.524  18.367  0.00  0.00    +0.000 OA
ATOM     17  H   UNL     1       3.585  -0.249  18.519  0.00  0.00    +0.000 HD
ENDBRANCH  15  16
ENDBRANCH  14  15
ENDBRANCH   8  14
TORSDOF 3
ENDMDL
MODEL 8
REMARK VINA RESULT:      -6.1      1.873      5.664
REMARK  Name = 
REMARK  6 active torsions:
REMARK  status: ('A' for Active; 'I' for Inactive)
REMARK    1  A    between atoms: C_1  and  C_2
REMARK    2  A    between atoms: C_6  and  C_7
REMARK    3  A    between atoms: C_8  and  C_9
REMARK    4  A    between atoms: C_9  and  C_10
REMARK    5  A    between atoms: C_10  and  O_11
REMARK    6  A    between atoms: C_14  and  C_15
REMARK                            x       y       z     vdW  Elec       q    Type
REMARK                         _______ _______ _______ _____ _____    ______ ____
ROOT
ATOM      1  C   UNL     1       1.352   1.619  18.816  0.00  0.00    +0.000 C 
ATOM      2  C   UNL     1       2.146   2.845  18.436  0.00  0.00    +0.000 A 
ATOM      3  C   UNL     1       3.024   2.727  17.344  0.00  0.00    +0.000 A 
ATOM      4  C   UNL     1       3.818   3.802  16.991  0.00  0.00    +0.000 A 
ATOM      5  C   UNL     1       3.723   5.009  17.678  0.00  0.00    +0.000 A 
ATOM      6  C   UNL     1       2.850   5.191  18.759  0.00  0.00    +0.000 A 
ATOM      7  C   UNL     1       2.799   6.494  19.510  0.00  0.00    +0.000 C 
ATOM      8  C   UNL     1       2.055   4.075  19.159  0.00  0.00    +0.000 A 
ATOM      9  C   UNL     1       4.722   5.908  17.072  0.00  0.00    +0.000 C 
ATOM     10  O   UNL     1       4.843   7.098  17.302  0.00  0.00    +0.000 OA
ATOM     11  C   UNL     1       5.626   5.100  16.158  0.00  0.00    +0.000 C 
ATOM     12  C   UNL     1       6.033   5.847  14.903  0.00  0.00    +0.000 C 
ATOM     13  C   UNL     1       4.807   3.837  15.867  0.00  0.00    +0.000 C 
ENDROOT
BRANCH   8  14
ATOM     14  C   UNL     1       1.161   4.168  20.394  0.00  0.00    +0.000 C 
BRANCH  14  15
ATOM     15  C   UNL     1       1.811   3.748  21.713  0.00  0.00    +0.000 C 
BRANCH  15  16
ATOM     16  O   UNL     1       1.351   2.477  22.155  0.00  0.00    +0.000 OA
ATOM     17  H   UNL     1       0.457   2.614  22.518  0.00  0.00    +0.000 HD
ENDBRANCH  15  16
ENDBRANCH  14  15
ENDBRANCH   8  14
TORSDOF 3
ENDMDL
MODEL 9
REMARK VINA RESULT:      -6.0      1.288      1.337
REMARK  Name = 
REMARK  6 active torsions:
REMARK  status: ('A' for Active; 'I' for Inactive)
REMARK    1  A    between atoms: C_1  and  C_2
REMARK    2  A    between atoms: C_6  and  C_7
REMARK    3  A    between atoms: C_8  and  C_9
REMARK    4  A    between atoms: C_9  and  C_10
REMARK    5  A    between atoms: C_10  and  O_11
REMARK    6  A    between atoms: C_14  and  C_15
REMARK                            x       y       z     vdW  Elec       q    Type
REMARK                         _______ _______ _______ _____ _____    ______ ____
ROOT
ATOM      1  C   UNL     1       3.091   8.424  17.786  0.00  0.00    +0.000 C 
ATOM      2  C   UNL     1       3.134   6.915  17.802  0.00  0.00    +0.000 A 
ATOM      3  C   UNL     1       2.150   6.253  18.558  0.00  0.00    +0.000 A 
ATOM      4  C   UNL     1       2.180   4.875  18.655  0.00  0.00    +0.000 A 
ATOM      5  C   UNL     1       3.146   4.137  17.977  0.00  0.00    +0.000 A 
ATOM      6  C   UNL     1       4.136   4.741  17.191  0.00  0.00    +0.000 A 
ATOM      7  C   UNL     1       5.194   3.921  16.503  0.00  0.00    +0.000 C 
ATOM      8  C   UNL     1       4.141   6.167  17.118  0.00  0.00    +0.000 A 
ATOM      9  C   UNL     1       2.907   2.725  18.327  0.00  0.00    +0.000 C 
ATOM     10  O   UNL     1       3.454   1.763  17.819  0.00  0.00    +0.000 OA
ATOM     11  C   UNL     1       1.915   2.661  19.474  0.00  0.00    +0.000 C 
ATOM     12  C   UNL     1       0.951   1.494  19.370  0.00  0.00    +0.000 C 
ATOM     13  C   UNL     1       1.216   4.024  19.423  0.00  0.00    +0.000 C 
ENDROOT
BRANCH   8  14
ATOM     14  C   UNL     1       5.255   6.896  16.368  0.00  0.00    +0.000 C 
BRANCH  14  15
ATOM     15  C   UNL     1       6.535   7.147  17.167  0.00  0.00    +0.000 C 
BRANCH  15  16
ATOM     16  O   UNL     1       7.682   6.613  16.520  0.00  0.00    +0.000 OA
ATOM     17  H   UNL     1       8.149   6.071  17.181  0.00  0.00    +0.000 HD
ENDBRANCH  15  16
ENDBRANCH  14  15
ENDBRANCH   8  14
TORSDOF 3
ENDMDL
