MODEL 1
REMARK VINA RESULT:      -8.2      0.000      0.000
REMARK  Name = 
REMARK  3 active torsions:
REMARK  status: ('A' for Active; 'I' for Inactive)
REMARK    1  A    between atoms: C_2  and  O_3
REMARK    2  A    between atoms: C_2  and  C_4
REMARK    3  A    between atoms: N_6  and  C_7
REMARK                            x       y       z     vdW  Elec       q    Type
REMARK                         _______ _______ _______ _____ _____    ______ ____
ROOT
ATOM      1  C   UNL     1       6.084   4.943  16.521  0.00  0.00    +0.000 A 
ATOM      2  N   UNL     1       5.068   4.149  16.912  0.00  0.00    +0.000 NA
ATOM      3  N   UNL     1       4.635   4.692  18.079  0.00  0.00    +0.000 N 
ATOM      4  C   UNL     1       5.339   5.807  18.441  0.00  0.00    +0.000 A 
ATOM      5  C   UNL     1       6.289   5.977  17.465  0.00  0.00    +0.000 A 
ATOM      6 BR   UNL     1       7.562   7.348  17.392  0.00  0.00    +0.000 Br
ENDROOT
BRANCH   3   7
ATOM      7  C   UNL     1       3.498   4.087  18.801  0.00  0.00    +0.000 C 
ATOM      8  C   UNL     1       3.263   4.802  20.167  0.00  0.00    +0.000 C 
ATOM      9  C   UNL     1       2.084   4.168  20.923  0.00  0.00    +0.000 C 
ATOM     10  C   UNL     1       0.810   4.287  20.075  0.00  0.00    +0.000 C 
ATOM     11  C   UNL     1       1.002   3.560  18.735  0.00  0.00    +0.000 C 
ATOM     12  C   UNL     1       1.310   2.077  18.995  0.00  0.00    +0.000 C 
ATOM     13  C   UNL     1       2.586   1.948  19.841  0.00  0.00    +0.000 C 
ATOM     14  C   UNL     1       2.383   2.681  21.176  0.00  0.00    +0.000 C 
ATOM     15  C   UNL     1       3.768   2.583  19.085  0.00  0.00    +0.000 C 
ATOM     16  C   UNL     1       2.183   4.196  17.979  0.00  0.00    +0.000 C 
ENDBRANCH   3   7
BRANCH   1  18
ATOM     17  O   UNL     1       7.645   5.421  14.788  0.00  0.00    +0.000 OA
ATOM     18  C   UNL     1       6.793   4.691  15.248  0.00  0.00    +0.000 C 
BRANCH  18  19
ATOM     19  O   UNL     1       6.401   3.559  14.594  0.00  0.00    +0.000 OA
ATOM     20  H   UNL     1       6.541   2.774  15.164  0.00  0.00    +0.000 HD
ENDBRANCH  18  19
ENDBRANCH   1  18
TORSDOF 3
ENDMDL
MODEL 2
REMARK VINA RESULT:      -8.2      0.023      1.723
REMARK  Name = 
REMARK  3 active torsions:
REMARK  status: ('A' for Active; 'I' for Inactive)
REMARK    1  A    between atoms: C_2  and  O_3
REMARK    2  A    between atoms: C_2  and  C_4
REMARK    3  A    between atoms: N_6  and  C_7
REMARK                            x       y       z     vdW  Elec       q    Type
REMARK                         _______ _______ _______ _____ _____    ______ ____
ROOT
ATOM      1  C   UNL     1       6.093   4.936  16.517  0.00  0.00    +0.000 A 
ATOM      2  N   UNL     1       5.079   4.140  16.907  0.00  0.00    +0.000 NA
ATOM      3  N   UNL     1       4.640   4.684  18.073  0.00  0.00    +0.000 N 
ATOM      4  C   UNL     1       5.340   5.802  18.433  0.00  0.00    +0.000 A 
ATOM      5  C   UNL     1       6.293   5.973  17.460  0.00  0.00    +0.000 A 
ATOM      6 BR   UNL     1       7.561   7.348  17.387  0.00  0.00    +0.000 Br
ENDROOT
BRANCH   3   7
ATOM      7  C   UNL     1       3.504   4.077  18.793  0.00  0.00    +0.000 C 
ATOM      8  C   UNL     1       2.188   4.208  17.967  0.00  0.00    +0.000 C 
ATOM      9  C   UNL     1       1.002   3.584  18.719  0.00  0.00    +0.000 C 
ATOM     10  C   UNL     1       1.284   2.096  18.971  0.00  0.00    +0.000 C 
ATOM     11  C   UNL     1       2.558   1.939  19.816  0.00  0.00    +0.000 C 
ATOM     12  C   UNL     1       2.377   2.663  21.159  0.00  0.00    +0.000 C 
ATOM     13  C   UNL     1       2.097   4.155  20.915  0.00  0.00    +0.000 C 
ATOM     14  C   UNL     1       0.823   4.298  20.069  0.00  0.00    +0.000 C 
ATOM     15  C   UNL     1       3.285   4.782  20.161  0.00  0.00    +0.000 C 
ATOM     16  C   UNL     1       3.745   2.565  19.060  0.00  0.00    +0.000 C 
ENDBRANCH   3   7
BRANCH   1  18
ATOM     17  O   UNL     1       7.668   5.408  14.795  0.00  0.00    +0.000 OA
ATOM     18  C   UNL     1       6.805   4.684  15.247  0.00  0.00    +0.000 C 
BRANCH  18  19
ATOM     19  O   UNL     1       6.405   3.560  14.585  0.00  0.00    +0.000 OA
ATOM     20  H   UNL     1       5.659   3.137  15.057  0.00  0.00    +0.000 HD
ENDBRANCH  18  19
ENDBRANCH   1  18
TORSDOF 3
ENDMDL
MODEL 3
REMARK VINA RESULT:      -8.1      0.046      1.740
REMARK  Name = 
REMARK  3 active torsions:
REMARK  status: ('A' for Active; 'I' for Inactive)
REMARK    1  A    between atoms: C_2  and  O_3
REMARK    2  A    between atoms: C_2  and  C_4
REMARK    3  A    between atoms: N_6  and  C_7
REMARK                            x       y       z     vdW  Elec       q    Type
REMARK                         _______ _______ _______ _____ _____    ______ ____
ROOT
ATOM      1  C   UNL     1       6.109   4.940  16.520  0.00  0.00    +0.000 A 
ATOM      2  N   UNL     1       5.101   4.139  16.917  0.00  0.00    +0.000 NA
ATOM      3  N   UNL     1       4.647   4.700  18.068  0.00  0.00    +0.000 N 
ATOM      4  C   UNL     1       5.330   5.834  18.412  0.00  0.00    +0.000 A 
ATOM      5  C   UNL     1       6.288   5.997  17.444  0.00  0.00    +0.000 A 
ATOM      6 BR   UNL     1       7.541   7.385  17.354  0.00  0.00    +0.000 Br
ENDROOT
BRANCH   3   7
ATOM      7  C   UNL     1       3.511   4.094  18.791  0.00  0.00    +0.000 C 
ATOM      8  C   UNL     1       3.762   2.577  19.049  0.00  0.00    +0.000 C 
ATOM      9  C   UNL     1       2.577   1.943  19.795  0.00  0.00    +0.000 C 
ATOM     10  C   UNL     1       2.385   2.651  21.144  0.00  0.00    +0.000 C 
ATOM     11  C   UNL     1       2.100   4.144  20.916  0.00  0.00    +0.000 C 
ATOM     12  C   UNL     1       0.829   4.301  20.067  0.00  0.00    +0.000 C 
ATOM     13  C   UNL     1       1.014   3.597  18.713  0.00  0.00    +0.000 C 
ATOM     14  C   UNL     1       1.301   2.107  18.953  0.00  0.00    +0.000 C 
ATOM     15  C   UNL     1       2.202   4.231  17.965  0.00  0.00    +0.000 C 
ATOM     16  C   UNL     1       3.288   4.777  20.169  0.00  0.00    +0.000 C 
ENDBRANCH   3   7
BRANCH   1  18
ATOM     17  O   UNL     1       7.738   5.360  14.835  0.00  0.00    +0.000 OA
ATOM     18  C   UNL     1       6.835   4.671  15.260  0.00  0.00    +0.000 C 
BRANCH  18  19
ATOM     19  O   UNL     1       6.398   3.574  14.576  0.00  0.00    +0.000 OA
ATOM     20  H   UNL     1       7.146   3.146  14.110  0.00  0.00    +0.000 HD
ENDBRANCH  18  19
ENDBRANCH   1  18
TORSDOF 3
ENDMDL
MODEL 4
REMARK VINA RESULT:      -8.1      1.685      2.623
REMARK  Name = 
REMARK  3 active torsions:
REMARK  status: ('A' for Active; 'I' for Inactive)
REMARK    1  A    between atoms: C_2  and  O_3
REMARK    2  A    between atoms: C_2  and  C_4
REMARK    3  A    between atoms: N_6  and  C_7
REMARK                            x       y       z     vdW  Elec       q    Type
REMARK                         _______ _______ _______ _____ _____    ______ ____
ROOT
ATOM      1  C   UNL     1       6.343   5.822  17.584  0.00  0.00    +0.000 A 
ATOM      2  N   UNL     1       5.448   5.597  18.565  0.00  0.00    +0.000 NA
ATOM      3  N   UNL     1       4.634   4.625  18.076  0.00  0.00    +0.000 N 
ATOM      4  C   UNL     1       4.986   4.222  16.817  0.00  0.00    +0.000 A 
ATOM      5  C   UNL     1       6.068   4.991  16.471  0.00  0.00    +0.000 A 
ATOM      6 BR   UNL     1       7.015   4.901  14.858  0.00  0.00    +0.000 Br
ENDROOT
BRANCH   3   7
ATOM      7  C   UNL     1       3.527   4.101  18.899  0.00  0.00    +0.000 C 
ATOM      8  C   UNL     1       3.870   2.686  19.457  0.00  0.00    +0.000 C 
ATOM      9  C   UNL     1       2.713   2.136  20.308  0.00  0.00    +0.000 C 
ATOM     10  C   UNL     1       2.450   3.084  21.486  0.00  0.00    +0.000 C 
ATOM     11  C   UNL     1       2.075   4.479  20.963  0.00  0.00    +0.000 C 
ATOM     12  C   UNL     1       0.813   4.378  20.092  0.00  0.00    +0.000 C 
ATOM     13  C   UNL     1       1.069   3.433  18.907  0.00  0.00    +0.000 C 
ATOM     14  C   UNL     1       1.445   2.043  19.443  0.00  0.00    +0.000 C 
ATOM     15  C   UNL     1       2.227   3.983  18.055  0.00  0.00    +0.000 C 
ATOM     16  C   UNL     1       3.234   5.029  20.111  0.00  0.00    +0.000 C 
ENDBRANCH   3   7
BRANCH   1  18
ATOM     17  O   UNL     1       7.689   7.690  16.981  0.00  0.00    +0.000 OA
ATOM     18  C   UNL     1       7.434   6.802  17.767  0.00  0.00    +0.000 C 
BRANCH  18  19
ATOM     19  O   UNL     1       8.170   6.627  18.902  0.00  0.00    +0.000 OA
ATOM     20  H   UNL     1       8.965   6.087  18.710  0.00  0.00    +0.000 HD
ENDBRANCH  18  19
ENDBRANCH   1  18
TORSDOF 3
ENDMDL
MODEL 5
REMARK VINA RESULT:      -8.1      1.689      2.060
REMARK  Name = 
REMARK  3 active torsions:
REMARK  status: ('A' for Active; 'I' for Inactive)
REMARK    1  A    between atoms: C_2  and  O_3
REMARK    2  A    between atoms: C_2  and  C_4
REMARK    3  A    between atoms: N_6  and  C_7
REMARK                            x       y       z     vdW  Elec       q    Type
REMARK                         _______ _______ _______ _____ _____    ______ ____
ROOT
ATOM      1  C   UNL     1       6.342   5.834  17.585  0.00  0.00    +0.000 A 
ATOM      2  N   UNL     1       5.445   5.613  18.566  0.00  0.00    +0.000 NA
ATOM      3  N   UNL     1       4.630   4.642  18.078  0.00  0.00    +0.000 N 
ATOM      4  C   UNL     1       4.982   4.235  16.820  0.00  0.00    +0.000 A 
ATOM      5  C   UNL     1       6.067   5.001  16.474  0.00  0.00    +0.000 A 
ATOM      6 BR   UNL     1       7.016   4.905  14.862  0.00  0.00    +0.000 Br
ENDROOT
BRANCH   3   7
ATOM      7  C   UNL     1       3.519   4.123  18.900  0.00  0.00    +0.000 C 
ATOM      8  C   UNL     1       3.241   5.061  20.114  0.00  0.00    +0.000 C 
ATOM      9  C   UNL     1       2.090   4.518  20.976  0.00  0.00    +0.000 C 
ATOM     10  C   UNL     1       0.817   4.418  20.124  0.00  0.00    +0.000 C 
ATOM     11  C   UNL     1       1.053   3.470  18.938  0.00  0.00    +0.000 C 
ATOM     12  C   UNL     1       1.432   2.076  19.462  0.00  0.00    +0.000 C 
ATOM     13  C   UNL     1       2.707   2.166  20.314  0.00  0.00    +0.000 C 
ATOM     14  C   UNL     1       2.460   3.118  21.494  0.00  0.00    +0.000 C 
ATOM     15  C   UNL     1       3.861   2.711  19.452  0.00  0.00    +0.000 C 
ATOM     16  C   UNL     1       2.206   4.016  18.076  0.00  0.00    +0.000 C 
ENDBRANCH   3   7
BRANCH   1  18
ATOM     17  O   UNL     1       7.692   7.699  16.982  0.00  0.00    +0.000 OA
ATOM     18  C   UNL     1       7.436   6.811  17.767  0.00  0.00    +0.000 C 
BRANCH  18  19
ATOM     19  O   UNL     1       8.173   6.633  18.902  0.00  0.00    +0.000 OA
ATOM     20  H   UNL     1       8.949   6.065  18.715  0.00  0.00    +0.000 HD
ENDBRANCH  18  19
ENDBRANCH   1  18
TORSDOF 3
ENDMDL
MODEL 6
REMARK VINA RESULT:      -8.1      1.697      2.746
REMARK  Name = 
REMARK  3 active torsions:
REMARK  status: ('A' for Active; 'I' for Inactive)
REMARK    1  A    between atoms: C_2  and  O_3
REMARK    2  A    between atoms: C_2  and  C_4
REMARK    3  A    between atoms: N_6  and  C_7
REMARK                            x       y       z     vdW  Elec       q    Type
REMARK                         _______ _______ _______ _____ _____    ______ ____
ROOT
ATOM      1  C   UNL     1       6.367   5.792  17.630  0.00  0.00    +0.000 A 
ATOM      2  N   UNL     1       5.456   5.565  18.596  0.00  0.00    +0.000 NA
ATOM      3  N   UNL     1       4.651   4.594  18.093  0.00  0.00    +0.000 N 
ATOM      4  C   UNL     1       5.024   4.192  16.839  0.00  0.00    +0.000 A 
ATOM      5  C   UNL     1       6.111   4.962  16.512  0.00  0.00    +0.000 A 
ATOM      6 BR   UNL     1       7.083   4.875  14.914  0.00  0.00    +0.000 Br
ENDROOT
BRANCH   3   7
ATOM      7  C   UNL     1       3.530   4.068  18.897  0.00  0.00    +0.000 C 
ATOM      8  C   UNL     1       2.245   3.918  18.028  0.00  0.00    +0.000 C 
ATOM      9  C   UNL     1       1.074   3.379  18.866  0.00  0.00    +0.000 C 
ATOM     10  C   UNL     1       1.448   2.005  19.441  0.00  0.00    +0.000 C 
ATOM     11  C   UNL     1       2.694   2.131  20.332  0.00  0.00    +0.000 C 
ATOM     12  C   UNL     1       2.406   3.109  21.482  0.00  0.00    +0.000 C 
ATOM     13  C   UNL     1       2.034   4.488  20.915  0.00  0.00    +0.000 C 
ATOM     14  C   UNL     1       0.790   4.349  20.025  0.00  0.00    +0.000 C 
ATOM     15  C   UNL     1       3.205   5.029  20.075  0.00  0.00    +0.000 C 
ATOM     16  C   UNL     1       3.865   2.672  19.490  0.00  0.00    +0.000 C 
ENDBRANCH   3   7
BRANCH   1  18
ATOM     17  O   UNL     1       7.694   7.688  17.074  0.00  0.00    +0.000 OA
ATOM     18  C   UNL     1       7.455   6.772  17.832  0.00  0.00    +0.000 C 
BRANCH  18  19
ATOM     19  O   UNL     1       8.208   6.561  18.950  0.00  0.00    +0.000 OA
ATOM     20  H   UNL     1       8.313   7.397  19.449  0.00  0.00    +0.000 HD
ENDBRANCH  18  19
ENDBRANCH   1  18
TORSDOF 3
ENDMDL
MODEL 7
REMARK VINA RESULT:      -7.7      1.753      2.569
REMARK  Name = 
REMARK  3 active torsions:
REMARK  status: ('A' for Active; 'I' for Inactive)
REMARK    1  A    between atoms: C_2  and  O_3
REMARK    2  A    between atoms: C_2  and  C_4
REMARK    3  A    between atoms: N_6  and  C_7
REMARK                            x       y       z     vdW  Elec       q    Type
REMARK                         _______ _______ _______ _____ _____    ______ ____
ROOT
ATOM      1  C   UNL     1       6.197   4.572  17.359  0.00  0.00    +0.000 A 
ATOM      2  N   UNL     1       5.405   4.463  18.443  0.00  0.00    +0.000 NA
ATOM      3  N   UNL     1       4.232   3.971  17.967  0.00  0.00    +0.000 N 
ATOM      4  C   UNL     1       4.254   3.759  16.616  0.00  0.00    +0.000 A 
ATOM      5  C   UNL     1       5.500   4.157  16.199  0.00  0.00    +0.000 A 
ATOM      6 BR   UNL     1       6.145   4.101  14.442  0.00  0.00    +0.000 Br
ENDROOT
BRANCH   3   7
ATOM      7  C   UNL     1       3.112   3.699  18.890  0.00  0.00    +0.000 C 
ATOM      8  C   UNL     1       1.742   3.965  18.195  0.00  0.00    +0.000 C 
ATOM      9  C   UNL     1       0.575   3.691  19.157  0.00  0.00    +0.000 C 
ATOM     10  C   UNL     1       0.624   2.226  19.614  0.00  0.00    +0.000 C 
ATOM     11  C   UNL     1       1.952   1.946  20.335  0.00  0.00    +0.000 C 
ATOM     12  C   UNL     1       2.079   2.870  21.556  0.00  0.00    +0.000 C 
ATOM     13  C   UNL     1       2.034   4.339  21.107  0.00  0.00    +0.000 C 
ATOM     14  C   UNL     1       0.704   4.607  20.386  0.00  0.00    +0.000 C 
ATOM     15  C   UNL     1       3.202   4.615  20.142  0.00  0.00    +0.000 C 
ATOM     16  C   UNL     1       3.119   2.221  19.369  0.00  0.00    +0.000 C 
ENDBRANCH   3   7
BRANCH   1  18
ATOM     17  O   UNL     1       7.931   6.203  17.399  0.00  0.00    +0.000 OA
ATOM     18  C   UNL     1       7.593   5.041  17.487  0.00  0.00    +0.000 C 
BRANCH  18  19
ATOM     19  O   UNL     1       8.508   4.051  17.698  0.00  0.00    +0.000 OA
ATOM     20  H   UNL     1       8.054   3.213  17.921  0.00  0.00    +0.000 HD
ENDBRANCH  18  19
ENDBRANCH   1  18
TORSDOF 3
ENDMDL
MODEL 8
REMARK VINA RESULT:      -7.6      1.762      2.438
REMARK  Name = 
REMARK  3 active torsions:
REMARK  status: ('A' for Active; 'I' for Inactive)
REMARK    1  A    between atoms: C_2  and  O_3
REMARK    2  A    between atoms: C_2  and  C_4
REMARK    3  A    between atoms: N_6  and  C_7
REMARK                            x       y       z     vdW  Elec       q    Type
REMARK                         _______ _______ _______ _____ _____    ______ ____
ROOT
ATOM      1  C   UNL     1       6.042   4.625  16.986  0.00  0.00    +0.000 A 
ATOM      2  N   UNL     1       5.395   4.575  18.167  0.00  0.00    +0.000 NA
ATOM      3  N   UNL     1       4.158   4.103  17.864  0.00  0.00    +0.000 N 
ATOM      4  C   UNL     1       3.999   3.848  16.530  0.00  0.00    +0.000 A 
ATOM      5  C   UNL     1       5.189   4.195  15.942  0.00  0.00    +0.000 A 
ATOM      6 BR   UNL     1       5.599   4.063  14.119  0.00  0.00    +0.000 Br
ENDROOT
BRANCH   3   7
ATOM      7  C   UNL     1       3.161   3.895  18.933  0.00  0.00    +0.000 C 
ATOM      8  C   UNL     1       3.544   2.671  19.819  0.00  0.00    +0.000 C 
ATOM      9  C   UNL     1       2.502   2.449  20.928  0.00  0.00    +0.000 C 
ATOM     10  C   UNL     1       2.426   3.699  21.815  0.00  0.00    +0.000 C 
ATOM     11  C   UNL     1       2.016   4.917  20.971  0.00  0.00    +0.000 C 
ATOM     12  C   UNL     1       0.644   4.657  20.329  0.00  0.00    +0.000 C 
ATOM     13  C   UNL     1       0.712   3.408  19.436  0.00  0.00    +0.000 C 
ATOM     14  C   UNL     1       1.126   2.199  20.290  0.00  0.00    +0.000 C 
ATOM     15  C   UNL     1       1.756   3.629  18.325  0.00  0.00    +0.000 C 
ATOM     16  C   UNL     1       3.060   5.137  19.861  0.00  0.00    +0.000 C 
ENDBRANCH   3   7
BRANCH   1  18
ATOM     17  O   UNL     1       7.820   6.114  16.446  0.00  0.00    +0.000 OA
ATOM     18  C   UNL     1       7.454   5.057  16.916  0.00  0.00    +0.000 C 
BRANCH  18  19
ATOM     19  O   UNL     1       8.349   4.154  17.412  0.00  0.00    +0.000 OA
ATOM     20  H   UNL     1       8.653   4.433  18.300  0.00  0.00    +0.000 HD
ENDBRANCH  18  19
ENDBRANCH   1  18
TORSDOF 3
ENDMDL
MODEL 9
REMARK VINA RESULT:      -7.5      1.731      1.977
REMARK  Name = 
REMARK  3 active torsions:
REMARK  status: ('A' for Active; 'I' for Inactive)
REMARK    1  A    between atoms: C_2  and  O_3
REMARK    2  A    between atoms: C_2  and  C_4
REMARK    3  A    between atoms: N_6  and  C_7
REMARK                            x       y       z     vdW  Elec       q    Type
REMARK                         _______ _______ _______ _____ _____    ______ ____
ROOT
ATOM      1  C   UNL     1       6.425   4.625  17.791  0.00  0.00    +0.000 A 
ATOM      2  N   UNL     1       5.525   4.366  18.759  0.00  0.00    +0.000 NA
ATOM      3  N   UNL     1       4.387   4.036  18.095  0.00  0.00    +0.000 N 
ATOM      4  C   UNL     1       4.536   4.072  16.736  0.00  0.00    +0.000 A 
ATOM      5  C   UNL     1       5.831   4.468  16.516  0.00  0.00    +0.000 A 
ATOM      6 BR   UNL     1       6.647   4.696  14.845  0.00  0.00    +0.000 Br
ENDROOT
BRANCH   3   7
ATOM      7  C   UNL     1       3.171   3.665  18.845  0.00  0.00    +0.000 C 
ATOM      8  C   UNL     1       3.147   4.358  20.241  0.00  0.00    +0.000 C 
ATOM      9  C   UNL     1       1.885   3.967  21.028  0.00  0.00    +0.000 C 
ATOM     10  C   UNL     1       0.639   4.395  20.239  0.00  0.00    +0.000 C 
ATOM     11  C   UNL     1       0.620   3.698  18.869  0.00  0.00    +0.000 C 
ATOM     12  C   UNL     1       0.604   2.174  19.070  0.00  0.00    +0.000 C 
ATOM     13  C   UNL     1       1.850   1.736  19.856  0.00  0.00    +0.000 C 
ATOM     14  C   UNL     1       1.859   2.442  21.221  0.00  0.00    +0.000 C 
ATOM     15  C   UNL     1       3.115   2.128  19.070  0.00  0.00    +0.000 C 
ATOM     16  C   UNL     1       1.885   4.091  18.084  0.00  0.00    +0.000 C 
ENDBRANCH   3   7
BRANCH   1  18
ATOM     17  O   UNL     1       8.155   6.064  18.569  0.00  0.00    +0.000 OA
ATOM     18  C   UNL     1       7.818   4.984  18.131  0.00  0.00    +0.000 C 
BRANCH  18  19
ATOM     19  O   UNL     1       8.732   3.999  17.895  0.00  0.00    +0.000 OA
ATOM     20  H   UNL     1       9.232   4.190  17.074  0.00  0.00    +0.000 HD
ENDBRANCH  18  19
ENDBRANCH   1  18
TORSDOF 3
ENDMDL
