MODEL 1
REMARK VINA RESULT:      -8.0      0.000      0.000
REMARK  Name = 
REMARK  7 active torsions:
REMARK  status: ('A' for Active; 'I' for Inactive)
REMARK    1  A    between atoms: C_1  and  C_2
REMARK    2  A    between atoms: C_2  and  C_3
REMARK    3  A    between atoms: C_2  and  C_4
REMARK    4  A    between atoms: C_4  and  O_5
REMARK    5  A    between atoms: O_5  and  C_6
REMARK    6  A    between atoms: C_10  and  C_11
REMARK    7  A    between atoms: C_11  and  N_12
REMARK                            x       y       z     vdW  Elec       q    Type
REMARK                         _______ _______ _______ _____ _____    ______ ____
ROOT
ATOM      1  N   UNL     1       1.426   8.752  19.336  0.00  0.00    +0.000 N 
ATOM      2  C   UNL     1       2.312   7.676  19.063  0.00  0.00    +0.000 A 
ATOM      3  C   UNL     1       3.089   7.630  17.877  0.00  0.00    +0.000 A 
ATOM      4  C   UNL     1       4.074   6.602  17.762  0.00  0.00    +0.000 A 
ATOM      5  C   UNL     1       4.176   5.741  18.850  0.00  0.00    +0.000 A 
ATOM      6  C   UNL     1       3.194   5.652  19.812  0.00  0.00    +0.000 A 
ATOM      7  N   UNL     1       2.318   6.656  19.940  0.00  0.00    +0.000 NA
ATOM      8  N   UNL     1       5.355   5.070  18.751  0.00  0.00    +0.000 N 
ATOM      9  C   UNL     1       5.780   5.075  17.454  0.00  0.00    +0.000 A 
ATOM     10  C   UNL     1       6.765   4.275  16.863  0.00  0.00    +0.000 A 
ATOM     11  C   UNL     1       6.902   4.346  15.484  0.00  0.00    +0.000 A 
ATOM     12  C   UNL     1       6.125   5.237  14.750  0.00  0.00    +0.000 A 
ATOM     13  C   UNL     1       5.201   6.110  15.379  0.00  0.00    +0.000 A 
ATOM     14  C   UNL     1       4.990   6.018  16.780  0.00  0.00    +0.000 A 
ATOM     15  H   UNL     1       0.649   8.665  18.688  0.00  0.00    +0.000 HD
ATOM     16  H   UNL     1       5.781   4.537  19.492  0.00  0.00    +0.000 HD
ENDROOT
BRANCH   1  17
ATOM     17  C   UNL     1       0.931   8.752  20.737  0.00  0.00    +0.000 C 
BRANCH  17  22
ATOM     18  C   UNL     1      -1.539  11.683  20.315  0.00  0.00    +0.000 A 
ATOM     19  C   UNL     1      -1.713  12.080  21.654  0.00  0.00    +0.000 A 
ATOM     20  C   UNL     1      -1.054  11.415  22.667  0.00  0.00    +0.000 A 
ATOM     21  C   UNL     1      -0.193  10.348  22.401  0.00  0.00    +0.000 A 
ATOM     22  C   UNL     1       0.037   9.945  21.086  0.00  0.00    +0.000 A 
ATOM     23  C   UNL     1      -0.679  10.609  20.049  0.00  0.00    +0.000 A 
BRANCH  18  24
ATOM     24  O   UNL     1      -2.254  12.408  19.396  0.00  0.00    +0.000 OA
BRANCH  24  25
ATOM     25  C   UNL     1      -3.537  11.908  19.024  0.00  0.00    +0.000 C 
BRANCH  25  27
ATOM     26  C   UNL     1      -3.263   9.904  17.539  0.00  0.00    +0.000 C 
ATOM     27  C   UNL     1      -3.524  11.412  17.564  0.00  0.00    +0.000 C 
ATOM     28  C   UNL     1      -4.824  11.731  16.821  0.00  0.00    +0.000 C 
ENDBRANCH  25  27
ENDBRANCH  24  25
ENDBRANCH  18  24
ENDBRANCH  17  22
ENDBRANCH   1  17
TORSDOF 5
ENDMDL
MODEL 2
REMARK VINA RESULT:      -8.0      3.320      9.236
REMARK  Name = 
REMARK  7 active torsions:
REMARK  status: ('A' for Active; 'I' for Inactive)
REMARK    1  A    between atoms: C_1  and  C_2
REMARK    2  A    between atoms: C_2  and  C_3
REMARK    3  A    between atoms: C_2  and  C_4
REMARK    4  A    between atoms: C_4  and  O_5
REMARK    5  A    between atoms: O_5  and  C_6
REMARK    6  A    between atoms: C_10  and  C_11
REMARK    7  A    between atoms: C_11  and  N_12
REMARK                            x       y       z     vdW  Elec       q    Type
REMARK                         _______ _______ _______ _____ _____    ______ ____
ROOT
ATOM      1  N   UNL     1       2.126   7.781  18.950  0.00  0.00    +0.000 N 
ATOM      2  C   UNL     1       1.583   9.046  19.301  0.00  0.00    +0.000 A 
ATOM      3  C   UNL     1       0.864   9.242  20.507  0.00  0.00    +0.000 A 
ATOM      4  C   UNL     1       0.500  10.577  20.860  0.00  0.00    +0.000 A 
ATOM      5  C   UNL     1       0.905  11.567  19.971  0.00  0.00    +0.000 A 
ATOM      6  C   UNL     1       1.315  11.279  18.687  0.00  0.00    +0.000 A 
ATOM      7  N   UNL     1       1.707  10.033  18.396  0.00  0.00    +0.000 NA
ATOM      8  N   UNL     1       0.808  12.769  20.600  0.00  0.00    +0.000 N 
ATOM      9  C   UNL     1      -0.074  12.676  21.636  0.00  0.00    +0.000 A 
ATOM     10  C   UNL     1      -0.684  13.715  22.350  0.00  0.00    +0.000 A 
ATOM     11  C   UNL     1      -1.680  13.370  23.253  0.00  0.00    +0.000 A 
ATOM     12  C   UNL     1      -1.992  12.032  23.470  0.00  0.00    +0.000 A 
ATOM     13  C   UNL     1      -1.295  10.989  22.810  0.00  0.00    +0.000 A 
ATOM     14  C   UNL     1      -0.315  11.308  21.833  0.00  0.00    +0.000 A 
ATOM     15  H   UNL     1       1.342   7.178  18.721  0.00  0.00    +0.000 HD
ATOM     16  H   UNL     1       1.219  13.628  20.272  0.00  0.00    +0.000 HD
ENDROOT
BRANCH   1  17
ATOM     17  C   UNL     1       3.072   7.855  17.807  0.00  0.00    +0.000 C 
BRANCH  17  22
ATOM     18  C   UNL     1       3.591   4.049  17.467  0.00  0.00    +0.000 A 
ATOM     19  C   UNL     1       4.773   4.008  16.704  0.00  0.00    +0.000 A 
ATOM     20  C   UNL     1       5.384   5.179  16.306  0.00  0.00    +0.000 A 
ATOM     21  C   UNL     1       4.864   6.428  16.651  0.00  0.00    +0.000 A 
ATOM     22  C   UNL     1       3.715   6.516  17.437  0.00  0.00    +0.000 A 
ATOM     23  C   UNL     1       3.067   5.302  17.810  0.00  0.00    +0.000 A 
BRANCH  18  24
ATOM     24  O   UNL     1       3.067   2.824  17.793  0.00  0.00    +0.000 OA
BRANCH  24  25
ATOM     25  C   UNL     1       3.179   2.405  19.151  0.00  0.00    +0.000 C 
BRANCH  25  27
ATOM     26  C   UNL     1       1.638   3.464  20.825  0.00  0.00    +0.000 C 
ATOM     27  C   UNL     1       1.789   2.325  19.812  0.00  0.00    +0.000 C 
ATOM     28  C   UNL     1       0.647   2.375  18.794  0.00  0.00    +0.000 C 
ENDBRANCH  25  27
ENDBRANCH  24  25
ENDBRANCH  18  24
ENDBRANCH  17  22
ENDBRANCH   1  17
TORSDOF 5
ENDMDL
MODEL 3
REMARK VINA RESULT:      -8.0      3.366      9.642
REMARK  Name = 
REMARK  7 active torsions:
REMARK  status: ('A' for Active; 'I' for Inactive)
REMARK    1  A    between atoms: C_1  and  C_2
REMARK    2  A    between atoms: C_2  and  C_3
REMARK    3  A    between atoms: C_2  and  C_4
REMARK    4  A    between atoms: C_4  and  O_5
REMARK    5  A    between atoms: O_5  and  C_6
REMARK    6  A    between atoms: C_10  and  C_11
REMARK    7  A    between atoms: C_11  and  N_12
REMARK                            x       y       z     vdW  Elec       q    Type
REMARK                         _______ _______ _______ _____ _____    ______ ____
ROOT
ATOM      1  N   UNL     1       0.239  10.795  19.419  0.00  0.00    +0.000 N 
ATOM      2  C   UNL     1      -1.029  10.900  18.787  0.00  0.00    +0.000 A 
ATOM      3  C   UNL     1      -2.160  11.421  19.464  0.00  0.00    +0.000 A 
ATOM      4  C   UNL     1      -3.349  11.647  18.705  0.00  0.00    +0.000 A 
ATOM      5  C   UNL     1      -3.269  11.333  17.352  0.00  0.00    +0.000 A 
ATOM      6  C   UNL     1      -2.259  10.549  16.838  0.00  0.00    +0.000 A 
ATOM      7  N   UNL     1      -1.130  10.400  17.542  0.00  0.00    +0.000 NA
ATOM      8  N   UNL     1      -4.318  11.920  16.717  0.00  0.00    +0.000 N 
ATOM      9  C   UNL     1      -5.316  12.172  17.612  0.00  0.00    +0.000 A 
ATOM     10  C   UNL     1      -6.655  12.488  17.351  0.00  0.00    +0.000 A 
ATOM     11  C   UNL     1      -7.522  12.534  18.433  0.00  0.00    +0.000 A 
ATOM     12  C   UNL     1      -7.041  12.336  19.723  0.00  0.00    +0.000 A 
ATOM     13  C   UNL     1      -5.663  12.115  19.976  0.00  0.00    +0.000 A 
ATOM     14  C   UNL     1      -4.759  11.998  18.888  0.00  0.00    +0.000 A 
ATOM     15  H   UNL     1       0.163  10.056  20.111  0.00  0.00    +0.000 HD
ATOM     16  H   UNL     1      -4.402  12.029  15.719  0.00  0.00    +0.000 HD
ENDROOT
BRANCH   1  17
ATOM     17  C   UNL     1       1.338  10.496  18.465  0.00  0.00    +0.000 C 
BRANCH  17  22
ATOM     18  C   UNL     1       2.000   6.960  19.855  0.00  0.00    +0.000 A 
ATOM     19  C   UNL     1       2.871   6.448  18.874  0.00  0.00    +0.000 A 
ATOM     20  C   UNL     1       3.231   7.222  17.791  0.00  0.00    +0.000 A 
ATOM     21  C   UNL     1       2.760   8.528  17.638  0.00  0.00    +0.000 A 
ATOM     22  C   UNL     1       1.924   9.089  18.603  0.00  0.00    +0.000 A 
ATOM     23  C   UNL     1       1.524   8.269  19.698  0.00  0.00    +0.000 A 
BRANCH  18  24
ATOM     24  O   UNL     1       1.703   6.097  20.877  0.00  0.00    +0.000 OA
BRANCH  24  25
ATOM     25  C   UNL     1       2.296   4.801  20.832  0.00  0.00    +0.000 C 
BRANCH  25  27
ATOM     26  C   UNL     1       1.046   3.219  19.337  0.00  0.00    +0.000 C 
ATOM     27  C   UNL     1       1.210   3.707  20.779  0.00  0.00    +0.000 C 
ATOM     28  C   UNL     1       1.518   2.525  21.701  0.00  0.00    +0.000 C 
ENDBRANCH  25  27
ENDBRANCH  24  25
ENDBRANCH  18  24
ENDBRANCH  17  22
ENDBRANCH   1  17
TORSDOF 5
ENDMDL
MODEL 4
REMARK VINA RESULT:      -8.0      0.779      1.109
REMARK  Name = 
REMARK  7 active torsions:
REMARK  status: ('A' for Active; 'I' for Inactive)
REMARK    1  A    between atoms: C_1  and  C_2
REMARK    2  A    between atoms: C_2  and  C_3
REMARK    3  A    between atoms: C_2  and  C_4
REMARK    4  A    between atoms: C_4  and  O_5
REMARK    5  A    between atoms: O_5  and  C_6
REMARK    6  A    between atoms: C_10  and  C_11
REMARK    7  A    between atoms: C_11  and  N_12
REMARK                            x       y       z     vdW  Elec       q    Type
REMARK                         _______ _______ _______ _____ _____    ______ ____
ROOT
ATOM      1  N   UNL     1       1.566   8.321  19.614  0.00  0.00    +0.000 N 
ATOM      2  C   UNL     1       2.482   7.300  19.247  0.00  0.00    +0.000 A 
ATOM      3  C   UNL     1       3.185   7.335  18.016  0.00  0.00    +0.000 A 
ATOM      4  C   UNL     1       4.207   6.361  17.801  0.00  0.00    +0.000 A 
ATOM      5  C   UNL     1       4.416   5.466  18.846  0.00  0.00    +0.000 A 
ATOM      6  C   UNL     1       3.501   5.295  19.861  0.00  0.00    +0.000 A 
ATOM      7  N   UNL     1       2.589   6.250  20.081  0.00  0.00    +0.000 NA
ATOM      8  N   UNL     1       5.616   4.857  18.650  0.00  0.00    +0.000 N 
ATOM      9  C   UNL     1       5.960   4.930  17.332  0.00  0.00    +0.000 A 
ATOM     10  C   UNL     1       6.942   4.200  16.651  0.00  0.00    +0.000 A 
ATOM     11  C   UNL     1       6.990   4.329  15.270  0.00  0.00    +0.000 A 
ATOM     12  C   UNL     1       6.129   5.207  14.620  0.00  0.00    +0.000 A 
ATOM     13  C   UNL     1       5.207   6.011  15.337  0.00  0.00    +0.000 A 
ATOM     14  C   UNL     1       5.087   5.858  16.744  0.00  0.00    +0.000 A 
ATOM     15  H   UNL     1       0.756   8.221  19.012  0.00  0.00    +0.000 HD
ATOM     16  H   UNL     1       6.111   4.319  19.343  0.00  0.00    +0.000 HD
ENDROOT
BRANCH   1  17
ATOM     17  C   UNL     1       1.159   8.247  21.042  0.00  0.00    +0.000 C 
BRANCH  17  22
ATOM     18  C   UNL     1      -0.761  11.590  20.981  0.00  0.00    +0.000 A 
ATOM     19  C   UNL     1      -1.323  11.598  22.272  0.00  0.00    +0.000 A 
ATOM     20  C   UNL     1      -1.092  10.549  23.137  0.00  0.00    +0.000 A 
ATOM     21  C   UNL     1      -0.293   9.464  22.771  0.00  0.00    +0.000 A 
ATOM     22  C   UNL     1       0.313   9.431  21.516  0.00  0.00    +0.000 A 
ATOM     23  C   UNL     1       0.036  10.498  20.613  0.00  0.00    +0.000 A 
BRANCH  18  24
ATOM     24  O   UNL     1      -1.070  12.678  20.206  0.00  0.00    +0.000 OA
BRANCH  24  25
ATOM     25  C   UNL     1      -1.400  12.435  18.840  0.00  0.00    +0.000 C 
BRANCH  25  27
ATOM     26  C   UNL     1      -3.814  11.810  18.557  0.00  0.00    +0.000 C 
ATOM     27  C   UNL     1      -2.394  11.262  18.721  0.00  0.00    +0.000 C 
ATOM     28  C   UNL     1      -2.059  10.320  17.562  0.00  0.00    +0.000 C 
ENDBRANCH  25  27
ENDBRANCH  24  25
ENDBRANCH  18  24
ENDBRANCH  17  22
ENDBRANCH   1  17
TORSDOF 5
ENDMDL
MODEL 5
REMARK VINA RESULT:      -7.9      6.773      9.164
REMARK  Name = 
REMARK  7 active torsions:
REMARK  status: ('A' for Active; 'I' for Inactive)
REMARK    1  A    between atoms: C_1  and  C_2
REMARK    2  A    between atoms: C_2  and  C_3
REMARK    3  A    between atoms: C_2  and  C_4
REMARK    4  A    between atoms: C_4  and  O_5
REMARK    5  A    between atoms: O_5  and  C_6
REMARK    6  A    between atoms: C_10  and  C_11
REMARK    7  A    between atoms: C_11  and  N_12
REMARK                            x       y       z     vdW  Elec       q    Type
REMARK                         _______ _______ _______ _____ _____    ______ ____
ROOT
ATOM      1  N   UNL     1       8.300   7.776  18.647  0.00  0.00    +0.000 N 
ATOM      2  C   UNL     1       7.195   7.006  18.195  0.00  0.00    +0.000 A 
ATOM      3  C   UNL     1       6.714   5.889  18.924  0.00  0.00    +0.000 A 
ATOM      4  C   UNL     1       5.501   5.276  18.486  0.00  0.00    +0.000 A 
ATOM      5  C   UNL     1       4.902   5.855  17.372  0.00  0.00    +0.000 A 
ATOM      6  C   UNL     1       5.577   6.722  16.541  0.00  0.00    +0.000 A 
ATOM      7  N   UNL     1       6.680   7.330  16.995  0.00  0.00    +0.000 NA
ATOM      8  N   UNL     1       3.620   5.407  17.298  0.00  0.00    +0.000 N 
ATOM      9  C   UNL     1       3.503   4.232  17.981  0.00  0.00    +0.000 A 
ATOM     10  C   UNL     1       2.463   3.296  17.923  0.00  0.00    +0.000 A 
ATOM     11  C   UNL     1       2.651   2.091  18.585  0.00  0.00    +0.000 A 
ATOM     12  C   UNL     1       3.808   1.875  19.326  0.00  0.00    +0.000 A 
ATOM     13  C   UNL     1       4.807   2.873  19.453  0.00  0.00    +0.000 A 
ATOM     14  C   UNL     1       4.676   4.093  18.738  0.00  0.00    +0.000 A 
ATOM     15  H   UNL     1       9.127   7.198  18.539  0.00  0.00    +0.000 HD
ATOM     16  H   UNL     1       2.900   5.808  16.719  0.00  0.00    +0.000 HD
ENDROOT
BRANCH   1  17
ATOM     17  C   UNL     1       8.461   9.051  17.901  0.00  0.00    +0.000 C 
BRANCH  17  22
ATOM     18  C   UNL     1      10.757  12.079  18.556  0.00  0.00    +0.000 A 
ATOM     19  C   UNL     1      10.646  12.199  19.955  0.00  0.00    +0.000 A 
ATOM     20  C   UNL     1       9.846  11.329  20.666  0.00  0.00    +0.000 A 
ATOM     21  C   UNL     1       9.140  10.304  20.034  0.00  0.00    +0.000 A 
ATOM     22  C   UNL     1       9.249  10.125  18.655  0.00  0.00    +0.000 A 
ATOM     23  C   UNL     1      10.043  11.053  17.922  0.00  0.00    +0.000 A 
BRANCH  18  24
ATOM     24  O   UNL     1      11.568  13.007  17.956  0.00  0.00    +0.000 OA
BRANCH  24  25
ATOM     25  C   UNL     1      11.493  14.348  18.434  0.00  0.00    +0.000 C 
BRANCH  25  27
ATOM     26  C   UNL     1       9.404  15.724  18.638  0.00  0.00    +0.000 C 
ATOM     27  C   UNL     1      10.426  15.144  17.656  0.00  0.00    +0.000 C 
ATOM     28  C   UNL     1      11.029  16.263  16.804  0.00  0.00    +0.000 C 
ENDBRANCH  25  27
ENDBRANCH  24  25
ENDBRANCH  18  24
ENDBRANCH  17  22
ENDBRANCH   1  17
TORSDOF 5
ENDMDL
MODEL 6
REMARK VINA RESULT:      -7.8      3.457      9.479
REMARK  Name = 
REMARK  7 active torsions:
REMARK  status: ('A' for Active; 'I' for Inactive)
REMARK    1  A    between atoms: C_1  and  C_2
REMARK    2  A    between atoms: C_2  and  C_3
REMARK    3  A    between atoms: C_2  and  C_4
REMARK    4  A    between atoms: C_4  and  O_5
REMARK    5  A    between atoms: O_5  and  C_6
REMARK    6  A    between atoms: C_10  and  C_11
REMARK    7  A    between atoms: C_11  and  N_12
REMARK                            x       y       z     vdW  Elec       q    Type
REMARK                         _______ _______ _______ _____ _____    ______ ____
ROOT
ATOM      1  N   UNL     1       1.704   6.920  20.726  0.00  0.00    +0.000 N 
ATOM      2  C   UNL     1       1.225   8.255  20.665  0.00  0.00    +0.000 A 
ATOM      3  C   UNL     1       0.427   8.811  21.696  0.00  0.00    +0.000 A 
ATOM      4  C   UNL     1       0.130  10.206  21.635  0.00  0.00    +0.000 A 
ATOM      5  C   UNL     1       0.672  10.891  20.551  0.00  0.00    +0.000 A 
ATOM      6  C   UNL     1       1.162  10.239  19.441  0.00  0.00    +0.000 A 
ATOM      7  N   UNL     1       1.489   8.944  19.540  0.00  0.00    +0.000 NA
ATOM      8  N   UNL     1       0.610  12.223  20.816  0.00  0.00    +0.000 N 
ATOM      9  C   UNL     1      -0.357  12.462  21.749  0.00  0.00    +0.000 A 
ATOM     10  C   UNL     1      -0.948  13.685  22.090  0.00  0.00    +0.000 A 
ATOM     11  C   UNL     1      -2.034  13.651  22.952  0.00  0.00    +0.000 A 
ATOM     12  C   UNL     1      -2.456  12.441  23.496  0.00  0.00    +0.000 A 
ATOM     13  C   UNL     1      -1.782  11.225  23.216  0.00  0.00    +0.000 A 
ATOM     14  C   UNL     1      -0.708  11.215  22.287  0.00  0.00    +0.000 A 
ATOM     15  H   UNL     1       0.901   6.312  20.596  0.00  0.00    +0.000 HD
ATOM     16  H   UNL     1       1.104  12.937  20.306  0.00  0.00    +0.000 HD
ENDROOT
BRANCH   1  17
ATOM     17  C   UNL     1       2.741   6.629  19.703  0.00  0.00    +0.000 C 
BRANCH  17  22
ATOM     18  C   UNL     1       3.544   3.517  17.572  0.00  0.00    +0.000 A 
ATOM     19  C   UNL     1       2.365   2.766  17.743  0.00  0.00    +0.000 A 
ATOM     20  C   UNL     1       1.340   3.251  18.529  0.00  0.00    +0.000 A 
ATOM     21  C   UNL     1       1.431   4.491  19.164  0.00  0.00    +0.000 A 
ATOM     22  C   UNL     1       2.565   5.284  18.994  0.00  0.00    +0.000 A 
ATOM     23  C   UNL     1       3.636   4.759  18.214  0.00  0.00    +0.000 A 
BRANCH  18  24
ATOM     24  O   UNL     1       4.497   2.930  16.781  0.00  0.00    +0.000 OA
BRANCH  24  25
ATOM     25  C   UNL     1       5.613   3.731  16.398  0.00  0.00    +0.000 C 
BRANCH  25  27
ATOM     26  C   UNL     1       5.391   5.967  15.281  0.00  0.00    +0.000 C 
ATOM     27  C   UNL     1       5.332   4.453  15.065  0.00  0.00    +0.000 C 
ATOM     28  C   UNL     1       6.303   4.043  13.955  0.00  0.00    +0.000 C 
ENDBRANCH  25  27
ENDBRANCH  24  25
ENDBRANCH  18  24
ENDBRANCH  17  22
ENDBRANCH   1  17
TORSDOF 5
ENDMDL
MODEL 7
REMARK VINA RESULT:      -7.8      1.486      2.021
REMARK  Name = 
REMARK  7 active torsions:
REMARK  status: ('A' for Active; 'I' for Inactive)
REMARK    1  A    between atoms: C_1  and  C_2
REMARK    2  A    between atoms: C_2  and  C_3
REMARK    3  A    between atoms: C_2  and  C_4
REMARK    4  A    between atoms: C_4  and  O_5
REMARK    5  A    between atoms: O_5  and  C_6
REMARK    6  A    between atoms: C_10  and  C_11
REMARK    7  A    between atoms: C_11  and  N_12
REMARK                            x       y       z     vdW  Elec       q    Type
REMARK                         _______ _______ _______ _____ _____    ______ ____
ROOT
ATOM      1  N   UNL     1       1.441   8.616  19.692  0.00  0.00    +0.000 N 
ATOM      2  C   UNL     1       2.275   7.530  19.314  0.00  0.00    +0.000 A 
ATOM      3  C   UNL     1       3.061   7.566  18.135  0.00  0.00    +0.000 A 
ATOM      4  C   UNL     1       3.994   6.507  17.919  0.00  0.00    +0.000 A 
ATOM      5  C   UNL     1       4.042   5.534  18.912  0.00  0.00    +0.000 A 
ATOM      6  C   UNL     1       3.046   5.397  19.855  0.00  0.00    +0.000 A 
ATOM      7  N   UNL     1       2.220   6.426  20.081  0.00  0.00    +0.000 NA
ATOM      8  N   UNL     1       5.186   4.818  18.751  0.00  0.00    +0.000 N 
ATOM      9  C   UNL     1       5.625   4.935  17.465  0.00  0.00    +0.000 A 
ATOM     10  C   UNL     1       6.575   4.150  16.799  0.00  0.00    +0.000 A 
ATOM     11  C   UNL     1       6.730   4.356  15.435  0.00  0.00    +0.000 A 
ATOM     12  C   UNL     1       6.006   5.356  14.794  0.00  0.00    +0.000 A 
ATOM     13  C   UNL     1       5.121   6.206  15.504  0.00  0.00    +0.000 A 
ATOM     14  C   UNL     1       4.890   5.982  16.887  0.00  0.00    +0.000 A 
ATOM     15  H   UNL     1       0.668   8.636  19.035  0.00  0.00    +0.000 HD
ATOM     16  H   UNL     1       5.576   4.190  19.435  0.00  0.00    +0.000 HD
ENDROOT
BRANCH   1  17
ATOM     17  C   UNL     1       0.932   8.497  21.083  0.00  0.00    +0.000 C 
BRANCH  17  22
ATOM     18  C   UNL     1      -1.281  11.650  20.898  0.00  0.00    +0.000 A 
ATOM     19  C   UNL     1      -1.684  11.771  22.242  0.00  0.00    +0.000 A 
ATOM     20  C   UNL     1      -1.257  10.856  23.181  0.00  0.00    +0.000 A 
ATOM     21  C   UNL     1      -0.411   9.799  22.839  0.00  0.00    +0.000 A 
ATOM     22  C   UNL     1       0.043   9.661  21.527  0.00  0.00    +0.000 A 
ATOM     23  C   UNL     1      -0.436  10.586  20.554  0.00  0.00    +0.000 A 
BRANCH  18  24
ATOM     24  O   UNL     1      -1.778  12.608  20.053  0.00  0.00    +0.000 OA
BRANCH  24  25
ATOM     25  C   UNL     1      -1.030  12.892  18.873  0.00  0.00    +0.000 C 
BRANCH  25  27
ATOM     26  C   UNL     1       1.398  13.403  18.497  0.00  0.00    +0.000 C 
ATOM     27  C   UNL     1       0.113  13.881  19.179  0.00  0.00    +0.000 C 
ATOM     28  C   UNL     1      -0.212  15.311  18.742  0.00  0.00    +0.000 C 
ENDBRANCH  25  27
ENDBRANCH  24  25
ENDBRANCH  18  24
ENDBRANCH  17  22
ENDBRANCH   1  17
TORSDOF 5
ENDMDL
MODEL 8
REMARK VINA RESULT:      -7.8      3.034     10.040
REMARK  Name = 
REMARK  7 active torsions:
REMARK  status: ('A' for Active; 'I' for Inactive)
REMARK    1  A    between atoms: C_1  and  C_2
REMARK    2  A    between atoms: C_2  and  C_3
REMARK    3  A    between atoms: C_2  and  C_4
REMARK    4  A    between atoms: C_4  and  O_5
REMARK    5  A    between atoms: O_5  and  C_6
REMARK    6  A    between atoms: C_10  and  C_11
REMARK    7  A    between atoms: C_11  and  N_12
REMARK                            x       y       z     vdW  Elec       q    Type
REMARK                         _______ _______ _______ _____ _____    ______ ____
ROOT
ATOM      1  N   UNL     1       0.169  10.422  19.254  0.00  0.00    +0.000 N 
ATOM      2  C   UNL     1      -1.090  10.616  18.624  0.00  0.00    +0.000 A 
ATOM      3  C   UNL     1      -2.171  11.243  19.293  0.00  0.00    +0.000 A 
ATOM      4  C   UNL     1      -3.341  11.548  18.533  0.00  0.00    +0.000 A 
ATOM      5  C   UNL     1      -3.294  11.198  17.187  0.00  0.00    +0.000 A 
ATOM      6  C   UNL     1      -2.354  10.323  16.688  0.00  0.00    +0.000 A 
ATOM      7  N   UNL     1      -1.237  10.099  17.391  0.00  0.00    +0.000 NA
ATOM      8  N   UNL     1      -4.295  11.854  16.542  0.00  0.00    +0.000 N 
ATOM      9  C   UNL     1      -5.265  12.207  17.435  0.00  0.00    +0.000 A 
ATOM     10  C   UNL     1      -6.575  12.625  17.171  0.00  0.00    +0.000 A 
ATOM     11  C   UNL     1      -7.430  12.765  18.255  0.00  0.00    +0.000 A 
ATOM     12  C   UNL     1      -6.960  12.558  19.548  0.00  0.00    +0.000 A 
ATOM     13  C   UNL     1      -5.603  12.230  19.801  0.00  0.00    +0.000 A 
ATOM     14  C   UNL     1      -4.717  12.016  18.713  0.00  0.00    +0.000 A 
ATOM     15  H   UNL     1       0.036   9.708  19.963  0.00  0.00    +0.000 HD
ATOM     16  H   UNL     1      -4.376  11.947  15.543  0.00  0.00    +0.000 HD
ENDROOT
BRANCH   1  17
ATOM     17  C   UNL     1       1.235  10.014  18.303  0.00  0.00    +0.000 C 
BRANCH  17  22
ATOM     18  C   UNL     1       3.423   6.860  17.935  0.00  0.00    +0.000 A 
ATOM     19  C   UNL     1       3.148   6.202  19.150  0.00  0.00    +0.000 A 
ATOM     20  C   UNL     1       2.283   6.765  20.065  0.00  0.00    +0.000 A 
ATOM     21  C   UNL     1       1.650   7.984  19.816  0.00  0.00    +0.000 A 
ATOM     22  C   UNL     1       1.864   8.653  18.611  0.00  0.00    +0.000 A 
ATOM     23  C   UNL     1       2.790   8.086  17.689  0.00  0.00    +0.000 A 
BRANCH  18  24
ATOM     24  O   UNL     1       4.306   6.213  17.111  0.00  0.00    +0.000 OA
BRANCH  24  25
ATOM     25  C   UNL     1       5.266   5.356  17.725  0.00  0.00    +0.000 C 
BRANCH  25  27
ATOM     26  C   UNL     1       7.119   7.007  17.353  0.00  0.00    +0.000 C 
ATOM     27  C   UNL     1       6.661   5.568  17.103  0.00  0.00    +0.000 C 
ATOM     28  C   UNL     1       7.704   4.585  17.642  0.00  0.00    +0.000 C 
ENDBRANCH  25  27
ENDBRANCH  24  25
ENDBRANCH  18  24
ENDBRANCH  17  22
ENDBRANCH   1  17
TORSDOF 5
ENDMDL
MODEL 9
REMARK VINA RESULT:      -7.7      2.240      2.822
REMARK  Name = 
REMARK  7 active torsions:
REMARK  status: ('A' for Active; 'I' for Inactive)
REMARK    1  A    between atoms: C_1  and  C_2
REMARK    2  A    between atoms: C_2  and  C_3
REMARK    3  A    between atoms: C_2  and  C_4
REMARK    4  A    between atoms: C_4  and  O_5
REMARK    5  A    between atoms: O_5  and  C_6
REMARK    6  A    between atoms: C_10  and  C_11
REMARK    7  A    between atoms: C_11  and  N_12
REMARK                            x       y       z     vdW  Elec       q    Type
REMARK                         _______ _______ _______ _____ _____    ______ ____
ROOT
ATOM      1  N   UNL     1       1.503   8.301  19.649  0.00  0.00    +0.000 N 
ATOM      2  C   UNL     1       2.420   7.286  19.268  0.00  0.00    +0.000 A 
ATOM      3  C   UNL     1       3.141   7.349  18.049  0.00  0.00    +0.000 A 
ATOM      4  C   UNL     1       4.162   6.376  17.824  0.00  0.00    +0.000 A 
ATOM      5  C   UNL     1       4.352   5.454  18.848  0.00  0.00    +0.000 A 
ATOM      6  C   UNL     1       3.421   5.261  19.845  0.00  0.00    +0.000 A 
ATOM      7  N   UNL     1       2.510   6.214  20.077  0.00  0.00    +0.000 NA
ATOM      8  N   UNL     1       5.552   4.845  18.654  0.00  0.00    +0.000 N 
ATOM      9  C   UNL     1       5.915   4.950  17.343  0.00  0.00    +0.000 A 
ATOM     10  C   UNL     1       6.905   4.234  16.658  0.00  0.00    +0.000 A 
ATOM     11  C   UNL     1       6.973   4.398  15.282  0.00  0.00    +0.000 A 
ATOM     12  C   UNL     1       6.125   5.297  14.642  0.00  0.00    +0.000 A 
ATOM     13  C   UNL     1       5.196   6.086  15.367  0.00  0.00    +0.000 A 
ATOM     14  C   UNL     1       5.055   5.897  16.767  0.00  0.00    +0.000 A 
ATOM     15  H   UNL     1       0.701   8.220  19.032  0.00  0.00    +0.000 HD
ATOM     16  H   UNL     1       6.034   4.286  19.339  0.00  0.00    +0.000 HD
ENDROOT
BRANCH   1  17
ATOM     17  C   UNL     1       1.075   8.192  21.068  0.00  0.00    +0.000 C 
BRANCH  17  22
ATOM     18  C   UNL     1       0.036  11.890  21.403  0.00  0.00    +0.000 A 
ATOM     19  C   UNL     1      -0.801  11.830  22.534  0.00  0.00    +0.000 A 
ATOM     20  C   UNL     1      -1.028  10.626  23.168  0.00  0.00    +0.000 A 
ATOM     21  C   UNL     1      -0.433   9.444  22.723  0.00  0.00    +0.000 A 
ATOM     22  C   UNL     1       0.432   9.462  21.630  0.00  0.00    +0.000 A 
ATOM     23  C   UNL     1       0.628  10.702  20.955  0.00  0.00    +0.000 A 
BRANCH  18  24
ATOM     24  O   UNL     1       0.176  13.136  20.849  0.00  0.00    +0.000 OA
BRANCH  24  25
ATOM     25  C   UNL     1       0.670  13.206  19.514  0.00  0.00    +0.000 C 
BRANCH  25  27
ATOM     26  C   UNL     1       2.788  13.880  20.680  0.00  0.00    +0.000 C 
ATOM     27  C   UNL     1       1.916  14.112  19.443  0.00  0.00    +0.000 C 
ATOM     28  C   UNL     1       2.739  13.885  18.172  0.00  0.00    +0.000 C 
ENDBRANCH  25  27
ENDBRANCH  24  25
ENDBRANCH  18  24
ENDBRANCH  17  22
ENDBRANCH   1  17
TORSDOF 5
ENDMDL
