MODEL 1
REMARK VINA RESULT:      -7.5      0.000      0.000
REMARK  Name = 
REMARK  5 active torsions:
REMARK  status: ('A' for Active; 'I' for Inactive)
REMARK    1  A    between atoms: C_4  and  C_5
REMARK    2  A    between atoms: C_8  and  O_9
REMARK    3  A    between atoms: C_10  and  O_11
REMARK    4  A    between atoms: C_18  and  O_19
REMARK    5  A    between atoms: C_20  and  O_21
REMARK                            x       y       z     vdW  Elec       q    Type
REMARK                         _______ _______ _______ _____ _____    ______ ____
ROOT
ATOM      1  O   UNL     1       4.407   6.908  17.026  0.00  0.00    +0.000 OA
ATOM      2  C   UNL     1       3.460   6.706  17.776  0.00  0.00    +0.000 C 
ATOM      3  C   UNL     1       2.597   7.809  18.321  0.00  0.00    +0.000 C 
ATOM      4  C   UNL     1       2.222   7.421  19.741  0.00  0.00    +0.000 C 
ATOM      5  O   UNL     1       1.453   6.204  19.750  0.00  0.00    +0.000 OA
ATOM      6  C   UNL     1       2.046   5.162  19.086  0.00  0.00    +0.000 A 
ATOM      7  C   UNL     1       3.049   5.335  18.131  0.00  0.00    +0.000 A 
ATOM      8  C   UNL     1       3.620   4.237  17.473  0.00  0.00    +0.000 A 
ATOM      9  C   UNL     1       3.171   2.945  17.752  0.00  0.00    +0.000 A 
ATOM     10  C   UNL     1       2.156   2.772  18.687  0.00  0.00    +0.000 A 
ATOM     11  C   UNL     1       1.598   3.869  19.350  0.00  0.00    +0.000 A 
ENDROOT
BRANCH   4  12
ATOM     12  C   UNL     1       1.409   8.521  20.403  0.00  0.00    +0.000 A 
ATOM     13  C   UNL     1       0.745   9.500  19.639  0.00  0.00    +0.000 A 
ATOM     14  C   UNL     1      -0.038  10.484  20.252  0.00  0.00    +0.000 A 
ATOM     15  C   UNL     1      -0.142  10.502  21.636  0.00  0.00    +0.000 A 
ATOM     16  C   UNL     1       0.542   9.563  22.403  0.00  0.00    +0.000 A 
ATOM     17  C   UNL     1       1.316   8.579  21.804  0.00  0.00    +0.000 A 
BRANCH  15  18
ATOM     18  O   UNL     1      -0.909  11.425  22.292  0.00  0.00    +0.000 OA
ATOM     19  H   UNL     1      -1.763  11.009  22.500  0.00  0.00    +0.000 HD
ENDBRANCH  15  18
BRANCH  16  20
ATOM     20  O   UNL     1       0.447   9.599  23.766  0.00  0.00    +0.000 OA
ATOM     21  H   UNL     1       1.282  10.016  24.056  0.00  0.00    +0.000 HD
ENDBRANCH  16  20
ENDBRANCH   4  12
BRANCH  10  22
ATOM     22  O   UNL     1       1.666   1.529  18.988  0.00  0.00    +0.000 OA
ATOM     23  H   UNL     1       2.310   0.864  18.692  0.00  0.00    +0.000 HD
ENDBRANCH  10  22
BRANCH  11  24
ATOM     24  O   UNL     1       0.602   3.647  20.263  0.00  0.00    +0.000 OA
ATOM     25  H   UNL     1       0.384   4.532  20.619  0.00  0.00    +0.000 HD
ENDBRANCH  11  24
TORSDOF 5
ENDMDL
MODEL 2
REMARK VINA RESULT:      -7.4      2.078      4.052
REMARK  Name = 
REMARK  5 active torsions:
REMARK  status: ('A' for Active; 'I' for Inactive)
REMARK    1  A    between atoms: C_4  and  C_5
REMARK    2  A    between atoms: C_8  and  O_9
REMARK    3  A    between atoms: C_10  and  O_11
REMARK    4  A    between atoms: C_18  and  O_19
REMARK    5  A    between atoms: C_20  and  O_21
REMARK                            x       y       z     vdW  Elec       q    Type
REMARK                         _______ _______ _______ _____ _____    ______ ____
ROOT
ATOM      1  O   UNL     1       2.193   3.229  17.463  0.00  0.00    +0.000 OA
ATOM      2  C   UNL     1       2.750   4.309  17.620  0.00  0.00    +0.000 C 
ATOM      3  C   UNL     1       2.242   5.363  18.564  0.00  0.00    +0.000 C 
ATOM      4  C   UNL     1       2.508   6.709  17.912  0.00  0.00    +0.000 C 
ATOM      5  O   UNL     1       3.921   6.915  17.727  0.00  0.00    +0.000 OA
ATOM      6  C   UNL     1       4.552   5.901  17.055  0.00  0.00    +0.000 A 
ATOM      7  C   UNL     1       4.024   4.614  16.943  0.00  0.00    +0.000 A 
ATOM      8  C   UNL     1       4.711   3.606  16.251  0.00  0.00    +0.000 A 
ATOM      9  C   UNL     1       5.957   3.876  15.681  0.00  0.00    +0.000 A 
ATOM     10  C   UNL     1       6.495   5.152  15.811  0.00  0.00    +0.000 A 
ATOM     11  C   UNL     1       5.800   6.157  16.491  0.00  0.00    +0.000 A 
ENDROOT
BRANCH   4  12
ATOM     12  C   UNL     1       1.954   7.839  18.765  0.00  0.00    +0.000 A 
ATOM     13  C   UNL     1       1.779   7.689  20.154  0.00  0.00    +0.000 A 
ATOM     14  C   UNL     1       1.311   8.747  20.939  0.00  0.00    +0.000 A 
ATOM     15  C   UNL     1       0.995   9.954  20.331  0.00  0.00    +0.000 A 
ATOM     16  C   UNL     1       1.127  10.101  18.954  0.00  0.00    +0.000 A 
ATOM     17  C   UNL     1       1.598   9.059  18.166  0.00  0.00    +0.000 A 
BRANCH  15  18
ATOM     18  O   UNL     1       0.553  11.031  21.049  0.00  0.00    +0.000 OA
ATOM     19  H   UNL     1      -0.384  11.170  20.831  0.00  0.00    +0.000 HD
ENDBRANCH  15  18
BRANCH  16  20
ATOM     20  O   UNL     1       0.799  11.288  18.362  0.00  0.00    +0.000 OA
ATOM     21  H   UNL     1      -0.038  11.551  18.794  0.00  0.00    +0.000 HD
ENDBRANCH  16  20
ENDBRANCH   4  12
BRANCH  10  22
ATOM     22  O   UNL     1       7.719   5.468  15.285  0.00  0.00    +0.000 OA
ATOM     23  H   UNL     1       7.953   6.368  15.570  0.00  0.00    +0.000 HD
ENDBRANCH  10  22
BRANCH  11  24
ATOM     24  O   UNL     1       6.371   7.398  16.592  0.00  0.00    +0.000 OA
ATOM     25  H   UNL     1       7.335   7.233  16.598  0.00  0.00    +0.000 HD
ENDBRANCH  11  24
TORSDOF 5
ENDMDL
MODEL 3
REMARK VINA RESULT:      -7.4      1.886      3.719
REMARK  Name = 
REMARK  5 active torsions:
REMARK  status: ('A' for Active; 'I' for Inactive)
REMARK    1  A    between atoms: C_4  and  C_5
REMARK    2  A    between atoms: C_8  and  O_9
REMARK    3  A    between atoms: C_10  and  O_11
REMARK    4  A    between atoms: C_18  and  O_19
REMARK    5  A    between atoms: C_20  and  O_21
REMARK                            x       y       z     vdW  Elec       q    Type
REMARK                         _______ _______ _______ _____ _____    ______ ____
ROOT
ATOM      1  O   UNL     1       2.211   3.329  17.649  0.00  0.00    +0.000 OA
ATOM      2  C   UNL     1       2.769   4.415  17.752  0.00  0.00    +0.000 C 
ATOM      3  C   UNL     1       2.273   5.509  18.655  0.00  0.00    +0.000 C 
ATOM      4  C   UNL     1       2.529   6.825  17.942  0.00  0.00    +0.000 C 
ATOM      5  O   UNL     1       3.939   7.024  17.730  0.00  0.00    +0.000 OA
ATOM      6  C   UNL     1       4.562   5.981  17.095  0.00  0.00    +0.000 A 
ATOM      7  C   UNL     1       4.034   4.691  17.046  0.00  0.00    +0.000 A 
ATOM      8  C   UNL     1       4.713   3.654  16.390  0.00  0.00    +0.000 A 
ATOM      9  C   UNL     1       5.951   3.899  15.792  0.00  0.00    +0.000 A 
ATOM     10  C   UNL     1       6.489   5.180  15.859  0.00  0.00    +0.000 A 
ATOM     11  C   UNL     1       5.803   6.213  16.504  0.00  0.00    +0.000 A 
ENDROOT
BRANCH   4  12
ATOM     12  C   UNL     1       1.985   7.991  18.751  0.00  0.00    +0.000 A 
ATOM     13  C   UNL     1       1.661   9.218  18.141  0.00  0.00    +0.000 A 
ATOM     14  C   UNL     1       1.119  10.271  18.884  0.00  0.00    +0.000 A 
ATOM     15  C   UNL     1       0.919  10.106  20.247  0.00  0.00    +0.000 A 
ATOM     16  C   UNL     1       1.272   8.912  20.868  0.00  0.00    +0.000 A 
ATOM     17  C   UNL     1       1.803   7.857  20.139  0.00  0.00    +0.000 A 
BRANCH  15  18
ATOM     18  O   UNL     1       0.373  11.092  21.022  0.00  0.00    +0.000 OA
ATOM     19  H   UNL     1      -0.068  11.727  20.431  0.00  0.00    +0.000 HD
ENDBRANCH  15  18
BRANCH  16  20
ATOM     20  O   UNL     1       1.085   8.764  22.214  0.00  0.00    +0.000 OA
ATOM     21  H   UNL     1       1.412   9.602  22.597  0.00  0.00    +0.000 HD
ENDBRANCH  16  20
ENDBRANCH   4  12
BRANCH  10  22
ATOM     22  O   UNL     1       7.706   5.473  15.304  0.00  0.00    +0.000 OA
ATOM     23  H   UNL     1       7.690   6.395  14.998  0.00  0.00    +0.000 HD
ENDBRANCH  10  22
BRANCH  11  24
ATOM     24  O   UNL     1       6.374   7.457  16.543  0.00  0.00    +0.000 OA
ATOM     25  H   UNL     1       5.624   8.082  16.473  0.00  0.00    +0.000 HD
ENDBRANCH  11  24
TORSDOF 5
ENDMDL
MODEL 4
REMARK VINA RESULT:      -7.2      1.186      1.819
REMARK  Name = 
REMARK  5 active torsions:
REMARK  status: ('A' for Active; 'I' for Inactive)
REMARK    1  A    between atoms: C_4  and  C_5
REMARK    2  A    between atoms: C_8  and  O_9
REMARK    3  A    between atoms: C_10  and  O_11
REMARK    4  A    between atoms: C_18  and  O_19
REMARK    5  A    between atoms: C_20  and  O_21
REMARK                            x       y       z     vdW  Elec       q    Type
REMARK                         _______ _______ _______ _____ _____    ______ ____
ROOT
ATOM      1  O   UNL     1       4.961   6.104  16.907  0.00  0.00    +0.000 OA
ATOM      2  C   UNL     1       3.925   6.047  17.559  0.00  0.00    +0.000 C 
ATOM      3  C   UNL     1       3.096   7.257  17.884  0.00  0.00    +0.000 C 
ATOM      4  C   UNL     1       2.539   7.052  19.283  0.00  0.00    +0.000 C 
ATOM      5  O   UNL     1       1.682   5.896  19.326  0.00  0.00    +0.000 OA
ATOM      6  C   UNL     1       2.262   4.751  18.845  0.00  0.00    +0.000 A 
ATOM      7  C   UNL     1       3.373   4.753  18.001  0.00  0.00    +0.000 A 
ATOM      8  C   UNL     1       3.927   3.555  17.529  0.00  0.00    +0.000 A 
ATOM      9  C   UNL     1       3.352   2.332  17.883  0.00  0.00    +0.000 A 
ATOM     10  C   UNL     1       2.231   2.329  18.707  0.00  0.00    +0.000 A 
ATOM     11  C   UNL     1       1.690   3.527  19.185  0.00  0.00    +0.000 A 
ENDROOT
BRANCH   4  12
ATOM     12  C   UNL     1       1.746   8.269  19.730  0.00  0.00    +0.000 A 
ATOM     13  C   UNL     1       1.317   8.413  21.064  0.00  0.00    +0.000 A 
ATOM     14  C   UNL     1       0.626   9.556  21.479  0.00  0.00    +0.000 A 
ATOM     15  C   UNL     1       0.343  10.550  20.554  0.00  0.00    +0.000 A 
ATOM     16  C   UNL     1       0.727  10.400  19.224  0.00  0.00    +0.000 A 
ATOM     17  C   UNL     1       1.420   9.273  18.803  0.00  0.00    +0.000 A 
BRANCH  15  18
ATOM     18  O   UNL     1      -0.310  11.699  20.904  0.00  0.00    +0.000 OA
ATOM     19  H   UNL     1       0.066  12.012  21.744  0.00  0.00    +0.000 HD
ENDBRANCH  15  18
BRANCH  16  20
ATOM     20  O   UNL     1       0.430  11.378  18.316  0.00  0.00    +0.000 OA
ATOM     21  H   UNL     1      -0.540  11.321  18.208  0.00  0.00    +0.000 HD
ENDBRANCH  16  20
ENDBRANCH   4  12
BRANCH  10  22
ATOM     22  O   UNL     1       1.617   1.162  19.073  0.00  0.00    +0.000 OA
ATOM     23  H   UNL     1       0.660   1.259  18.931  0.00  0.00    +0.000 HD
ENDBRANCH  10  22
BRANCH  11  24
ATOM     24  O   UNL     1       0.586   3.472  19.994  0.00  0.00    +0.000 OA
ATOM     25  H   UNL     1      -0.039   4.120  19.613  0.00  0.00    +0.000 HD
ENDBRANCH  11  24
TORSDOF 5
ENDMDL
MODEL 5
REMARK VINA RESULT:      -7.1      3.199      7.890
REMARK  Name = 
REMARK  5 active torsions:
REMARK  status: ('A' for Active; 'I' for Inactive)
REMARK    1  A    between atoms: C_4  and  C_5
REMARK    2  A    between atoms: C_8  and  O_9
REMARK    3  A    between atoms: C_10  and  O_11
REMARK    4  A    between atoms: C_18  and  O_19
REMARK    5  A    between atoms: C_20  and  O_21
REMARK                            x       y       z     vdW  Elec       q    Type
REMARK                         _______ _______ _______ _____ _____    ______ ____
ROOT
ATOM      1  O   UNL     1       3.755   2.431  19.451  0.00  0.00    +0.000 OA
ATOM      2  C   UNL     1       3.807   3.373  18.668  0.00  0.00    +0.000 C 
ATOM      3  C   UNL     1       4.323   3.242  17.263  0.00  0.00    +0.000 C 
ATOM      4  C   UNL     1       5.069   4.525  16.941  0.00  0.00    +0.000 C 
ATOM      5  O   UNL     1       4.181   5.657  16.989  0.00  0.00    +0.000 OA
ATOM      6  C   UNL     1       3.477   5.767  18.160  0.00  0.00    +0.000 A 
ATOM      7  C   UNL     1       3.280   4.700  19.037  0.00  0.00    +0.000 A 
ATOM      8  C   UNL     1       2.545   4.860  20.220  0.00  0.00    +0.000 A 
ATOM      9  C   UNL     1       1.976   6.098  20.527  0.00  0.00    +0.000 A 
ATOM     10  C   UNL     1       2.153   7.158  19.643  0.00  0.00    +0.000 A 
ATOM     11  C   UNL     1       2.896   6.995  18.470  0.00  0.00    +0.000 A 
ENDROOT
BRANCH   4  12
ATOM     12  C   UNL     1       5.696   4.451  15.559  0.00  0.00    +0.000 A 
ATOM     13  C   UNL     1       5.126   3.668  14.537  0.00  0.00    +0.000 A 
ATOM     14  C   UNL     1       5.682   3.639  13.255  0.00  0.00    +0.000 A 
ATOM     15  C   UNL     1       6.828   4.380  12.997  0.00  0.00    +0.000 A 
ATOM     16  C   UNL     1       7.423   5.126  14.009  0.00  0.00    +0.000 A 
ATOM     17  C   UNL     1       6.874   5.167  15.284  0.00  0.00    +0.000 A 
BRANCH  15  18
ATOM     18  O   UNL     1       7.406   4.408  11.758  0.00  0.00    +0.000 OA
ATOM     19  H   UNL     1       8.246   4.893  11.832  0.00  0.00    +0.000 HD
ENDBRANCH  15  18
BRANCH  16  20
ATOM     20  O   UNL     1       8.560   5.840  13.750  0.00  0.00    +0.000 OA
ATOM     21  H   UNL     1       8.939   6.021  14.633  0.00  0.00    +0.000 HD
ENDBRANCH  16  20
ENDBRANCH   4  12
BRANCH  10  22
ATOM     22  O   UNL     1       1.605   8.388  19.884  0.00  0.00    +0.000 OA
ATOM     23  H   UNL     1       1.262   8.743  19.047  0.00  0.00    +0.000 HD
ENDBRANCH  10  22
BRANCH  11  24
ATOM     24  O   UNL     1       3.043   8.069  17.632  0.00  0.00    +0.000 OA
ATOM     25  H   UNL     1       2.305   7.994  16.993  0.00  0.00    +0.000 HD
ENDBRANCH  11  24
TORSDOF 5
ENDMDL
MODEL 6
REMARK VINA RESULT:      -7.1      2.339      4.196
REMARK  Name = 
REMARK  5 active torsions:
REMARK  status: ('A' for Active; 'I' for Inactive)
REMARK    1  A    between atoms: C_4  and  C_5
REMARK    2  A    between atoms: C_8  and  O_9
REMARK    3  A    between atoms: C_10  and  O_11
REMARK    4  A    between atoms: C_18  and  O_19
REMARK    5  A    between atoms: C_20  and  O_21
REMARK                            x       y       z     vdW  Elec       q    Type
REMARK                         _______ _______ _______ _____ _____    ______ ____
ROOT
ATOM      1  O   UNL     1       4.470   3.291  19.437  0.00  0.00    +0.000 OA
ATOM      2  C   UNL     1       4.366   4.373  18.871  0.00  0.00    +0.000 C 
ATOM      3  C   UNL     1       3.719   5.571  19.507  0.00  0.00    +0.000 C 
ATOM      4  C   UNL     1       2.975   6.311  18.409  0.00  0.00    +0.000 C 
ATOM      5  O   UNL     1       3.890   6.778  17.400  0.00  0.00    +0.000 OA
ATOM      6  C   UNL     1       4.702   5.802  16.885  0.00  0.00    +0.000 A 
ATOM      7  C   UNL     1       4.956   4.595  17.538  0.00  0.00    +0.000 A 
ATOM      8  C   UNL     1       5.801   3.629  16.974  0.00  0.00    +0.000 A 
ATOM      9  C   UNL     1       6.424   3.876  15.748  0.00  0.00    +0.000 A 
ATOM     10  C   UNL     1       6.189   5.088  15.106  0.00  0.00    +0.000 A 
ATOM     11  C   UNL     1       5.336   6.043  15.668  0.00  0.00    +0.000 A 
ENDROOT
BRANCH   4  12
ATOM     12  C   UNL     1       2.220   7.501  18.977  0.00  0.00    +0.000 A 
ATOM     13  C   UNL     1       1.804   7.530  20.322  0.00  0.00    +0.000 A 
ATOM     14  C   UNL     1       1.149   8.646  20.851  0.00  0.00    +0.000 A 
ATOM     15  C   UNL     1       0.889   9.732  20.026  0.00  0.00    +0.000 A 
ATOM     16  C   UNL     1       1.261   9.699  18.685  0.00  0.00    +0.000 A 
ATOM     17  C   UNL     1       1.918   8.598  18.153  0.00  0.00    +0.000 A 
BRANCH  15  18
ATOM     18  O   UNL     1       0.271  10.860  20.490  0.00  0.00    +0.000 OA
ATOM     19  H   UNL     1      -0.491  10.584  21.027  0.00  0.00    +0.000 HD
ENDBRANCH  15  18
BRANCH  16  20
ATOM     20  O   UNL     1       0.986  10.767  17.877  0.00  0.00    +0.000 OA
ATOM     21  H   UNL     1       0.709  11.473  18.495  0.00  0.00    +0.000 HD
ENDBRANCH  16  20
ENDBRANCH   4  12
BRANCH  10  22
ATOM     22  O   UNL     1       6.785   5.391  13.912  0.00  0.00    +0.000 OA
ATOM     23  H   UNL     1       7.205   4.586  13.565  0.00  0.00    +0.000 HD
ENDBRANCH  10  22
BRANCH  11  24
ATOM     24  O   UNL     1       5.137   7.220  14.997  0.00  0.00    +0.000 OA
ATOM     25  H   UNL     1       5.366   7.024  14.067  0.00  0.00    +0.000 HD
ENDBRANCH  11  24
TORSDOF 5
ENDMDL
MODEL 7
REMARK VINA RESULT:      -7.0      2.570      7.220
REMARK  Name = 
REMARK  5 active torsions:
REMARK  status: ('A' for Active; 'I' for Inactive)
REMARK    1  A    between atoms: C_4  and  C_5
REMARK    2  A    between atoms: C_8  and  O_9
REMARK    3  A    between atoms: C_10  and  O_11
REMARK    4  A    between atoms: C_18  and  O_19
REMARK    5  A    between atoms: C_20  and  O_21
REMARK                            x       y       z     vdW  Elec       q    Type
REMARK                         _______ _______ _______ _____ _____    ______ ____
ROOT
ATOM      1  O   UNL     1       2.078   5.234  21.259  0.00  0.00    +0.000 OA
ATOM      2  C   UNL     1       2.362   5.864  20.247  0.00  0.00    +0.000 C 
ATOM      3  C   UNL     1       3.193   5.292  19.134  0.00  0.00    +0.000 C 
ATOM      4  C   UNL     1       4.056   6.421  18.597  0.00  0.00    +0.000 C 
ATOM      5  O   UNL     1       3.238   7.472  18.052  0.00  0.00    +0.000 OA
ATOM      6  C   UNL     1       2.279   7.940  18.913  0.00  0.00    +0.000 A 
ATOM      7  C   UNL     1       1.826   7.218  20.017  0.00  0.00    +0.000 A 
ATOM      8  C   UNL     1       0.837   7.736  20.866  0.00  0.00    +0.000 A 
ATOM      9  C   UNL     1       0.272   8.985  20.600  0.00  0.00    +0.000 A 
ATOM     10  C   UNL     1       0.707   9.697  19.486  0.00  0.00    +0.000 A 
ATOM     11  C   UNL     1       1.701   9.181  18.650  0.00  0.00    +0.000 A 
ENDROOT
BRANCH   4  12
ATOM     12  C   UNL     1       4.993   5.915  17.512  0.00  0.00    +0.000 A 
ATOM     13  C   UNL     1       4.718   6.131  16.149  0.00  0.00    +0.000 A 
ATOM     14  C   UNL     1       5.606   5.702  15.157  0.00  0.00    +0.000 A 
ATOM     15  C   UNL     1       6.764   5.035  15.529  0.00  0.00    +0.000 A 
ATOM     16  C   UNL     1       7.027   4.780  16.872  0.00  0.00    +0.000 A 
ATOM     17  C   UNL     1       6.156   5.209  17.864  0.00  0.00    +0.000 A 
BRANCH  15  18
ATOM     18  O   UNL     1       7.681   4.610  14.607  0.00  0.00    +0.000 OA
ATOM     19  H   UNL     1       7.194   4.257  13.843  0.00  0.00    +0.000 HD
ENDBRANCH  15  18
BRANCH  16  20
ATOM     20  O   UNL     1       8.163   4.108  17.227  0.00  0.00    +0.000 OA
ATOM     21  H   UNL     1       7.866   3.474  17.909  0.00  0.00    +0.000 HD
ENDBRANCH  16  20
ENDBRANCH   4  12
BRANCH  10  22
ATOM     22  O   UNL     1       0.177  10.918  19.168  0.00  0.00    +0.000 OA
ATOM     23  H   UNL     1      -0.601  10.778  18.603  0.00  0.00    +0.000 HD
ENDBRANCH  10  22
BRANCH  11  24
ATOM     24  O   UNL     1       2.097   9.920  17.567  0.00  0.00    +0.000 OA
ATOM     25  H   UNL     1       2.976   9.565  17.325  0.00  0.00    +0.000 HD
ENDBRANCH  11  24
TORSDOF 5
ENDMDL
MODEL 8
REMARK VINA RESULT:      -7.0      2.401      7.350
REMARK  Name = 
REMARK  5 active torsions:
REMARK  status: ('A' for Active; 'I' for Inactive)
REMARK    1  A    between atoms: C_4  and  C_5
REMARK    2  A    between atoms: C_8  and  O_9
REMARK    3  A    between atoms: C_10  and  O_11
REMARK    4  A    between atoms: C_18  and  O_19
REMARK    5  A    between atoms: C_20  and  O_21
REMARK                            x       y       z     vdW  Elec       q    Type
REMARK                         _______ _______ _______ _____ _____    ______ ____
ROOT
ATOM      1  O   UNL     1       2.226   5.041  21.360  0.00  0.00    +0.000 OA
ATOM      2  C   UNL     1       2.427   5.590  20.283  0.00  0.00    +0.000 C 
ATOM      3  C   UNL     1       3.055   4.890  19.111  0.00  0.00    +0.000 C 
ATOM      4  C   UNL     1       3.930   5.908  18.401  0.00  0.00    +0.000 C 
ATOM      5  O   UNL     1       3.138   6.999  17.898  0.00  0.00    +0.000 OA
ATOM      6  C   UNL     1       2.342   7.595  18.843  0.00  0.00    +0.000 A 
ATOM      7  C   UNL     1       1.979   6.974  20.039  0.00  0.00    +0.000 A 
ATOM      8  C   UNL     1       1.157   7.621  20.972  0.00  0.00    +0.000 A 
ATOM      9  C   UNL     1       0.667   8.901  20.701  0.00  0.00    +0.000 A 
ATOM     10  C   UNL     1       1.010   9.513  19.499  0.00  0.00    +0.000 A 
ATOM     11  C   UNL     1       1.840   8.867  18.578  0.00  0.00    +0.000 A 
ENDROOT
BRANCH   4  12
ATOM     12  C   UNL     1       4.671   5.265  17.240  0.00  0.00    +0.000 A 
ATOM     13  C   UNL     1       4.184   4.101  16.616  0.00  0.00    +0.000 A 
ATOM     14  C   UNL     1       4.847   3.539  15.520  0.00  0.00    +0.000 A 
ATOM     15  C   UNL     1       6.014   4.131  15.058  0.00  0.00    +0.000 A 
ATOM     16  C   UNL     1       6.527   5.259  15.693  0.00  0.00    +0.000 A 
ATOM     17  C   UNL     1       5.872   5.828  16.776  0.00  0.00    +0.000 A 
BRANCH  15  18
ATOM     18  O   UNL     1       6.695   3.641  13.979  0.00  0.00    +0.000 OA
ATOM     19  H   UNL     1       6.647   2.669  14.011  0.00  0.00    +0.000 HD
ENDBRANCH  15  18
BRANCH  16  20
ATOM     20  O   UNL     1       7.686   5.825  15.241  0.00  0.00    +0.000 OA
ATOM     21  H   UNL     1       7.393   6.475  14.571  0.00  0.00    +0.000 HD
ENDBRANCH  16  20
ENDBRANCH   4  12
BRANCH  10  22
ATOM     22  O   UNL     1       0.546  10.759  19.175  0.00  0.00    +0.000 OA
ATOM     23  H   UNL     1      -0.023  11.073  19.897  0.00  0.00    +0.000 HD
ENDBRANCH  10  22
BRANCH  11  24
ATOM     24  O   UNL     1       2.150   9.512  17.410  0.00  0.00    +0.000 OA
ATOM     25  H   UNL     1       1.298   9.863  17.081  0.00  0.00    +0.000 HD
ENDBRANCH  11  24
TORSDOF 5
ENDMDL
MODEL 9
REMARK VINA RESULT:      -6.9      4.391      7.731
REMARK  Name = 
REMARK  5 active torsions:
REMARK  status: ('A' for Active; 'I' for Inactive)
REMARK    1  A    between atoms: C_4  and  C_5
REMARK    2  A    between atoms: C_8  and  O_9
REMARK    3  A    between atoms: C_10  and  O_11
REMARK    4  A    between atoms: C_18  and  O_19
REMARK    5  A    between atoms: C_20  and  O_21
REMARK                            x       y       z     vdW  Elec       q    Type
REMARK                         _______ _______ _______ _____ _____    ______ ____
ROOT
ATOM      1  O   UNL     1       6.388   5.119  20.035  0.00  0.00    +0.000 OA
ATOM      2  C   UNL     1       5.728   4.716  19.084  0.00  0.00    +0.000 C 
ATOM      3  C   UNL     1       6.331   4.409  17.742  0.00  0.00    +0.000 C 
ATOM      4  C   UNL     1       5.315   4.827  16.692  0.00  0.00    +0.000 C 
ATOM      5  O   UNL     1       4.103   4.063  16.824  0.00  0.00    +0.000 OA
ATOM      6  C   UNL     1       3.560   4.087  18.083  0.00  0.00    +0.000 A 
ATOM      7  C   UNL     1       4.290   4.422  19.224  0.00  0.00    +0.000 A 
ATOM      8  C   UNL     1       3.693   4.425  20.492  0.00  0.00    +0.000 A 
ATOM      9  C   UNL     1       2.351   4.066  20.633  0.00  0.00    +0.000 A 
ATOM     10  C   UNL     1       1.627   3.709  19.499  0.00  0.00    +0.000 A 
ATOM     11  C   UNL     1       2.224   3.720  18.235  0.00  0.00    +0.000 A 
ENDROOT
BRANCH   4  12
ATOM     12  C   UNL     1       5.873   4.625  15.293  0.00  0.00    +0.000 A 
ATOM     13  C   UNL     1       5.244   3.766  14.371  0.00  0.00    +0.000 A 
ATOM     14  C   UNL     1       5.737   3.619  13.071  0.00  0.00    +0.000 A 
ATOM     15  C   UNL     1       6.876   4.316  12.695  0.00  0.00    +0.000 A 
ATOM     16  C   UNL     1       7.529   5.138  13.610  0.00  0.00    +0.000 A 
ATOM     17  C   UNL     1       7.044   5.296  14.901  0.00  0.00    +0.000 A 
BRANCH  15  18
ATOM     18  O   UNL     1       7.393   4.230  11.432  0.00  0.00    +0.000 OA
ATOM     19  H   UNL     1       8.330   3.980  11.510  0.00  0.00    +0.000 HD
ENDBRANCH  15  18
BRANCH  16  20
ATOM     20  O   UNL     1       8.659   5.809  13.235  0.00  0.00    +0.000 OA
ATOM     21  H   UNL     1       8.827   5.508  12.320  0.00  0.00    +0.000 HD
ENDBRANCH  16  20
ENDBRANCH   4  12
BRANCH  10  22
ATOM     22  O   UNL     1       0.313   3.334  19.579  0.00  0.00    +0.000 OA
ATOM     23  H   UNL     1      -0.187   4.050  20.006  0.00  0.00    +0.000 HD
ENDBRANCH  10  22
BRANCH  11  24
ATOM     24  O   UNL     1       1.470   3.363  17.149  0.00  0.00    +0.000 OA
ATOM     25  H   UNL     1       0.753   2.805  17.512  0.00  0.00    +0.000 HD
ENDBRANCH  11  24
TORSDOF 5
ENDMDL
