MODEL 1
REMARK VINA RESULT:      -8.1      0.000      0.000
REMARK  Name = 
REMARK  8 active torsions:
REMARK  status: ('A' for Active; 'I' for Inactive)
REMARK    1  A    between atoms: C_1  and  O_2
REMARK    2  A    between atoms: O_2  and  C_3
REMARK    3  A    between atoms: C_6  and  N_7
REMARK    4  A    between atoms: C_8  and  C_10
REMARK    5  A    between atoms: N_16  and  C_17
REMARK    6  A    between atoms: C_17  and  C_18
REMARK    7  A    between atoms: C_28  and  O_29
REMARK    8  A    between atoms: O_29  and  C_30
REMARK                            x       y       z     vdW  Elec       q    Type
REMARK                         _______ _______ _______ _____ _____    ______ ____
ROOT
ATOM      1  C   UNL     1       0.261   9.866  19.165  0.00  0.00    +0.000 A 
ATOM      2  C   UNL     1       0.312   9.257  20.428  0.00  0.00    +0.000 A 
ATOM      3  C   UNL     1       1.184   8.188  20.659  0.00  0.00    +0.000 A 
ATOM      4  C   UNL     1       1.996   7.741  19.617  0.00  0.00    +0.000 A 
ATOM      5  C   UNL     1       2.718   6.445  19.689  0.00  0.00    +0.000 A 
ATOM      6  O   UNL     1       2.821   5.843  20.753  0.00  0.00    +0.000 OA
ATOM      7  N   UNL     1       3.206   5.973  18.469  0.00  0.00    +0.000 N 
ATOM      8  C   UNL     1       3.778   6.922  17.632  0.00  0.00    +0.000 A 
ATOM      9  S   UNL     1       5.142   6.640  16.716  0.00  0.00    +0.000 S 
ATOM     10  N   UNL     1       3.060   8.090  17.494  0.00  0.00    +0.000 N 
ATOM     11  C   UNL     1       2.072   8.454  18.419  0.00  0.00    +0.000 A 
ATOM     12  C   UNL     1       1.197   9.514  18.178  0.00  0.00    +0.000 A 
ATOM     13  H   UNL     1       3.319   8.721  16.742  0.00  0.00    +0.000 HD
ENDROOT
BRANCH   1  15
ATOM     14  N   UNL     1      -2.029  10.309  18.501  0.00  0.00    +0.000 N 
ATOM     15  C   UNL     1      -0.804  10.864  18.840  0.00  0.00    +0.000 C 
ATOM     16  O   UNL     1      -0.510  12.048  18.781  0.00  0.00    +0.000 OA
ATOM     17  H   UNL     1      -2.032   9.346  18.184  0.00  0.00    +0.000 HD
BRANCH  14  21
ATOM     18  C   UNL     1      -5.498  12.359  17.221  0.00  0.00    +0.000 A 
ATOM     19  C   UNL     1      -5.118  12.402  18.566  0.00  0.00    +0.000 A 
ATOM     20  C   UNL     1      -3.954  11.762  19.005  0.00  0.00    +0.000 A 
ATOM     21  C   UNL     1      -3.173  11.044  18.100  0.00  0.00    +0.000 A 
ATOM     22  C   UNL     1      -3.556  10.984  16.744  0.00  0.00    +0.000 A 
ATOM     23  C   UNL     1      -4.705  11.659  16.309  0.00  0.00    +0.000 A 
BRANCH  18  25
ATOM     24  C   UNL     1      -7.584  13.239  17.982  0.00  0.00    +0.000 C 
ATOM     25  O   UNL     1      -6.649  13.040  16.927  0.00  0.00    +0.000 OA
ENDBRANCH  18  25
BRANCH  22  26
ATOM     26  O   UNL     1      -2.699  10.282  15.925  0.00  0.00    +0.000 OA
ATOM     27  C   UNL     1      -3.056  10.184  14.552  0.00  0.00    +0.000 C 
ENDBRANCH  22  26
ENDBRANCH  14  21
ENDBRANCH   1  15
BRANCH   7  28
ATOM     28  C   UNL     1       2.216   5.159  17.755  0.00  0.00    +0.000 C 
BRANCH  28  29
ATOM     29  C   UNL     1       2.125   3.753  18.209  0.00  0.00    +0.000 A 
ATOM     30  C   UNL     1       1.152   2.943  18.754  0.00  0.00    +0.000 A 
ATOM     31  C   UNL     1       1.750   1.674  18.949  0.00  0.00    +0.000 A 
ATOM     32  C   UNL     1       3.044   1.780  18.500  0.00  0.00    +0.000 A 
ATOM     33  O   UNL     1       3.280   3.038  18.047  0.00  0.00    +0.000 OA
ENDBRANCH  28  29
ENDBRANCH   7  28
TORSDOF 6
ENDMDL
MODEL 2
REMARK VINA RESULT:      -7.9      3.959      9.830
REMARK  Name = 
REMARK  8 active torsions:
REMARK  status: ('A' for Active; 'I' for Inactive)
REMARK    1  A    between atoms: C_1  and  O_2
REMARK    2  A    between atoms: O_2  and  C_3
REMARK    3  A    between atoms: C_6  and  N_7
REMARK    4  A    between atoms: C_8  and  C_10
REMARK    5  A    between atoms: N_16  and  C_17
REMARK    6  A    between atoms: C_17  and  C_18
REMARK    7  A    between atoms: C_28  and  O_29
REMARK    8  A    between atoms: O_29  and  C_30
REMARK                            x       y       z     vdW  Elec       q    Type
REMARK                         _______ _______ _______ _____ _____    ______ ____
ROOT
ATOM      1  C   UNL     1       1.464   8.579  19.296  0.00  0.00    +0.000 A 
ATOM      2  C   UNL     1       1.567   8.162  20.632  0.00  0.00    +0.000 A 
ATOM      3  C   UNL     1       0.871   8.842  21.637  0.00  0.00    +0.000 A 
ATOM      4  C   UNL     1       0.078   9.935  21.289  0.00  0.00    +0.000 A 
ATOM      5  C   UNL     1      -0.445  10.877  22.311  0.00  0.00    +0.000 A 
ATOM      6  O   UNL     1      -0.405  10.595  23.504  0.00  0.00    +0.000 OA
ATOM      7  N   UNL     1      -0.925  12.087  21.806  0.00  0.00    +0.000 N 
ATOM      8  C   UNL     1      -1.670  12.008  20.637  0.00  0.00    +0.000 A 
ATOM      9  S   UNL     1      -3.026  12.933  20.345  0.00  0.00    +0.000 S 
ATOM     10  N   UNL     1      -1.135  11.204  19.654  0.00  0.00    +0.000 N 
ATOM     11  C   UNL     1      -0.163  10.240  19.949  0.00  0.00    +0.000 A 
ATOM     12  C   UNL     1       0.538   9.574  18.942  0.00  0.00    +0.000 A 
ATOM     13  H   UNL     1      -1.522  11.278  18.718  0.00  0.00    +0.000 HD
ENDROOT
BRANCH   1  15
ATOM     14  N   UNL     1       2.991   6.824  18.609  0.00  0.00    +0.000 N 
ATOM     15  C   UNL     1       2.357   8.002  18.244  0.00  0.00    +0.000 C 
ATOM     16  O   UNL     1       2.555   8.638  17.220  0.00  0.00    +0.000 OA
ATOM     17  H   UNL     1       3.075   6.629  19.601  0.00  0.00    +0.000 HD
BRANCH  14  21
ATOM     18  C   UNL     1       5.648   4.673  16.122  0.00  0.00    +0.000 A 
ATOM     19  C   UNL     1       5.924   6.003  16.454  0.00  0.00    +0.000 A 
ATOM     20  C   UNL     1       5.078   6.722  17.306  0.00  0.00    +0.000 A 
ATOM     21  C   UNL     1       3.925   6.120  17.810  0.00  0.00    +0.000 A 
ATOM     22  C   UNL     1       3.632   4.783  17.470  0.00  0.00    +0.000 A 
ATOM     23  C   UNL     1       4.506   4.062  16.644  0.00  0.00    +0.000 A 
BRANCH  18  25
ATOM     24  C   UNL     1       6.288   4.086  13.898  0.00  0.00    +0.000 C 
ATOM     25  O   UNL     1       6.566   4.085  15.294  0.00  0.00    +0.000 OA
ENDBRANCH  18  25
BRANCH  22  26
ATOM     26  O   UNL     1       2.492   4.270  18.048  0.00  0.00    +0.000 OA
ATOM     27  C   UNL     1       2.638   3.082  18.815  0.00  0.00    +0.000 C 
ENDBRANCH  22  26
ENDBRANCH  14  21
ENDBRANCH   1  15
BRANCH   7  28
ATOM     28  C   UNL     1       0.133  13.099  21.698  0.00  0.00    +0.000 C 
BRANCH  28  29
ATOM     29  C   UNL     1      -0.113  14.339  22.468  0.00  0.00    +0.000 A 
ATOM     30  C   UNL     1       0.198  15.674  22.330  0.00  0.00    +0.000 A 
ATOM     31  C   UNL     1      -0.363  16.334  23.451  0.00  0.00    +0.000 A 
ATOM     32  C   UNL     1      -0.992  15.368  24.197  0.00  0.00    +0.000 A 
ATOM     33  O   UNL     1      -0.849  14.153  23.606  0.00  0.00    +0.000 OA
ENDBRANCH  28  29
ENDBRANCH   7  28
TORSDOF 6
ENDMDL
MODEL 3
REMARK VINA RESULT:      -7.7      7.052     10.176
REMARK  Name = 
REMARK  8 active torsions:
REMARK  status: ('A' for Active; 'I' for Inactive)
REMARK    1  A    between atoms: C_1  and  O_2
REMARK    2  A    between atoms: O_2  and  C_3
REMARK    3  A    between atoms: C_6  and  N_7
REMARK    4  A    between atoms: C_8  and  C_10
REMARK    5  A    between atoms: N_16  and  C_17
REMARK    6  A    between atoms: C_17  and  C_18
REMARK    7  A    between atoms: C_28  and  O_29
REMARK    8  A    between atoms: O_29  and  C_30
REMARK                            x       y       z     vdW  Elec       q    Type
REMARK                         _______ _______ _______ _____ _____    ______ ____
ROOT
ATOM      1  C   UNL     1       8.167   8.260  18.056  0.00  0.00    +0.000 A 
ATOM      2  C   UNL     1       8.293   7.411  19.167  0.00  0.00    +0.000 A 
ATOM      3  C   UNL     1       7.703   6.143  19.153  0.00  0.00    +0.000 A 
ATOM      4  C   UNL     1       6.991   5.740  18.024  0.00  0.00    +0.000 A 
ATOM      5  C   UNL     1       6.098   4.554  18.045  0.00  0.00    +0.000 A 
ATOM      6  O   UNL     1       6.142   3.752  18.971  0.00  0.00    +0.000 OA
ATOM      7  N   UNL     1       5.205   4.469  16.974  0.00  0.00    +0.000 N 
ATOM      8  C   UNL     1       5.715   4.804  15.726  0.00  0.00    +0.000 A 
ATOM      9  S   UNL     1       5.327   3.991  14.324  0.00  0.00    +0.000 S 
ATOM     10  N   UNL     1       6.468   5.957  15.692  0.00  0.00    +0.000 N 
ATOM     11  C   UNL     1       7.014   6.509  16.859  0.00  0.00    +0.000 A 
ATOM     12  C   UNL     1       7.590   7.780  16.869  0.00  0.00    +0.000 A 
ATOM     13  H   UNL     1       6.683   6.358  14.784  0.00  0.00    +0.000 HD
ENDROOT
BRANCH   1  15
ATOM     14  N   UNL     1       9.625   9.928  19.043  0.00  0.00    +0.000 N 
ATOM     15  C   UNL     1       8.609   9.687  18.131  0.00  0.00    +0.000 C 
ATOM     16  O   UNL     1       7.994  10.532  17.499  0.00  0.00    +0.000 OA
ATOM     17  H   UNL     1       9.755   9.250  19.785  0.00  0.00    +0.000 HD
BRANCH  14  21
ATOM     18  C   UNL     1      11.298  13.672  20.073  0.00  0.00    +0.000 A 
ATOM     19  C   UNL     1      11.645  13.061  18.864  0.00  0.00    +0.000 A 
ATOM     20  C   UNL     1      11.076  11.839  18.486  0.00  0.00    +0.000 A 
ATOM     21  C   UNL     1      10.171  11.203  19.335  0.00  0.00    +0.000 A 
ATOM     22  C   UNL     1       9.824  11.806  20.562  0.00  0.00    +0.000 A 
ATOM     23  C   UNL     1      10.375  13.047  20.914  0.00  0.00    +0.000 A 
BRANCH  18  25
ATOM     24  C   UNL     1      11.328  16.037  19.747  0.00  0.00    +0.000 C 
ATOM     25  O   UNL     1      11.917  14.870  20.310  0.00  0.00    +0.000 OA
ENDBRANCH  18  25
BRANCH  22  26
ATOM     26  O   UNL     1       8.896  11.117  21.311  0.00  0.00    +0.000 OA
ATOM     27  C   UNL     1       8.315  11.806  22.411  0.00  0.00    +0.000 C 
ENDBRANCH  22  26
ENDBRANCH  14  21
ENDBRANCH   1  15
BRANCH   7  28
ATOM     28  C   UNL     1       3.948   5.176  17.245  0.00  0.00    +0.000 C 
BRANCH  28  29
ATOM     29  C   UNL     1       2.971   4.415  18.055  0.00  0.00    +0.000 A 
ATOM     30  C   UNL     1       2.404   4.538  19.305  0.00  0.00    +0.000 A 
ATOM     31  C   UNL     1       1.522   3.439  19.455  0.00  0.00    +0.000 A 
ATOM     32  C   UNL     1       1.592   2.722  18.286  0.00  0.00    +0.000 A 
ATOM     33  O   UNL     1       2.467   3.308  17.429  0.00  0.00    +0.000 OA
ENDBRANCH  28  29
ENDBRANCH   7  28
TORSDOF 6
ENDMDL
MODEL 4
REMARK VINA RESULT:      -7.6      6.755      9.976
REMARK  Name = 
REMARK  8 active torsions:
REMARK  status: ('A' for Active; 'I' for Inactive)
REMARK    1  A    between atoms: C_1  and  O_2
REMARK    2  A    between atoms: O_2  and  C_3
REMARK    3  A    between atoms: C_6  and  N_7
REMARK    4  A    between atoms: C_8  and  C_10
REMARK    5  A    between atoms: N_16  and  C_17
REMARK    6  A    between atoms: C_17  and  C_18
REMARK    7  A    between atoms: C_28  and  O_29
REMARK    8  A    between atoms: O_29  and  C_30
REMARK                            x       y       z     vdW  Elec       q    Type
REMARK                         _______ _______ _______ _____ _____    ______ ____
ROOT
ATOM      1  C   UNL     1       8.440   8.311  18.568  0.00  0.00    +0.000 A 
ATOM      2  C   UNL     1       8.542   7.300  19.536  0.00  0.00    +0.000 A 
ATOM      3  C   UNL     1       7.876   6.084  19.355  0.00  0.00    +0.000 A 
ATOM      4  C   UNL     1       7.112   5.896  18.203  0.00  0.00    +0.000 A 
ATOM      5  C   UNL     1       6.150   4.772  18.078  0.00  0.00    +0.000 A 
ATOM      6  O   UNL     1       6.168   3.839  18.874  0.00  0.00    +0.000 OA
ATOM      7  N   UNL     1       5.227   4.899  17.038  0.00  0.00    +0.000 N 
ATOM      8  C   UNL     1       5.724   5.388  15.837  0.00  0.00    +0.000 A 
ATOM      9  S   UNL     1       5.252   4.817  14.343  0.00  0.00    +0.000 S 
ATOM     10  N   UNL     1       6.545   6.489  15.948  0.00  0.00    +0.000 N 
ATOM     11  C   UNL     1       7.152   6.828  17.164  0.00  0.00    +0.000 A 
ATOM     12  C   UNL     1       7.805   8.048  17.343  0.00  0.00    +0.000 A 
ATOM     13  H   UNL     1       6.761   7.008  15.102  0.00  0.00    +0.000 HD
ENDROOT
BRANCH   1  15
ATOM     14  N   UNL     1       9.522  10.316  17.734  0.00  0.00    +0.000 N 
ATOM     15  C   UNL     1       8.969   9.684  18.838  0.00  0.00    +0.000 C 
ATOM     16  O   UNL     1       8.987  10.097  19.987  0.00  0.00    +0.000 OA
ATOM     17  H   UNL     1       9.822   9.728  16.964  0.00  0.00    +0.000 HD
BRANCH  14  21
ATOM     18  C   UNL     1      11.236  14.177  17.892  0.00  0.00    +0.000 A 
ATOM     19  C   UNL     1      12.041  13.048  18.073  0.00  0.00    +0.000 A 
ATOM     20  C   UNL     1      11.501  11.759  17.988  0.00  0.00    +0.000 A 
ATOM     21  C   UNL     1      10.138  11.592  17.750  0.00  0.00    +0.000 A 
ATOM     22  C   UNL     1       9.316  12.726  17.579  0.00  0.00    +0.000 A 
ATOM     23  C   UNL     1       9.875  14.011  17.631  0.00  0.00    +0.000 A 
BRANCH  18  25
ATOM     24  C   UNL     1      11.431  16.445  17.173  0.00  0.00    +0.000 C 
ATOM     25  O   UNL     1      11.895  15.374  17.987  0.00  0.00    +0.000 OA
ENDBRANCH  18  25
BRANCH  22  26
ATOM     26  O   UNL     1       7.992  12.453  17.312  0.00  0.00    +0.000 OA
ATOM     27  C   UNL     1       7.068  13.521  17.482  0.00  0.00    +0.000 C 
ENDBRANCH  22  26
ENDBRANCH  14  21
ENDBRANCH   1  15
BRANCH   7  28
ATOM     28  C   UNL     1       4.023   5.626  17.453  0.00  0.00    +0.000 C 
BRANCH  28  29
ATOM     29  C   UNL     1       2.926   4.772  17.961  0.00  0.00    +0.000 A 
ATOM     30  C   UNL     1       2.191   3.709  17.485  0.00  0.00    +0.000 A 
ATOM     31  C   UNL     1       1.281   3.358  18.513  0.00  0.00    +0.000 A 
ATOM     32  C   UNL     1       1.523   4.217  19.557  0.00  0.00    +0.000 A 
ATOM     33  O   UNL     1       2.522   5.077  19.232  0.00  0.00    +0.000 OA
ENDBRANCH  28  29
ENDBRANCH   7  28
TORSDOF 6
ENDMDL
MODEL 5
REMARK VINA RESULT:      -7.5      2.474      3.750
REMARK  Name = 
REMARK  8 active torsions:
REMARK  status: ('A' for Active; 'I' for Inactive)
REMARK    1  A    between atoms: C_1  and  O_2
REMARK    2  A    between atoms: O_2  and  C_3
REMARK    3  A    between atoms: C_6  and  N_7
REMARK    4  A    between atoms: C_8  and  C_10
REMARK    5  A    between atoms: N_16  and  C_17
REMARK    6  A    between atoms: C_17  and  C_18
REMARK    7  A    between atoms: C_28  and  O_29
REMARK    8  A    between atoms: O_29  and  C_30
REMARK                            x       y       z     vdW  Elec       q    Type
REMARK                         _______ _______ _______ _____ _____    ______ ____
ROOT
ATOM      1  C   UNL     1       2.396   7.963  18.755  0.00  0.00    +0.000 A 
ATOM      2  C   UNL     1       2.520   7.208  19.931  0.00  0.00    +0.000 A 
ATOM      3  C   UNL     1       3.334   6.071  19.954  0.00  0.00    +0.000 A 
ATOM      4  C   UNL     1       4.016   5.703  18.795  0.00  0.00    +0.000 A 
ATOM      5  C   UNL     1       4.650   4.368  18.651  0.00  0.00    +0.000 A 
ATOM      6  O   UNL     1       4.808   3.640  19.625  0.00  0.00    +0.000 OA
ATOM      7  N   UNL     1       4.993   4.016  17.344  0.00  0.00    +0.000 N 
ATOM      8  C   UNL     1       5.550   5.023  16.566  0.00  0.00    +0.000 A 
ATOM      9  S   UNL     1       6.803   4.773  15.495  0.00  0.00    +0.000 S 
ATOM     10  N   UNL     1       4.904   6.238  16.631  0.00  0.00    +0.000 N 
ATOM     11  C   UNL     1       4.032   6.547  17.683  0.00  0.00    +0.000 A 
ATOM     12  C   UNL     1       3.213   7.676  17.648  0.00  0.00    +0.000 A 
ATOM     13  H   UNL     1       5.137   6.937  15.932  0.00  0.00    +0.000 HD
ENDROOT
BRANCH   1  15
ATOM     14  N   UNL     1       0.721   9.344  19.836  0.00  0.00    +0.000 N 
ATOM     15  C   UNL     1       1.377   9.052  18.650  0.00  0.00    +0.000 C 
ATOM     16  O   UNL     1       1.113   9.514  17.550  0.00  0.00    +0.000 OA
ATOM     17  H   UNL     1       0.724   8.631  20.557  0.00  0.00    +0.000 HD
BRANCH  14  21
ATOM     18  C   UNL     1      -2.276  12.285  20.326  0.00  0.00    +0.000 A 
ATOM     19  C   UNL     1      -2.136  11.629  19.100  0.00  0.00    +0.000 A 
ATOM     20  C   UNL     1      -1.175  10.626  18.927  0.00  0.00    +0.000 A 
ATOM     21  C   UNL     1      -0.322  10.293  19.978  0.00  0.00    +0.000 A 
ATOM     22  C   UNL     1      -0.447  10.959  21.215  0.00  0.00    +0.000 A 
ATOM     23  C   UNL     1      -1.438  11.937  21.387  0.00  0.00    +0.000 A 
BRANCH  18  25
ATOM     24  C   UNL     1      -4.613  12.776  20.370  0.00  0.00    +0.000 C 
ATOM     25  O   UNL     1      -3.265  13.233  20.362  0.00  0.00    +0.000 OA
ENDBRANCH  18  25
BRANCH  22  26
ATOM     26  O   UNL     1       0.416  10.532  22.199  0.00  0.00    +0.000 OA
ATOM     27  C   UNL     1      -0.120   9.672  23.197  0.00  0.00    +0.000 C 
ENDBRANCH  22  26
ENDBRANCH  14  21
ENDBRANCH   1  15
BRANCH   7  28
ATOM     28  C   UNL     1       3.889   3.350  16.644  0.00  0.00    +0.000 C 
BRANCH  28  29
ATOM     29  C   UNL     1       2.704   3.065  17.484  0.00  0.00    +0.000 A 
ATOM     30  C   UNL     1       1.518   3.701  17.780  0.00  0.00    +0.000 A 
ATOM     31  C   UNL     1       0.819   2.851  18.672  0.00  0.00    +0.000 A 
ATOM     32  C   UNL     1       1.611   1.744  18.855  0.00  0.00    +0.000 A 
ATOM     33  O   UNL     1       2.756   1.864  18.135  0.00  0.00    +0.000 OA
ENDBRANCH  28  29
ENDBRANCH   7  28
TORSDOF 6
ENDMDL
MODEL 6
REMARK VINA RESULT:      -7.5      7.074     10.075
REMARK  Name = 
REMARK  8 active torsions:
REMARK  status: ('A' for Active; 'I' for Inactive)
REMARK    1  A    between atoms: C_1  and  O_2
REMARK    2  A    between atoms: O_2  and  C_3
REMARK    3  A    between atoms: C_6  and  N_7
REMARK    4  A    between atoms: C_8  and  C_10
REMARK    5  A    between atoms: N_16  and  C_17
REMARK    6  A    between atoms: C_17  and  C_18
REMARK    7  A    between atoms: C_28  and  O_29
REMARK    8  A    between atoms: O_29  and  C_30
REMARK                            x       y       z     vdW  Elec       q    Type
REMARK                         _______ _______ _______ _____ _____    ______ ____
ROOT
ATOM      1  C   UNL     1       8.281   8.329  18.382  0.00  0.00    +0.000 A 
ATOM      2  C   UNL     1       8.432   7.371  19.397  0.00  0.00    +0.000 A 
ATOM      3  C   UNL     1       7.877   6.096  19.247  0.00  0.00    +0.000 A 
ATOM      4  C   UNL     1       7.176   5.795  18.080  0.00  0.00    +0.000 A 
ATOM      5  C   UNL     1       6.317   4.589  17.972  0.00  0.00    +0.000 A 
ATOM      6  O   UNL     1       6.385   3.694  18.808  0.00  0.00    +0.000 OA
ATOM      7  N   UNL     1       5.427   4.593  16.897  0.00  0.00    +0.000 N 
ATOM      8  C   UNL     1       5.925   5.073  15.693  0.00  0.00    +0.000 A 
ATOM      9  S   UNL     1       5.559   4.403  14.211  0.00  0.00    +0.000 S 
ATOM     10  N   UNL     1       6.645   6.244  15.783  0.00  0.00    +0.000 N 
ATOM     11  C   UNL     1       7.176   6.684  17.003  0.00  0.00    +0.000 A 
ATOM     12  C   UNL     1       7.716   7.962  17.149  0.00  0.00    +0.000 A 
ATOM     13  H   UNL     1       6.848   6.745  14.923  0.00  0.00    +0.000 HD
ENDROOT
BRANCH   1  15
ATOM     14  N   UNL     1       9.245  10.001  19.852  0.00  0.00    +0.000 N 
ATOM     15  C   UNL     1       8.681   9.752  18.609  0.00  0.00    +0.000 C 
ATOM     16  O   UNL     1       8.392  10.591  17.770  0.00  0.00    +0.000 OA
ATOM     17  H   UNL     1       9.050   9.336  20.592  0.00  0.00    +0.000 HD
BRANCH  14  21
ATOM     18  C   UNL     1      10.455  13.858  21.091  0.00  0.00    +0.000 A 
ATOM     19  C   UNL     1       9.371  13.232  21.714  0.00  0.00    +0.000 A 
ATOM     20  C   UNL     1       8.976  11.941  21.345  0.00  0.00    +0.000 A 
ATOM     21  C   UNL     1       9.650  11.274  20.322  0.00  0.00    +0.000 A 
ATOM     22  C   UNL     1      10.737  11.903  19.679  0.00  0.00    +0.000 A 
ATOM     23  C   UNL     1      11.145  13.183  20.081  0.00  0.00    +0.000 A 
BRANCH  18  25
ATOM     24  C   UNL     1      11.061  16.114  20.600  0.00  0.00    +0.000 C 
ATOM     25  O   UNL     1      10.741  15.112  21.559  0.00  0.00    +0.000 OA
ENDBRANCH  18  25
BRANCH  22  26
ATOM     26  O   UNL     1      11.358  11.148  18.708  0.00  0.00    +0.000 OA
ATOM     27  C   UNL     1      11.645  11.795  17.475  0.00  0.00    +0.000 C 
ENDBRANCH  22  26
ENDBRANCH  14  21
ENDBRANCH   1  15
BRANCH   7  28
ATOM     28  C   UNL     1       4.150   5.231  17.239  0.00  0.00    +0.000 C 
BRANCH  28  29
ATOM     29  C   UNL     1       3.118   4.310  17.767  0.00  0.00    +0.000 A 
ATOM     30  C   UNL     1       2.059   4.401  18.644  0.00  0.00    +0.000 A 
ATOM     31  C   UNL     1       1.469   3.114  18.694  0.00  0.00    +0.000 A 
ATOM     32  C   UNL     1       2.193   2.321  17.837  0.00  0.00    +0.000 A 
ATOM     33  O   UNL     1       3.195   3.040  17.268  0.00  0.00    +0.000 OA
ENDBRANCH  28  29
ENDBRANCH   7  28
TORSDOF 6
ENDMDL
MODEL 7
REMARK VINA RESULT:      -7.5      3.249      4.849
REMARK  Name = 
REMARK  8 active torsions:
REMARK  status: ('A' for Active; 'I' for Inactive)
REMARK    1  A    between atoms: C_1  and  O_2
REMARK    2  A    between atoms: O_2  and  C_3
REMARK    3  A    between atoms: C_6  and  N_7
REMARK    4  A    between atoms: C_8  and  C_10
REMARK    5  A    between atoms: N_16  and  C_17
REMARK    6  A    between atoms: C_17  and  C_18
REMARK    7  A    between atoms: C_28  and  O_29
REMARK    8  A    between atoms: O_29  and  C_30
REMARK                            x       y       z     vdW  Elec       q    Type
REMARK                         _______ _______ _______ _____ _____    ______ ____
ROOT
ATOM      1  C   UNL     1       1.540   9.095  19.125  0.00  0.00    +0.000 A 
ATOM      2  C   UNL     1       1.763   8.764  17.779  0.00  0.00    +0.000 A 
ATOM      3  C   UNL     1       2.215   7.487  17.435  0.00  0.00    +0.000 A 
ATOM      4  C   UNL     1       2.440   6.553  18.446  0.00  0.00    +0.000 A 
ATOM      5  C   UNL     1       3.191   5.296  18.197  0.00  0.00    +0.000 A 
ATOM      6  O   UNL     1       3.427   4.923  17.053  0.00  0.00    +0.000 OA
ATOM      7  N   UNL     1       3.627   4.633  19.345  0.00  0.00    +0.000 N 
ATOM      8  C   UNL     1       2.727   4.584  20.401  0.00  0.00    +0.000 A 
ATOM      9  S   UNL     1       2.522   3.247  21.376  0.00  0.00    +0.000 S 
ATOM     10  N   UNL     1       2.097   5.775  20.690  0.00  0.00    +0.000 N 
ATOM     11  C   UNL     1       2.053   6.822  19.759  0.00  0.00    +0.000 A 
ATOM     12  C   UNL     1       1.612   8.098  20.113  0.00  0.00    +0.000 A 
ATOM     13  H   UNL     1       1.598   5.848  21.571  0.00  0.00    +0.000 HD
ENDROOT
BRANCH   1  15
ATOM     14  N   UNL     1       1.340  11.429  18.496  0.00  0.00    +0.000 N 
ATOM     15  C   UNL     1       1.259  10.507  19.529  0.00  0.00    +0.000 C 
ATOM     16  O   UNL     1       1.100  10.765  20.712  0.00  0.00    +0.000 OA
ATOM     17  H   UNL     1       1.877  11.163  17.677  0.00  0.00    +0.000 HD
BRANCH  14  21
ATOM     18  C   UNL     1       0.713  15.575  19.031  0.00  0.00    +0.000 A 
ATOM     19  C   UNL     1       1.999  15.041  19.160  0.00  0.00    +0.000 A 
ATOM     20  C   UNL     1       2.235  13.677  18.951  0.00  0.00    +0.000 A 
ATOM     21  C   UNL     1       1.174  12.828  18.638  0.00  0.00    +0.000 A 
ATOM     22  C   UNL     1      -0.128  13.356  18.518  0.00  0.00    +0.000 A 
ATOM     23  C   UNL     1      -0.347  14.730  18.695  0.00  0.00    +0.000 A 
BRANCH  18  25
ATOM     24  C   UNL     1      -0.408  17.633  18.574  0.00  0.00    +0.000 C 
ATOM     25  O   UNL     1       0.627  16.925  19.247  0.00  0.00    +0.000 OA
ENDBRANCH  18  25
BRANCH  22  26
ATOM     26  O   UNL     1      -1.099  12.444  18.171  0.00  0.00    +0.000 OA
ATOM     27  C   UNL     1      -2.104  12.172  19.139  0.00  0.00    +0.000 C 
ENDBRANCH  22  26
ENDBRANCH  14  21
ENDBRANCH   1  15
BRANCH   7  28
ATOM     28  C   UNL     1       4.945   5.103  19.788  0.00  0.00    +0.000 C 
BRANCH  28  29
ATOM     29  C   UNL     1       5.919   5.337  18.698  0.00  0.00    +0.000 A 
ATOM     30  C   UNL     1       6.352   6.421  17.966  0.00  0.00    +0.000 A 
ATOM     31  C   UNL     1       7.328   5.931  17.064  0.00  0.00    +0.000 A 
ATOM     32  C   UNL     1       7.442   4.585  17.307  0.00  0.00    +0.000 A 
ATOM     33  O   UNL     1       6.592   4.215  18.300  0.00  0.00    +0.000 OA
ENDBRANCH  28  29
ENDBRANCH   7  28
TORSDOF 6
ENDMDL
MODEL 8
REMARK VINA RESULT:      -7.4      4.300      5.324
REMARK  Name = 
REMARK  8 active torsions:
REMARK  status: ('A' for Active; 'I' for Inactive)
REMARK    1  A    between atoms: C_1  and  O_2
REMARK    2  A    between atoms: O_2  and  C_3
REMARK    3  A    between atoms: C_6  and  N_7
REMARK    4  A    between atoms: C_8  and  C_10
REMARK    5  A    between atoms: N_16  and  C_17
REMARK    6  A    between atoms: C_17  and  C_18
REMARK    7  A    between atoms: C_28  and  O_29
REMARK    8  A    between atoms: O_29  and  C_30
REMARK                            x       y       z     vdW  Elec       q    Type
REMARK                         _______ _______ _______ _____ _____    ______ ____
ROOT
ATOM      1  C   UNL     1       0.978   8.789  20.851  0.00  0.00    +0.000 A 
ATOM      2  C   UNL     1       1.415   9.254  19.601  0.00  0.00    +0.000 A 
ATOM      3  C   UNL     1       2.030   8.378  18.701  0.00  0.00    +0.000 A 
ATOM      4  C   UNL     1       2.200   7.043  19.065  0.00  0.00    +0.000 A 
ATOM      5  C   UNL     1       3.095   6.133  18.304  0.00  0.00    +0.000 A 
ATOM      6  O   UNL     1       3.521   6.452  17.199  0.00  0.00    +0.000 OA
ATOM      7  N   UNL     1       3.430   4.949  18.964  0.00  0.00    +0.000 N 
ATOM      8  C   UNL     1       2.401   4.324  19.657  0.00  0.00    +0.000 A 
ATOM      9  S   UNL     1       2.192   2.671  19.701  0.00  0.00    +0.000 S 
ATOM     10  N   UNL     1       1.628   5.158  20.435  0.00  0.00    +0.000 N 
ATOM     11  C   UNL     1       1.612   6.544  20.228  0.00  0.00    +0.000 A 
ATOM     12  C   UNL     1       1.009   7.414  21.137  0.00  0.00    +0.000 A 
ATOM     13  H   UNL     1       1.008   4.732  21.116  0.00  0.00    +0.000 HD
ENDROOT
BRANCH   1  15
ATOM     14  N   UNL     1      -0.334  10.742  21.440  0.00  0.00    +0.000 N 
ATOM     15  C   UNL     1       0.512   9.745  21.902  0.00  0.00    +0.000 C 
ATOM     16  O   UNL     1       0.979   9.663  23.028  0.00  0.00    +0.000 OA
ATOM     17  H   UNL     1      -0.309  10.950  20.448  0.00  0.00    +0.000 HD
BRANCH  14  21
ATOM     18  C   UNL     1      -1.891  13.987  23.657  0.00  0.00    +0.000 A 
ATOM     19  C   UNL     1      -2.541  12.749  23.681  0.00  0.00    +0.000 A 
ATOM     20  C   UNL     1      -2.023  11.651  22.985  0.00  0.00    +0.000 A 
ATOM     21  C   UNL     1      -0.859  11.794  22.230  0.00  0.00    +0.000 A 
ATOM     22  C   UNL     1      -0.205  13.043  22.188  0.00  0.00    +0.000 A 
ATOM     23  C   UNL     1      -0.714  14.126  22.919  0.00  0.00    +0.000 A 
BRANCH  18  25
ATOM     24  C   UNL     1      -1.674  15.750  25.252  0.00  0.00    +0.000 C 
ATOM     25  O   UNL     1      -2.498  14.969  24.394  0.00  0.00    +0.000 OA
ENDBRANCH  18  25
BRANCH  22  26
ATOM     26  O   UNL     1       0.955  13.071  21.445  0.00  0.00    +0.000 OA
ATOM     27  C   UNL     1       1.599  14.331  21.303  0.00  0.00    +0.000 C 
ENDBRANCH  22  26
ENDBRANCH  14  21
ENDBRANCH   1  15
BRANCH   7  28
ATOM     28  C   UNL     1       4.623   5.103  19.804  0.00  0.00    +0.000 C 
BRANCH  28  29
ATOM     29  C   UNL     1       5.910   4.994  19.080  0.00  0.00    +0.000 A 
ATOM     30  C   UNL     1       6.330   4.492  17.867  0.00  0.00    +0.000 A 
ATOM     31  C   UNL     1       7.726   4.723  17.800  0.00  0.00    +0.000 A 
ATOM     32  C   UNL     1       8.071   5.361  18.966  0.00  0.00    +0.000 A 
ATOM     33  O   UNL     1       6.974   5.533  19.748  0.00  0.00    +0.000 OA
ENDBRANCH  28  29
ENDBRANCH   7  28
TORSDOF 6
ENDMDL
MODEL 9
REMARK VINA RESULT:      -7.4      4.302      5.143
REMARK  Name = 
REMARK  8 active torsions:
REMARK  status: ('A' for Active; 'I' for Inactive)
REMARK    1  A    between atoms: C_1  and  O_2
REMARK    2  A    between atoms: O_2  and  C_3
REMARK    3  A    between atoms: C_6  and  N_7
REMARK    4  A    between atoms: C_8  and  C_10
REMARK    5  A    between atoms: N_16  and  C_17
REMARK    6  A    between atoms: C_17  and  C_18
REMARK    7  A    between atoms: C_28  and  O_29
REMARK    8  A    between atoms: O_29  and  C_30
REMARK                            x       y       z     vdW  Elec       q    Type
REMARK                         _______ _______ _______ _____ _____    ______ ____
ROOT
ATOM      1  C   UNL     1       1.413   8.407  20.512  0.00  0.00    +0.000 A 
ATOM      2  C   UNL     1       1.914   8.775  19.254  0.00  0.00    +0.000 A 
ATOM      3  C   UNL     1       2.457   7.807  18.404  0.00  0.00    +0.000 A 
ATOM      4  C   UNL     1       2.492   6.478  18.826  0.00  0.00    +0.000 A 
ATOM      5  C   UNL     1       3.308   5.456  18.123  0.00  0.00    +0.000 A 
ATOM      6  O   UNL     1       3.782   5.684  17.015  0.00  0.00    +0.000 OA
ATOM      7  N   UNL     1       3.516   4.274  18.837  0.00  0.00    +0.000 N 
ATOM      8  C   UNL     1       2.420   3.781  19.533  0.00  0.00    +0.000 A 
ATOM      9  S   UNL     1       2.052   2.158  19.640  0.00  0.00    +0.000 S 
ATOM     10  N   UNL     1       1.717   4.717  20.259  0.00  0.00    +0.000 N 
ATOM     11  C   UNL     1       1.839   6.088  19.996  0.00  0.00    +0.000 A 
ATOM     12  C   UNL     1       1.306   7.049  20.855  0.00  0.00    +0.000 A 
ATOM     13  H   UNL     1       1.047   4.381  20.944  0.00  0.00    +0.000 HD
ENDROOT
BRANCH   1  15
ATOM     14  N   UNL     1       0.193  10.442  21.017  0.00  0.00    +0.000 N 
ATOM     15  C   UNL     1       1.023   9.448  21.514  0.00  0.00    +0.000 C 
ATOM     16  O   UNL     1       1.532   9.423  22.624  0.00  0.00    +0.000 OA
ATOM     17  H   UNL     1       0.185  10.583  20.013  0.00  0.00    +0.000 HD
BRANCH  14  21
ATOM     18  C   UNL     1      -1.186  13.875  23.063  0.00  0.00    +0.000 A 
ATOM     19  C   UNL     1      -1.754  12.626  23.333  0.00  0.00    +0.000 A 
ATOM     20  C   UNL     1      -1.287  11.471  22.695  0.00  0.00    +0.000 A 
ATOM     21  C   UNL     1      -0.263  11.564  21.753  0.00  0.00    +0.000 A 
ATOM     22  C   UNL     1       0.306  12.822  21.464  0.00  0.00    +0.000 A 
ATOM     23  C   UNL     1      -0.145  13.966  22.137  0.00  0.00    +0.000 A 
BRANCH  18  25
ATOM     24  C   UNL     1      -2.716  14.608  24.744  0.00  0.00    +0.000 C 
ATOM     25  O   UNL     1      -1.727  14.917  23.768  0.00  0.00    +0.000 OA
ENDBRANCH  18  25
BRANCH  22  26
ATOM     26  O   UNL     1       1.335  12.801  20.549  0.00  0.00    +0.000 OA
ATOM     27  C   UNL     1       1.108  13.463  19.310  0.00  0.00    +0.000 C 
ENDBRANCH  22  26
ENDBRANCH  14  21
ENDBRANCH   1  15
BRANCH   7  28
ATOM     28  C   UNL     1       4.704   4.349  19.695  0.00  0.00    +0.000 C 
BRANCH  28  29
ATOM     29  C   UNL     1       5.925   4.848  19.023  0.00  0.00    +0.000 A 
ATOM     30  C   UNL     1       6.719   5.971  19.107  0.00  0.00    +0.000 A 
ATOM     31  C   UNL     1       7.755   5.801  18.156  0.00  0.00    +0.000 A 
ATOM     32  C   UNL     1       7.540   4.584  17.559  0.00  0.00    +0.000 A 
ATOM     33  O   UNL     1       6.432   3.996  18.081  0.00  0.00    +0.000 OA
ENDBRANCH  28  29
ENDBRANCH   7  28
TORSDOF 6
ENDMDL
