MODEL 1
REMARK VINA RESULT:      -7.3      0.000      0.000
REMARK  Name = 
REMARK  9 active torsions:
REMARK  status: ('A' for Active; 'I' for Inactive)
REMARK    1  A    between atoms: C_1  and  O_2
REMARK    2  A    between atoms: O_2  and  N_3
REMARK    3  A    between atoms: C_4  and  C_5
REMARK    4  A    between atoms: C_4  and  C_28
REMARK    5  A    between atoms: N_7  and  CA_8
REMARK    6  A    between atoms: CA_12  and  C_13
REMARK    7  A    between atoms: C_16  and  N_17
REMARK    8  A    between atoms: C_20  and  C_21
REMARK    9  A    between atoms: C_22  and  C_23
REMARK                            x       y       z     vdW  Elec       q    Type
REMARK                         _______ _______ _______ _____ _____    ______ ____
ROOT
ATOM      1  CA  UNL     1      -0.419  12.071  20.986  0.00  0.00    +0.000 C 
ATOM      2  C   UNL     1      -0.127  11.559  19.538  0.00  0.00    +0.000 C 
ATOM      3  O   UNL     1      -0.645  11.730  18.459  0.00  0.00    +0.000 OA
ATOM      4  N   UNL     1       0.760  10.655  20.027  0.00  0.00    +0.000 N 
ATOM      5  CA  UNL     1       1.221   9.457  19.521  0.00  0.00    +0.000 C 
ATOM      6  C   UNL     1       1.391   8.390  20.332  0.00  0.00    +0.000 C 
ATOM      7  C   UNL     1       0.947   8.501  21.802  0.00  0.00    +0.000 C 
ATOM      8  C   UNL     1      -0.040   9.637  22.068  0.00  0.00    +0.000 C 
ATOM      9  C   UNL     1       0.512  10.898  21.439  0.00  0.00    +0.000 C 
ENDROOT
BRANCH   6  10
ATOM     10  N   UNL     1       2.019   7.166  19.943  0.00  0.00    +0.000 N 
ATOM     11  C   UNL     1       1.676   6.014  20.569  0.00  0.00    +0.000 A 
ATOM     12  C   UNL     1       2.390   4.835  20.388  0.00  0.00    +0.000 A 
ATOM     13  C   UNL     1       3.452   4.789  19.491  0.00  0.00    +0.000 A 
ATOM     14  C   UNL     1       4.222   3.510  19.324  0.00  0.00    +0.000 C 
ATOM     15  C   UNL     1       3.751   5.953  18.773  0.00  0.00    +0.000 A 
ATOM     16  C   UNL     1       4.788   6.006  17.683  0.00  0.00    +0.000 C 
ATOM     17  C   UNL     1       3.026   7.130  19.033  0.00  0.00    +0.000 A 
ENDBRANCH   6  10
BRANCH   1  20
ATOM     18  C   UNL     1      -2.768  12.931  21.169  0.00  0.00    +0.000 C 
ATOM     19  O   UNL     1      -2.472  13.931  20.528  0.00  0.00    +0.000 OA
ATOM     20  N   UNL     1      -1.832  11.945  21.407  0.00  0.00    +0.000 N 
ATOM     21  H   UNL     1      -2.118  11.139  21.971  0.00  0.00    +0.000 HD
BRANCH  18  23
ATOM     22  N   UNL     1      -4.408  12.741  23.093  0.00  0.00    +0.000 NA
ATOM     23  C   UNL     1      -4.173  12.700  21.807  0.00  0.00    +0.000 C 
BRANCH  23  24
ATOM     24  C   UNL     1      -5.344  12.372  20.973  0.00  0.00    +0.000 A 
ATOM     25  C   UNL     1      -6.644  12.253  21.436  0.00  0.00    +0.000 A 
ATOM     26  S   UNL     1      -7.703  11.841  20.155  0.00  0.00    +0.000 S 
ATOM     27  C   UNL     1      -6.379  11.839  19.068  0.00  0.00    +0.000 A 
ATOM     28  N   UNL     1      -6.534  11.553  17.769  0.00  0.00    +0.000 N 
ATOM     29  N   UNL     1      -5.219  12.129  19.603  0.00  0.00    +0.000 NA
ATOM     30  H   UNL     1      -7.458  11.620  17.359  0.00  0.00    +0.000 HD
ATOM     31  H   UNL     1      -5.784  11.822  17.138  0.00  0.00    +0.000 HD
ENDBRANCH  23  24
BRANCH  22  33
ATOM     32  C   UNL     1      -3.459  14.242  24.551  0.00  0.00    +0.000 C 
ATOM     33  O   UNL     1      -3.265  13.027  23.843  0.00  0.00    +0.000 OA
ENDBRANCH  22  33
ENDBRANCH  18  23
ENDBRANCH   1  20
BRANCH   5  34
ATOM     34  C   UNL     1       1.513   9.361  17.997  0.00  0.00    +0.000 C 
ATOM     35  O   UNL     1       2.494  10.059  17.614  0.00  0.00    +0.000 OA
ATOM     36  OXT UNL     1       0.605   8.792  17.333  0.00  0.00    +0.000 OA
ENDBRANCH   5  34
TORSDOF 6
ENDMDL
MODEL 2
REMARK VINA RESULT:      -7.3      0.384      1.237
REMARK  Name = 
REMARK  9 active torsions:
REMARK  status: ('A' for Active; 'I' for Inactive)
REMARK    1  A    between atoms: C_1  and  O_2
REMARK    2  A    between atoms: O_2  and  N_3
REMARK    3  A    between atoms: C_4  and  C_5
REMARK    4  A    between atoms: C_4  and  C_28
REMARK    5  A    between atoms: N_7  and  CA_8
REMARK    6  A    between atoms: CA_12  and  C_13
REMARK    7  A    between atoms: C_16  and  N_17
REMARK    8  A    between atoms: C_20  and  C_21
REMARK    9  A    between atoms: C_22  and  C_23
REMARK                            x       y       z     vdW  Elec       q    Type
REMARK                         _______ _______ _______ _____ _____    ______ ____
ROOT
ATOM      1  CA  UNL     1      -0.445  12.015  20.852  0.00  0.00    +0.000 C 
ATOM      2  C   UNL     1      -0.159  11.425  19.433  0.00  0.00    +0.000 C 
ATOM      3  O   UNL     1      -0.686  11.531  18.351  0.00  0.00    +0.000 OA
ATOM      4  N   UNL     1       0.739  10.557  19.966  0.00  0.00    +0.000 N 
ATOM      5  CA  UNL     1       1.207   9.336  19.525  0.00  0.00    +0.000 C 
ATOM      6  C   UNL     1       1.392   8.318  20.394  0.00  0.00    +0.000 C 
ATOM      7  C   UNL     1       0.957   8.508  21.858  0.00  0.00    +0.000 C 
ATOM      8  C   UNL     1      -0.038   9.649  22.067  0.00  0.00    +0.000 C 
ATOM      9  C   UNL     1       0.499  10.878  21.364  0.00  0.00    +0.000 C 
ENDROOT
BRANCH   6  10
ATOM     10  N   UNL     1       2.028   7.080  20.069  0.00  0.00    +0.000 N 
ATOM     11  C   UNL     1       3.067   7.074  19.199  0.00  0.00    +0.000 A 
ATOM     12  C   UNL     1       3.589   5.893  18.683  0.00  0.00    +0.000 A 
ATOM     13  C   UNL     1       3.097   4.664  19.107  0.00  0.00    +0.000 A 
ATOM     14  C   UNL     1       3.663   3.401  18.523  0.00  0.00    +0.000 C 
ATOM     15  C   UNL     1       2.086   4.664  20.075  0.00  0.00    +0.000 A 
ATOM     16  C   UNL     1       1.554   3.407  20.712  0.00  0.00    +0.000 C 
ATOM     17  C   UNL     1       1.562   5.889  20.526  0.00  0.00    +0.000 A 
ENDBRANCH   6  10
BRANCH   1  20
ATOM     18  C   UNL     1      -2.774  12.914  21.101  0.00  0.00    +0.000 C 
ATOM     19  O   UNL     1      -2.468  13.929  20.492  0.00  0.00    +0.000 OA
ATOM     20  N   UNL     1      -1.855  11.901  21.290  0.00  0.00    +0.000 N 
ATOM     21  H   UNL     1      -2.148  11.082  21.829  0.00  0.00    +0.000 HD
BRANCH  18  23
ATOM     22  N   UNL     1      -4.395  12.718  23.041  0.00  0.00    +0.000 NA
ATOM     23  C   UNL     1      -4.175  12.687  21.752  0.00  0.00    +0.000 C 
BRANCH  23  24
ATOM     24  C   UNL     1      -5.356  12.376  20.928  0.00  0.00    +0.000 A 
ATOM     25  C   UNL     1      -6.656  12.289  21.399  0.00  0.00    +0.000 A 
ATOM     26  S   UNL     1      -7.731  11.887  20.128  0.00  0.00    +0.000 S 
ATOM     27  C   UNL     1      -6.413  11.844  19.034  0.00  0.00    +0.000 A 
ATOM     28  N   UNL     1      -6.580  11.548  17.739  0.00  0.00    +0.000 N 
ATOM     29  N   UNL     1      -5.243  12.115  19.560  0.00  0.00    +0.000 NA
ATOM     30  H   UNL     1      -7.505  11.630  17.333  0.00  0.00    +0.000 HD
ATOM     31  H   UNL     1      -5.828  11.793  17.101  0.00  0.00    +0.000 HD
ENDBRANCH  23  24
BRANCH  22  33
ATOM     32  C   UNL     1      -3.490  14.079  24.656  0.00  0.00    +0.000 C 
ATOM     33  O   UNL     1      -3.242  12.988  23.781  0.00  0.00    +0.000 OA
ENDBRANCH  22  33
ENDBRANCH  18  23
ENDBRANCH   1  20
BRANCH   5  34
ATOM     34  C   UNL     1       1.489   9.157  18.006  0.00  0.00    +0.000 C 
ATOM     35  O   UNL     1       2.422   9.885  17.566  0.00  0.00    +0.000 OA
ATOM     36  OXT UNL     1       0.610   8.492  17.394  0.00  0.00    +0.000 OA
ENDBRANCH   5  34
TORSDOF 6
ENDMDL
MODEL 3
REMARK VINA RESULT:      -7.2      1.079      1.166
REMARK  Name = 
REMARK  9 active torsions:
REMARK  status: ('A' for Active; 'I' for Inactive)
REMARK    1  A    between atoms: C_1  and  O_2
REMARK    2  A    between atoms: O_2  and  N_3
REMARK    3  A    between atoms: C_4  and  C_5
REMARK    4  A    between atoms: C_4  and  C_28
REMARK    5  A    between atoms: N_7  and  CA_8
REMARK    6  A    between atoms: CA_12  and  C_13
REMARK    7  A    between atoms: C_16  and  N_17
REMARK    8  A    between atoms: C_20  and  C_21
REMARK    9  A    between atoms: C_22  and  C_23
REMARK                            x       y       z     vdW  Elec       q    Type
REMARK                         _______ _______ _______ _____ _____    ______ ____
ROOT
ATOM      1  CA  UNL     1      -0.099  12.436  20.899  0.00  0.00    +0.000 C 
ATOM      2  C   UNL     1       0.061  11.819  19.471  0.00  0.00    +0.000 C 
ATOM      3  O   UNL     1      -0.505  11.973  18.415  0.00  0.00    +0.000 OA
ATOM      4  N   UNL     1       0.896  10.870  19.966  0.00  0.00    +0.000 N 
ATOM      5  CA  UNL     1       1.225   9.609  19.511  0.00  0.00    +0.000 C 
ATOM      6  C   UNL     1       1.353   8.580  20.376  0.00  0.00    +0.000 C 
ATOM      7  C   UNL     1       1.009   8.812  21.858  0.00  0.00    +0.000 C 
ATOM      8  C   UNL     1       0.139  10.044  22.108  0.00  0.00    +0.000 C 
ATOM      9  C   UNL     1       0.756  11.214  21.372  0.00  0.00    +0.000 C 
ENDROOT
BRANCH   6  10
ATOM     10  N   UNL     1       1.851   7.285  20.029  0.00  0.00    +0.000 N 
ATOM     11  C   UNL     1       1.411   6.199  20.709  0.00  0.00    +0.000 A 
ATOM     12  C   UNL     1       2.004   4.950  20.567  0.00  0.00    +0.000 A 
ATOM     13  C   UNL     1       3.038   4.764  19.656  0.00  0.00    +0.000 A 
ATOM     14  C   UNL     1       3.677   3.410  19.530  0.00  0.00    +0.000 C 
ATOM     15  C   UNL     1       3.434   5.862  18.884  0.00  0.00    +0.000 A 
ATOM     16  C   UNL     1       4.449   5.769  17.776  0.00  0.00    +0.000 C 
ATOM     17  C   UNL     1       2.831   7.114  19.105  0.00  0.00    +0.000 A 
ENDBRANCH   6  10
BRANCH   1  20
ATOM     18  C   UNL     1      -2.357  13.500  21.144  0.00  0.00    +0.000 C 
ATOM     19  O   UNL     1      -2.023  14.423  20.415  0.00  0.00    +0.000 OA
ATOM     20  N   UNL     1      -1.490  12.458  21.405  0.00  0.00    +0.000 N 
ATOM     21  H   UNL     1      -1.804  11.721  22.043  0.00  0.00    +0.000 HD
BRANCH  18  23
ATOM     22  N   UNL     1      -3.950  13.898  23.077  0.00  0.00    +0.000 NA
ATOM     23  C   UNL     1      -3.736  13.432  21.873  0.00  0.00    +0.000 C 
BRANCH  23  24
ATOM     24  C   UNL     1      -4.900  12.782  21.243  0.00  0.00    +0.000 A 
ATOM     25  C   UNL     1      -5.140  12.727  19.880  0.00  0.00    +0.000 A 
ATOM     26  S   UNL     1      -6.607  11.904  19.561  0.00  0.00    +0.000 S 
ATOM     27  C   UNL     1      -6.839  11.676  21.243  0.00  0.00    +0.000 A 
ATOM     28  N   UNL     1      -7.916  11.044  21.727  0.00  0.00    +0.000 N 
ATOM     29  N   UNL     1      -5.895  12.167  22.007  0.00  0.00    +0.000 NA
ATOM     30  H   UNL     1      -8.452  10.446  21.109  0.00  0.00    +0.000 HD
ATOM     31  H   UNL     1      -7.871  10.710  22.686  0.00  0.00    +0.000 HD
ENDBRANCH  23  24
BRANCH  22  33
ATOM     32  C   UNL     1      -3.037  14.698  25.027  0.00  0.00    +0.000 C 
ATOM     33  O   UNL     1      -2.813  14.478  23.642  0.00  0.00    +0.000 OA
ENDBRANCH  22  33
ENDBRANCH  18  23
ENDBRANCH   1  20
BRANCH   5  34
ATOM     34  C   UNL     1       1.415   9.402  17.981  0.00  0.00    +0.000 C 
ATOM     35  O   UNL     1       2.447   9.956  17.510  0.00  0.00    +0.000 OA
ATOM     36  OXT UNL     1       0.409   8.914  17.398  0.00  0.00    +0.000 OA
ENDBRANCH   5  34
TORSDOF 6
ENDMDL
MODEL 4
REMARK VINA RESULT:      -7.0      0.899      1.607
REMARK  Name = 
REMARK  9 active torsions:
REMARK  status: ('A' for Active; 'I' for Inactive)
REMARK    1  A    between atoms: C_1  and  O_2
REMARK    2  A    between atoms: O_2  and  N_3
REMARK    3  A    between atoms: C_4  and  C_5
REMARK    4  A    between atoms: C_4  and  C_28
REMARK    5  A    between atoms: N_7  and  CA_8
REMARK    6  A    between atoms: CA_12  and  C_13
REMARK    7  A    between atoms: C_16  and  N_17
REMARK    8  A    between atoms: C_20  and  C_21
REMARK    9  A    between atoms: C_22  and  C_23
REMARK                            x       y       z     vdW  Elec       q    Type
REMARK                         _______ _______ _______ _____ _____    ______ ____
ROOT
ATOM      1  CA  UNL     1      -0.465  12.339  20.826  0.00  0.00    +0.000 C 
ATOM      2  C   UNL     1      -0.260  11.693  19.418  0.00  0.00    +0.000 C 
ATOM      3  O   UNL     1      -0.838  11.770  18.359  0.00  0.00    +0.000 OA
ATOM      4  N   UNL     1       0.648  10.827  19.938  0.00  0.00    +0.000 N 
ATOM      5  CA  UNL     1       1.072   9.582  19.520  0.00  0.00    +0.000 C 
ATOM      6  C   UNL     1       1.282   8.593  20.415  0.00  0.00    +0.000 C 
ATOM      7  C   UNL     1       0.923   8.843  21.891  0.00  0.00    +0.000 C 
ATOM      8  C   UNL     1      -0.041  10.010  22.106  0.00  0.00    +0.000 C 
ATOM      9  C   UNL     1       0.483  11.202  21.333  0.00  0.00    +0.000 C 
ENDROOT
BRANCH   6  10
ATOM     10  N   UNL     1       1.879   7.331  20.106  0.00  0.00    +0.000 N 
ATOM     11  C   UNL     1       2.962   7.290  19.292  0.00  0.00    +0.000 A 
ATOM     12  C   UNL     1       3.459   6.095  18.787  0.00  0.00    +0.000 A 
ATOM     13  C   UNL     1       2.891   4.883  19.164  0.00  0.00    +0.000 A 
ATOM     14  C   UNL     1       3.432   3.603  18.592  0.00  0.00    +0.000 C 
ATOM     15  C   UNL     1       1.830   4.915  20.077  0.00  0.00    +0.000 A 
ATOM     16  C   UNL     1       1.210   3.676  20.664  0.00  0.00    +0.000 C 
ATOM     17  C   UNL     1       1.337   6.156  20.518  0.00  0.00    +0.000 A 
ENDBRANCH   6  10
BRANCH   1  20
ATOM     18  C   UNL     1      -2.771  13.279  21.132  0.00  0.00    +0.000 C 
ATOM     19  O   UNL     1      -2.485  14.253  20.451  0.00  0.00    +0.000 OA
ATOM     20  N   UNL     1      -1.854  12.268  21.336  0.00  0.00    +0.000 N 
ATOM     21  H   UNL     1      -2.128  11.485  21.936  0.00  0.00    +0.000 HD
BRANCH  18  23
ATOM     22  N   UNL     1      -4.287  13.139  23.160  0.00  0.00    +0.000 NA
ATOM     23  C   UNL     1      -4.141  13.107  21.861  0.00  0.00    +0.000 C 
BRANCH  23  24
ATOM     24  C   UNL     1      -5.380  12.852  21.103  0.00  0.00    +0.000 A 
ATOM     25  C   UNL     1      -6.032  13.780  20.307  0.00  0.00    +0.000 A 
ATOM     26  S   UNL     1      -7.442  13.095  19.619  0.00  0.00    +0.000 S 
ATOM     27  C   UNL     1      -7.110  11.618  20.420  0.00  0.00    +0.000 A 
ATOM     28  N   UNL     1      -7.916  10.556  20.304  0.00  0.00    +0.000 N 
ATOM     29  N   UNL     1      -6.022  11.613  21.151  0.00  0.00    +0.000 NA
ATOM     30  H   UNL     1      -8.563  10.514  19.525  0.00  0.00    +0.000 HD
ATOM     31  H   UNL     1      -7.542   9.651  20.575  0.00  0.00    +0.000 HD
ENDBRANCH  23  24
BRANCH  22  33
ATOM     32  C   UNL     1      -3.121  14.625  24.469  0.00  0.00    +0.000 C 
ATOM     33  O   UNL     1      -3.083  13.354  23.834  0.00  0.00    +0.000 OA
ENDBRANCH  22  33
ENDBRANCH  18  23
ENDBRANCH   1  20
BRANCH   5  34
ATOM     34  C   UNL     1       1.276   9.343  17.997  0.00  0.00    +0.000 C 
ATOM     35  O   UNL     1       0.476   8.504  17.495  0.00  0.00    +0.000 OA
ATOM     36  OXT UNL     1       2.339   9.838  17.535  0.00  0.00    +0.000 OA
ENDBRANCH   5  34
TORSDOF 6
ENDMDL
MODEL 5
REMARK VINA RESULT:      -6.9      1.123      1.666
REMARK  Name = 
REMARK  9 active torsions:
REMARK  status: ('A' for Active; 'I' for Inactive)
REMARK    1  A    between atoms: C_1  and  O_2
REMARK    2  A    between atoms: O_2  and  N_3
REMARK    3  A    between atoms: C_4  and  C_5
REMARK    4  A    between atoms: C_4  and  C_28
REMARK    5  A    between atoms: N_7  and  CA_8
REMARK    6  A    between atoms: CA_12  and  C_13
REMARK    7  A    between atoms: C_16  and  N_17
REMARK    8  A    between atoms: C_20  and  C_21
REMARK    9  A    between atoms: C_22  and  C_23
REMARK                            x       y       z     vdW  Elec       q    Type
REMARK                         _______ _______ _______ _____ _____    ______ ____
ROOT
ATOM      1  CA  UNL     1      -0.648  12.129  20.725  0.00  0.00    +0.000 C 
ATOM      2  C   UNL     1      -0.198  11.556  19.342  0.00  0.00    +0.000 C 
ATOM      3  O   UNL     1      -0.595  11.675  18.207  0.00  0.00    +0.000 OA
ATOM      4  N   UNL     1       0.632  10.681  19.965  0.00  0.00    +0.000 N 
ATOM      5  CA  UNL     1       1.150   9.465  19.567  0.00  0.00    +0.000 C 
ATOM      6  C   UNL     1       1.233   8.437  20.439  0.00  0.00    +0.000 C 
ATOM      7  C   UNL     1       0.630   8.608  21.844  0.00  0.00    +0.000 C 
ATOM      8  C   UNL     1      -0.384   9.748  21.950  0.00  0.00    +0.000 C 
ATOM      9  C   UNL     1       0.231  10.984  21.329  0.00  0.00    +0.000 C 
ENDROOT
BRANCH   6  10
ATOM     10  N   UNL     1       1.904   7.202  20.175  0.00  0.00    +0.000 N 
ATOM     11  C   UNL     1       2.968   7.189  19.336  0.00  0.00    +0.000 A 
ATOM     12  C   UNL     1       3.530   6.004  18.876  0.00  0.00    +0.000 A 
ATOM     13  C   UNL     1       3.051   4.779  19.327  0.00  0.00    +0.000 A 
ATOM     14  C   UNL     1       3.660   3.509  18.803  0.00  0.00    +0.000 C 
ATOM     15  C   UNL     1       2.012   4.789  20.264  0.00  0.00    +0.000 A 
ATOM     16  C   UNL     1       1.486   3.544  20.928  0.00  0.00    +0.000 C 
ATOM     17  C   UNL     1       1.449   6.017  20.658  0.00  0.00    +0.000 A 
ENDBRANCH   6  10
BRANCH   1  20
ATOM     18  C   UNL     1      -2.970  13.071  20.845  0.00  0.00    +0.000 C 
ATOM     19  O   UNL     1      -2.577  14.145  20.411  0.00  0.00    +0.000 OA
ATOM     20  N   UNL     1      -2.099  12.010  20.994  0.00  0.00    +0.000 N 
ATOM     21  H   UNL     1      -2.467  11.139  21.387  0.00  0.00    +0.000 HD
BRANCH  18  23
ATOM     22  N   UNL     1      -4.765  12.426  22.516  0.00  0.00    +0.000 NA
ATOM     23  C   UNL     1      -4.438  12.812  21.310  0.00  0.00    +0.000 C 
BRANCH  23  24
ATOM     24  C   UNL     1      -5.569  12.954  20.375  0.00  0.00    +0.000 A 
ATOM     25  C   UNL     1      -6.130  11.922  19.642  0.00  0.00    +0.000 A 
ATOM     26  S   UNL     1      -7.406  12.506  18.661  0.00  0.00    +0.000 S 
ATOM     27  C   UNL     1      -7.135  14.088  19.260  0.00  0.00    +0.000 A 
ATOM     28  N   UNL     1      -7.864  15.133  18.847  0.00  0.00    +0.000 N 
ATOM     29  N   UNL     1      -6.168  14.193  20.137  0.00  0.00    +0.000 NA
ATOM     30  H   UNL     1      -8.759  14.961  18.405  0.00  0.00    +0.000 HD
ATOM     31  H   UNL     1      -7.841  15.974  19.416  0.00  0.00    +0.000 HD
ENDBRANCH  23  24
BRANCH  22  33
ATOM     32  C   UNL     1      -4.072  12.425  24.707  0.00  0.00    +0.000 C 
ATOM     33  O   UNL     1      -3.659  12.279  23.356  0.00  0.00    +0.000 OA
ENDBRANCH  22  33
ENDBRANCH  18  23
ENDBRANCH   1  20
BRANCH   5  34
ATOM     34  C   UNL     1       1.608   9.305  18.089  0.00  0.00    +0.000 C 
ATOM     35  O   UNL     1       2.515  10.112  17.740  0.00  0.00    +0.000 OA
ATOM     36  OXT UNL     1       0.862   8.561  17.396  0.00  0.00    +0.000 OA
ENDBRANCH   5  34
TORSDOF 6
ENDMDL
MODEL 6
REMARK VINA RESULT:      -6.7      1.801      3.202
REMARK  Name = 
REMARK  9 active torsions:
REMARK  status: ('A' for Active; 'I' for Inactive)
REMARK    1  A    between atoms: C_1  and  O_2
REMARK    2  A    between atoms: O_2  and  N_3
REMARK    3  A    between atoms: C_4  and  C_5
REMARK    4  A    between atoms: C_4  and  C_28
REMARK    5  A    between atoms: N_7  and  CA_8
REMARK    6  A    between atoms: CA_12  and  C_13
REMARK    7  A    between atoms: C_16  and  N_17
REMARK    8  A    between atoms: C_20  and  C_21
REMARK    9  A    between atoms: C_22  and  C_23
REMARK                            x       y       z     vdW  Elec       q    Type
REMARK                         _______ _______ _______ _____ _____    ______ ____
ROOT
ATOM      1  CA  UNL     1       0.082  11.539  20.052  0.00  0.00    +0.000 C 
ATOM      2  C   UNL     1       0.523  10.733  18.787  0.00  0.00    +0.000 C 
ATOM      3  O   UNL     1       0.179  10.723  17.628  0.00  0.00    +0.000 OA
ATOM      4  N   UNL     1       1.241   9.885  19.567  0.00  0.00    +0.000 N 
ATOM      5  CA  UNL     1       1.651   8.582  19.370  0.00  0.00    +0.000 C 
ATOM      6  C   UNL     1       1.603   7.688  20.380  0.00  0.00    +0.000 C 
ATOM      7  C   UNL     1       0.970   8.115  21.716  0.00  0.00    +0.000 C 
ATOM      8  C   UNL     1       0.069   9.346  21.611  0.00  0.00    +0.000 C 
ATOM      9  C   UNL     1       0.823  10.419  20.853  0.00  0.00    +0.000 C 
ENDROOT
BRANCH   6  10
ATOM     10  N   UNL     1       2.158   6.371  20.326  0.00  0.00    +0.000 N 
ATOM     11  C   UNL     1       3.393   6.192  19.798  0.00  0.00    +0.000 A 
ATOM     12  C   UNL     1       3.902   4.927  19.525  0.00  0.00    +0.000 A 
ATOM     13  C   UNL     1       3.172   3.791  19.856  0.00  0.00    +0.000 A 
ATOM     14  C   UNL     1       3.732   2.434  19.536  0.00  0.00    +0.000 C 
ATOM     15  C   UNL     1       1.936   3.970  20.487  0.00  0.00    +0.000 A 
ATOM     16  C   UNL     1       1.104   2.830  21.012  0.00  0.00    +0.000 C 
ATOM     17  C   UNL     1       1.449   5.274  20.695  0.00  0.00    +0.000 A 
ENDBRANCH   6  10
BRANCH   1  20
ATOM     18  C   UNL     1      -2.099  12.770  20.179  0.00  0.00    +0.000 C 
ATOM     19  O   UNL     1      -1.552  13.813  19.851  0.00  0.00    +0.000 OA
ATOM     20  N   UNL     1      -1.382  11.594  20.264  0.00  0.00    +0.000 N 
ATOM     21  H   UNL     1      -1.877  10.751  20.569  0.00  0.00    +0.000 HD
BRANCH  18  23
ATOM     22  N   UNL     1      -4.542  12.215  19.782  0.00  0.00    +0.000 NA
ATOM     23  C   UNL     1      -3.607  12.674  20.573  0.00  0.00    +0.000 C 
BRANCH  23  24
ATOM     24  C   UNL     1      -4.083  13.147  21.886  0.00  0.00    +0.000 A 
ATOM     25  C   UNL     1      -4.433  14.454  22.182  0.00  0.00    +0.000 A 
ATOM     26  S   UNL     1      -4.912  14.592  23.821  0.00  0.00    +0.000 S 
ATOM     27  C   UNL     1      -4.619  12.918  24.041  0.00  0.00    +0.000 A 
ATOM     28  N   UNL     1      -4.806  12.320  25.224  0.00  0.00    +0.000 N 
ATOM     29  N   UNL     1      -4.200  12.281  22.976  0.00  0.00    +0.000 NA
ATOM     30  H   UNL     1      -5.389  12.774  25.917  0.00  0.00    +0.000 HD
ATOM     31  H   UNL     1      -4.874  11.306  25.231  0.00  0.00    +0.000 HD
ENDBRANCH  23  24
BRANCH  22  33
ATOM     32  C   UNL     1      -5.108  11.782  17.597  0.00  0.00    +0.000 C 
ATOM     33  O   UNL     1      -4.047  11.805  18.542  0.00  0.00    +0.000 OA
ENDBRANCH  22  33
ENDBRANCH  18  23
ENDBRANCH   1  20
BRANCH   5  34
ATOM     34  C   UNL     1       2.143   8.168  17.953  0.00  0.00    +0.000 C 
ATOM     35  O   UNL     1       1.444   7.268  17.408  0.00  0.00    +0.000 OA
ATOM     36  OXT UNL     1       3.282   8.616  17.651  0.00  0.00    +0.000 OA
ENDBRANCH   5  34
TORSDOF 6
ENDMDL
MODEL 7
REMARK VINA RESULT:      -6.7      1.805      2.904
REMARK  Name = 
REMARK  9 active torsions:
REMARK  status: ('A' for Active; 'I' for Inactive)
REMARK    1  A    between atoms: C_1  and  O_2
REMARK    2  A    between atoms: O_2  and  N_3
REMARK    3  A    between atoms: C_4  and  C_5
REMARK    4  A    between atoms: C_4  and  C_28
REMARK    5  A    between atoms: N_7  and  CA_8
REMARK    6  A    between atoms: CA_12  and  C_13
REMARK    7  A    between atoms: C_16  and  N_17
REMARK    8  A    between atoms: C_20  and  C_21
REMARK    9  A    between atoms: C_22  and  C_23
REMARK                            x       y       z     vdW  Elec       q    Type
REMARK                         _______ _______ _______ _____ _____    ______ ____
ROOT
ATOM      1  CA  UNL     1       0.183  11.521  20.500  0.00  0.00    +0.000 C 
ATOM      2  C   UNL     1       0.649  10.862  19.161  0.00  0.00    +0.000 C 
ATOM      3  O   UNL     1       0.357  11.012  17.998  0.00  0.00    +0.000 OA
ATOM      4  N   UNL     1       1.300   9.893  19.854  0.00  0.00    +0.000 N 
ATOM      5  CA  UNL     1       1.669   8.609  19.509  0.00  0.00    +0.000 C 
ATOM      6  C   UNL     1       1.542   7.597  20.395  0.00  0.00    +0.000 C 
ATOM      7  C   UNL     1       0.868   7.881  21.749  0.00  0.00    +0.000 C 
ATOM      8  C   UNL     1       0.019   9.152  21.766  0.00  0.00    +0.000 C 
ATOM      9  C   UNL     1       0.846  10.278  21.181  0.00  0.00    +0.000 C 
ENDROOT
BRANCH   6  10
ATOM     10  N   UNL     1       2.049   6.275  20.196  0.00  0.00    +0.000 N 
ATOM     11  C   UNL     1       1.313   5.212  20.602  0.00  0.00    +0.000 A 
ATOM     12  C   UNL     1       1.832   3.923  20.630  0.00  0.00    +0.000 A 
ATOM     13  C   UNL     1       3.121   3.676  20.169  0.00  0.00    +0.000 A 
ATOM     14  C   UNL     1       3.670   2.278  20.225  0.00  0.00    +0.000 C 
ATOM     15  C   UNL     1       3.852   4.756  19.663  0.00  0.00    +0.000 A 
ATOM     16  C   UNL     1       5.205   4.608  19.018  0.00  0.00    +0.000 C 
ATOM     17  C   UNL     1       3.294   6.047  19.704  0.00  0.00    +0.000 A 
ENDBRANCH   6  10
BRANCH   1  20
ATOM     18  C   UNL     1      -2.003  12.734  20.298  0.00  0.00    +0.000 C 
ATOM     19  O   UNL     1      -1.449  13.682  19.758  0.00  0.00    +0.000 OA
ATOM     20  N   UNL     1      -1.286  11.611  20.660  0.00  0.00    +0.000 N 
ATOM     21  H   UNL     1      -1.787  10.854  21.134  0.00  0.00    +0.000 HD
BRANCH  18  23
ATOM     22  N   UNL     1      -4.466  12.322  19.857  0.00  0.00    +0.000 NA
ATOM     23  C   UNL     1      -3.519  12.717  20.668  0.00  0.00    +0.000 C 
BRANCH  23  24
ATOM     24  C   UNL     1      -3.988  13.200  21.980  0.00  0.00    +0.000 A 
ATOM     25  C   UNL     1      -4.278  14.520  22.286  0.00  0.00    +0.000 A 
ATOM     26  S   UNL     1      -4.771  14.665  23.919  0.00  0.00    +0.000 S 
ATOM     27  C   UNL     1      -4.564  12.976  24.125  0.00  0.00    +0.000 A 
ATOM     28  N   UNL     1      -4.795  12.376  25.299  0.00  0.00    +0.000 N 
ATOM     29  N   UNL     1      -4.162  12.330  23.058  0.00  0.00    +0.000 NA
ATOM     30  H   UNL     1      -5.364  12.851  25.990  0.00  0.00    +0.000 HD
ATOM     31  H   UNL     1      -4.913  11.366  25.294  0.00  0.00    +0.000 HD
ENDBRANCH  23  24
BRANCH  22  33
ATOM     32  C   UNL     1      -5.000  11.209  17.918  0.00  0.00    +0.000 C 
ATOM     33  O   UNL     1      -3.975  11.901  18.619  0.00  0.00    +0.000 OA
ENDBRANCH  22  33
ENDBRANCH  18  23
ENDBRANCH   1  20
BRANCH   5  34
ATOM     34  C   UNL     1       2.207   8.355  18.072  0.00  0.00    +0.000 C 
ATOM     35  O   UNL     1       3.302   8.932  17.822  0.00  0.00    +0.000 OA
ATOM     36  OXT UNL     1       1.374   7.809  17.299  0.00  0.00    +0.000 OA
ENDBRANCH   5  34
TORSDOF 6
ENDMDL
MODEL 8
REMARK VINA RESULT:      -6.7      4.382      9.574
REMARK  Name = 
REMARK  9 active torsions:
REMARK  status: ('A' for Active; 'I' for Inactive)
REMARK    1  A    between atoms: C_1  and  O_2
REMARK    2  A    between atoms: O_2  and  N_3
REMARK    3  A    between atoms: C_4  and  C_5
REMARK    4  A    between atoms: C_4  and  C_28
REMARK    5  A    between atoms: N_7  and  CA_8
REMARK    6  A    between atoms: CA_12  and  C_13
REMARK    7  A    between atoms: C_16  and  N_17
REMARK    8  A    between atoms: C_20  and  C_21
REMARK    9  A    between atoms: C_22  and  C_23
REMARK                            x       y       z     vdW  Elec       q    Type
REMARK                         _______ _______ _______ _____ _____    ______ ____
ROOT
ATOM      1  CA  UNL     1       1.129   8.319  18.806  0.00  0.00    +0.000 C 
ATOM      2  C   UNL     1       1.533   9.675  18.142  0.00  0.00    +0.000 C 
ATOM      3  O   UNL     1       2.337   9.998  17.299  0.00  0.00    +0.000 OA
ATOM      4  N   UNL     1       0.817  10.354  19.074  0.00  0.00    +0.000 N 
ATOM      5  CA  UNL     1       0.920  11.647  19.547  0.00  0.00    +0.000 C 
ATOM      6  C   UNL     1       0.770  11.909  20.864  0.00  0.00    +0.000 C 
ATOM      7  C   UNL     1       0.604  10.729  21.838  0.00  0.00    +0.000 C 
ATOM      8  C   UNL     1       1.074   9.388  21.275  0.00  0.00    +0.000 C 
ATOM      9  C   UNL     1       0.460   9.213  19.901  0.00  0.00    +0.000 C 
ENDROOT
BRANCH   6  10
ATOM     10  N   UNL     1       0.690  13.221  21.426  0.00  0.00    +0.000 N 
ATOM     11  C   UNL     1      -0.523  13.729  21.757  0.00  0.00    +0.000 A 
ATOM     12  C   UNL     1      -0.691  15.064  22.108  0.00  0.00    +0.000 A 
ATOM     13  C   UNL     1       0.409  15.910  22.198  0.00  0.00    +0.000 A 
ATOM     14  C   UNL     1       0.202  17.353  22.561  0.00  0.00    +0.000 C 
ATOM     15  C   UNL     1       1.673  15.366  21.947  0.00  0.00    +0.000 A 
ATOM     16  C   UNL     1       2.954  16.135  22.133  0.00  0.00    +0.000 C 
ATOM     17  C   UNL     1       1.779  14.021  21.549  0.00  0.00    +0.000 A 
ENDBRANCH   6  10
BRANCH   1  20
ATOM     18  C   UNL     1       2.616   6.302  18.691  0.00  0.00    +0.000 C 
ATOM     19  O   UNL     1       2.025   5.899  17.699  0.00  0.00    +0.000 OA
ATOM     20  N   UNL     1       2.271   7.503  19.278  0.00  0.00    +0.000 N 
ATOM     21  H   UNL     1       2.776   7.787  20.122  0.00  0.00    +0.000 HD
BRANCH  18  23
ATOM     22  N   UNL     1       3.555   4.692  20.410  0.00  0.00    +0.000 NA
ATOM     23  C   UNL     1       3.752   5.502  19.403  0.00  0.00    +0.000 C 
BRANCH  23  24
ATOM     24  C   UNL     1       5.161   5.651  18.993  0.00  0.00    +0.000 A 
ATOM     25  C   UNL     1       5.586   6.109  17.756  0.00  0.00    +0.000 A 
ATOM     26  S   UNL     1       7.297   6.112  17.673  0.00  0.00    +0.000 S 
ATOM     27  C   UNL     1       7.371   5.502  19.272  0.00  0.00    +0.000 A 
ATOM     28  N   UNL     1       8.538   5.242  19.874  0.00  0.00    +0.000 N 
ATOM     29  N   UNL     1       6.210   5.309  19.849  0.00  0.00    +0.000 NA
ATOM     30  H   UNL     1       9.382   5.667  19.510  0.00  0.00    +0.000 HD
ATOM     31  H   UNL     1       8.531   5.140  20.885  0.00  0.00    +0.000 HD
ENDBRANCH  23  24
BRANCH  22  33
ATOM     32  C   UNL     1       1.930   3.288  21.228  0.00  0.00    +0.000 C 
ATOM     33  O   UNL     1       2.211   4.606  20.780  0.00  0.00    +0.000 OA
ENDBRANCH  22  33
ENDBRANCH  18  23
ENDBRANCH   1  20
BRANCH   5  34
ATOM     34  C   UNL     1       1.237  12.782  18.533  0.00  0.00    +0.000 C 
ATOM     35  O   UNL     1       2.467  13.047  18.424  0.00  0.00    +0.000 OA
ATOM     36  OXT UNL     1       0.224  13.423  18.143  0.00  0.00    +0.000 OA
ENDBRANCH   5  34
TORSDOF 6
ENDMDL
MODEL 9
REMARK VINA RESULT:      -6.7      4.315      9.456
REMARK  Name = 
REMARK  9 active torsions:
REMARK  status: ('A' for Active; 'I' for Inactive)
REMARK    1  A    between atoms: C_1  and  O_2
REMARK    2  A    between atoms: O_2  and  N_3
REMARK    3  A    between atoms: C_4  and  C_5
REMARK    4  A    between atoms: C_4  and  C_28
REMARK    5  A    between atoms: N_7  and  CA_8
REMARK    6  A    between atoms: CA_12  and  C_13
REMARK    7  A    between atoms: C_16  and  N_17
REMARK    8  A    between atoms: C_20  and  C_21
REMARK    9  A    between atoms: C_22  and  C_23
REMARK                            x       y       z     vdW  Elec       q    Type
REMARK                         _______ _______ _______ _____ _____    ______ ____
ROOT
ATOM      1  CA  UNL     1       1.444   8.553  18.184  0.00  0.00    +0.000 C 
ATOM      2  C   UNL     1       1.834  10.052  17.974  0.00  0.00    +0.000 C 
ATOM      3  O   UNL     1       2.747  10.620  17.422  0.00  0.00    +0.000 OA
ATOM      4  N   UNL     1       0.893  10.431  18.877  0.00  0.00    +0.000 N 
ATOM      5  CA  UNL     1       0.781  11.558  19.666  0.00  0.00    +0.000 C 
ATOM      6  C   UNL     1       0.362  11.460  20.946  0.00  0.00    +0.000 C 
ATOM      7  C   UNL     1       0.130  10.061  21.543  0.00  0.00    +0.000 C 
ATOM      8  C   UNL     1       0.824   8.936  20.774  0.00  0.00    +0.000 C 
ATOM      9  C   UNL     1       0.499   9.099  19.304  0.00  0.00    +0.000 C 
ENDROOT
BRANCH   6  10
ATOM     10  N   UNL     1       0.052  12.575  21.786  0.00  0.00    +0.000 N 
ATOM     11  C   UNL     1      -0.972  12.477  22.669  0.00  0.00    +0.000 A 
ATOM     12  C   UNL     1      -1.458  13.581  23.360  0.00  0.00    +0.000 A 
ATOM     13  C   UNL     1      -0.850  14.823  23.214  0.00  0.00    +0.000 A 
ATOM     14  C   UNL     1      -1.401  16.007  23.956  0.00  0.00    +0.000 C 
ATOM     15  C   UNL     1       0.266  14.909  22.374  0.00  0.00    +0.000 A 
ATOM     16  C   UNL     1       1.093  16.159  22.225  0.00  0.00    +0.000 C 
ATOM     17  C   UNL     1       0.684  13.770  21.662  0.00  0.00    +0.000 A 
ENDBRANCH   6  10
BRANCH   1  20
ATOM     18  C   UNL     1       2.613   6.343  18.388  0.00  0.00    +0.000 C 
ATOM     19  O   UNL     1       1.781   5.814  17.665  0.00  0.00    +0.000 OA
ATOM     20  N   UNL     1       2.550   7.694  18.665  0.00  0.00    +0.000 N 
ATOM     21  H   UNL     1       3.253   8.087  19.297  0.00  0.00    +0.000 HD
BRANCH  18  23
ATOM     22  N   UNL     1       3.639   4.948  20.241  0.00  0.00    +0.000 NA
ATOM     23  C   UNL     1       3.766   5.561  19.092  0.00  0.00    +0.000 C 
BRANCH  23  24
ATOM     24  C   UNL     1       5.116   5.500  18.503  0.00  0.00    +0.000 A 
ATOM     25  C   UNL     1       5.971   4.413  18.579  0.00  0.00    +0.000 A 
ATOM     26  S   UNL     1       7.450   4.754  17.785  0.00  0.00    +0.000 S 
ATOM     27  C   UNL     1       6.874   6.320  17.396  0.00  0.00    +0.000 A 
ATOM     28  N   UNL     1       7.623   7.198  16.718  0.00  0.00    +0.000 N 
ATOM     29  N   UNL     1       5.661   6.587  17.815  0.00  0.00    +0.000 NA
ATOM     30  H   UNL     1       8.412   6.858  16.181  0.00  0.00    +0.000 HD
ATOM     31  H   UNL     1       7.148   7.990  16.293  0.00  0.00    +0.000 HD
ENDBRANCH  23  24
BRANCH  22  33
ATOM     32  C   UNL     1       1.884   3.766  21.137  0.00  0.00    +0.000 C 
ATOM     33  O   UNL     1       2.352   5.057  20.772  0.00  0.00    +0.000 OA
ENDBRANCH  22  33
ENDBRANCH  18  23
ENDBRANCH   1  20
BRANCH   5  34
ATOM     34  C   UNL     1       1.172  12.933  19.052  0.00  0.00    +0.000 C 
ATOM     35  O   UNL     1       0.293  13.426  18.290  0.00  0.00    +0.000 OA
ATOM     36  OXT UNL     1       2.383  13.244  19.214  0.00  0.00    +0.000 OA
ENDBRANCH   5  34
TORSDOF 6
ENDMDL
