MODEL 1
REMARK VINA RESULT:      -8.4      0.000      0.000
REMARK  Name = 
REMARK  7 active torsions:
REMARK  status: ('A' for Active; 'I' for Inactive)
REMARK    1  A    between atoms: C_1  and  C_2
REMARK    2  A    between atoms: C_3  and  C_4
REMARK    3  A    between atoms: C_9  and  C_10
REMARK    4  A    between atoms: N_12  and  C_13
REMARK    5  A    between atoms: C_13  and  C_14
REMARK    6  A    between atoms: N_22  and  C_23
REMARK    7  A    between atoms: C_23  and  C_24
REMARK                            x       y       z     vdW  Elec       q    Type
REMARK                         _______ _______ _______ _____ _____    ______ ____
ROOT
ATOM      1  C   UNL     1       0.998  12.530  20.460  0.00  0.00    +0.000 C 
ATOM      2  O   UNL     1       1.463  11.960  21.454  0.00  0.00    +0.000 OA
ATOM      3  N   UNL     1       1.645  13.727  20.050  0.00  0.00    +0.000 N 
ATOM      4  C   UNL     1       3.011  13.941  20.545  0.00  0.00    +0.000 C 
ATOM      5  C   UNL     1       3.395  15.420  20.583  0.00  0.00    +0.000 C 
ATOM      6  C   UNL     1       3.212  16.100  19.224  0.00  0.00    +0.000 C 
ATOM      7  C   UNL     1       1.765  15.915  18.782  0.00  0.00    +0.000 C 
ATOM      8  C   UNL     1       1.315  14.464  18.853  0.00  0.00    +0.000 C 
ENDROOT
BRANCH   1  11
ATOM      9  C   UNL     1      -2.408  13.181  20.578  0.00  0.00    +0.000 C 
ATOM     10  C   UNL     1      -1.579  12.195  19.823  0.00  0.00    +0.000 A 
ATOM     11  C   UNL     1      -0.190  11.939  19.780  0.00  0.00    +0.000 A 
ATOM     12  N   UNL     1      -0.038  11.001  18.729  0.00  0.00    +0.000 N 
ATOM     13  C   UNL     1      -1.258  10.741  18.104  0.00  0.00    +0.000 A 
ATOM     14  C   UNL     1      -1.592  10.023  16.935  0.00  0.00    +0.000 A 
ATOM     15  C   UNL     1      -2.928  10.010  16.519  0.00  0.00    +0.000 A 
ATOM     16  C   UNL     1      -3.920  10.620  17.272  0.00  0.00    +0.000 A 
ATOM     17  C   UNL     1      -3.584  11.300  18.438  0.00  0.00    +0.000 A 
ATOM     18  C   UNL     1      -2.231  11.400  18.831  0.00  0.00    +0.000 A 
BRANCH  12  19
ATOM     19  C   UNL     1       1.216  10.402  18.237  0.00  0.00    +0.000 C 
BRANCH  19  20
ATOM     20  C   UNL     1       1.512   9.017  18.792  0.00  0.00    +0.000 A 
ATOM     21  C   UNL     1       1.235   8.659  20.122  0.00  0.00    +0.000 A 
ATOM     22  C   UNL     1       1.626   7.421  20.635  0.00  0.00    +0.000 A 
ATOM     23  C   UNL     1       2.272   6.506  19.812  0.00  0.00    +0.000 A 
ATOM     24 CL   UNL     1       2.813   5.008  20.465  0.00  0.00    +0.000 Cl
ATOM     25  C   UNL     1       2.497   6.806  18.471  0.00  0.00    +0.000 A 
ATOM     26  C   UNL     1       2.115   8.053  17.962  0.00  0.00    +0.000 A 
ENDBRANCH  19  20
ENDBRANCH  12  19
ENDBRANCH   1  11
BRANCH   6  27
ATOM     27  C   UNL     1       4.211  15.616  18.166  0.00  0.00    +0.000 C 
ATOM     28  O   UNL     1       3.912  15.452  16.989  0.00  0.00    +0.000 OA
ATOM     29  N   UNL     1       5.486  15.435  18.647  0.00  0.00    +0.000 N 
ATOM     30  H   UNL     1       5.702  15.681  19.603  0.00  0.00    +0.000 HD
BRANCH  29  31
ATOM     31  C   UNL     1       6.605  15.084  17.793  0.00  0.00    +0.000 C 
BRANCH  31  32
ATOM     32  C   UNL     1       7.638  14.292  18.558  0.00  0.00    +0.000 A 
ATOM     33  C   UNL     1       8.452  13.354  17.908  0.00  0.00    +0.000 A 
ATOM     34  C   UNL     1       9.396  12.618  18.624  0.00  0.00    +0.000 A 
ATOM     35  C   UNL     1       9.547  12.817  19.993  0.00  0.00    +0.000 A 
ATOM     36  C   UNL     1       8.754  13.756  20.657  0.00  0.00    +0.000 A 
ATOM     37  C   UNL     1       7.805  14.490  19.937  0.00  0.00    +0.000 A 
ENDBRANCH  31  32
ENDBRANCH  29  31
ENDBRANCH   6  27
TORSDOF 6
ENDMDL
MODEL 2
REMARK VINA RESULT:      -8.3      0.207      1.153
REMARK  Name = 
REMARK  7 active torsions:
REMARK  status: ('A' for Active; 'I' for Inactive)
REMARK    1  A    between atoms: C_1  and  C_2
REMARK    2  A    between atoms: C_3  and  C_4
REMARK    3  A    between atoms: C_9  and  C_10
REMARK    4  A    between atoms: N_12  and  C_13
REMARK    5  A    between atoms: C_13  and  C_14
REMARK    6  A    between atoms: N_22  and  C_23
REMARK    7  A    between atoms: C_23  and  C_24
REMARK                            x       y       z     vdW  Elec       q    Type
REMARK                         _______ _______ _______ _____ _____    ______ ____
ROOT
ATOM      1  C   UNL     1       0.984  12.502  20.466  0.00  0.00    +0.000 C 
ATOM      2  O   UNL     1       1.445  11.938  21.465  0.00  0.00    +0.000 OA
ATOM      3  N   UNL     1       1.625  13.702  20.057  0.00  0.00    +0.000 N 
ATOM      4  C   UNL     1       2.986  13.927  20.562  0.00  0.00    +0.000 C 
ATOM      5  C   UNL     1       3.359  15.409  20.598  0.00  0.00    +0.000 C 
ATOM      6  C   UNL     1       3.183  16.084  19.235  0.00  0.00    +0.000 C 
ATOM      7  C   UNL     1       1.740  15.887  18.783  0.00  0.00    +0.000 C 
ATOM      8  C   UNL     1       1.300  14.433  18.855  0.00  0.00    +0.000 C 
ENDROOT
BRANCH   1  11
ATOM      9  C   UNL     1      -2.422  13.165  20.514  0.00  0.00    +0.000 C 
ATOM     10  C   UNL     1      -1.583  12.161  19.793  0.00  0.00    +0.000 A 
ATOM     11  C   UNL     1      -0.194  11.901  19.778  0.00  0.00    +0.000 A 
ATOM     12  N   UNL     1      -0.029  10.940  18.750  0.00  0.00    +0.000 N 
ATOM     13  C   UNL     1      -1.239  10.671  18.110  0.00  0.00    +0.000 A 
ATOM     14  C   UNL     1      -1.556   9.930  16.951  0.00  0.00    +0.000 A 
ATOM     15  C   UNL     1      -2.885   9.912  16.513  0.00  0.00    +0.000 A 
ATOM     16  C   UNL     1      -3.887  10.541  17.236  0.00  0.00    +0.000 A 
ATOM     17  C   UNL     1      -3.568  11.244  18.394  0.00  0.00    +0.000 A 
ATOM     18  C   UNL     1      -2.222  11.348  18.807  0.00  0.00    +0.000 A 
BRANCH  12  19
ATOM     19  C   UNL     1       1.231  10.327  18.292  0.00  0.00    +0.000 C 
BRANCH  19  20
ATOM     20  C   UNL     1       1.568   9.004  18.962  0.00  0.00    +0.000 A 
ATOM     21  C   UNL     1       2.277   7.983  18.307  0.00  0.00    +0.000 A 
ATOM     22  C   UNL     1       2.468   6.736  18.906  0.00  0.00    +0.000 A 
ATOM     23  C   UNL     1       1.980   6.503  20.187  0.00  0.00    +0.000 A 
ATOM     24 CL   UNL     1       2.158   4.944  20.894  0.00  0.00    +0.000 Cl
ATOM     25  C   UNL     1       1.336   7.520  20.887  0.00  0.00    +0.000 A 
ATOM     26  C   UNL     1       1.134   8.765  20.279  0.00  0.00    +0.000 A 
ENDBRANCH  19  20
ENDBRANCH  12  19
ENDBRANCH   1  11
BRANCH   6  27
ATOM     27  C   UNL     1       4.193  15.604  18.186  0.00  0.00    +0.000 C 
ATOM     28  O   UNL     1       3.896  15.402  17.015  0.00  0.00    +0.000 OA
ATOM     29  N   UNL     1       5.474  15.470  18.668  0.00  0.00    +0.000 N 
ATOM     30  H   UNL     1       5.684  15.744  19.618  0.00  0.00    +0.000 HD
BRANCH  29  31
ATOM     31  C   UNL     1       6.600  15.131  17.821  0.00  0.00    +0.000 C 
BRANCH  31  32
ATOM     32  C   UNL     1       7.613  14.306  18.577  0.00  0.00    +0.000 A 
ATOM     33  C   UNL     1       7.743  14.423  19.968  0.00  0.00    +0.000 A 
ATOM     34  C   UNL     1       8.689  13.665  20.658  0.00  0.00    +0.000 A 
ATOM     35  C   UNL     1       9.508  12.774  19.971  0.00  0.00    +0.000 A 
ATOM     36  C   UNL     1       9.386  12.634  18.586  0.00  0.00    +0.000 A 
ATOM     37  C   UNL     1       8.439  13.398  17.896  0.00  0.00    +0.000 A 
ENDBRANCH  31  32
ENDBRANCH  29  31
ENDBRANCH   6  27
TORSDOF 6
ENDMDL
MODEL 3
REMARK VINA RESULT:      -8.1      2.343      4.214
REMARK  Name = 
REMARK  7 active torsions:
REMARK  status: ('A' for Active; 'I' for Inactive)
REMARK    1  A    between atoms: C_1  and  C_2
REMARK    2  A    between atoms: C_3  and  C_4
REMARK    3  A    between atoms: C_9  and  C_10
REMARK    4  A    between atoms: N_12  and  C_13
REMARK    5  A    between atoms: C_13  and  C_14
REMARK    6  A    between atoms: N_22  and  C_23
REMARK    7  A    between atoms: C_23  and  C_24
REMARK                            x       y       z     vdW  Elec       q    Type
REMARK                         _______ _______ _______ _____ _____    ______ ____
ROOT
ATOM      1  C   UNL     1       1.269  12.471  20.334  0.00  0.00    +0.000 C 
ATOM      2  O   UNL     1       1.471  11.906  21.416  0.00  0.00    +0.000 OA
ATOM      3  N   UNL     1       2.063  13.615  20.053  0.00  0.00    +0.000 N 
ATOM      4  C   UNL     1       3.300  13.765  20.829  0.00  0.00    +0.000 C 
ATOM      5  C   UNL     1       3.760  15.220  20.923  0.00  0.00    +0.000 C 
ATOM      6  C   UNL     1       3.918  15.867  19.544  0.00  0.00    +0.000 C 
ATOM      7  C   UNL     1       2.591  15.752  18.802  0.00  0.00    +0.000 C 
ATOM      8  C   UNL     1       2.046  14.332  18.800  0.00  0.00    +0.000 C 
ENDROOT
BRANCH   1  11
ATOM      9  C   UNL     1       1.086   9.687  18.271  0.00  0.00    +0.000 C 
ATOM     10  C   UNL     1       0.138  10.799  18.578  0.00  0.00    +0.000 A 
ATOM     11  C   UNL     1       0.221  11.928  19.423  0.00  0.00    +0.000 A 
ATOM     12  N   UNL     1      -1.083  12.481  19.399  0.00  0.00    +0.000 N 
ATOM     13  C   UNL     1      -1.950  11.697  18.637  0.00  0.00    +0.000 A 
ATOM     14  C   UNL     1      -3.349  11.739  18.447  0.00  0.00    +0.000 A 
ATOM     15  C   UNL     1      -3.945  10.744  17.665  0.00  0.00    +0.000 A 
ATOM     16  C   UNL     1      -3.181   9.780  17.024  0.00  0.00    +0.000 A 
ATOM     17  C   UNL     1      -1.800   9.766  17.194  0.00  0.00    +0.000 A 
ATOM     18  C   UNL     1      -1.185  10.708  18.048  0.00  0.00    +0.000 A 
BRANCH  12  19
ATOM     19  C   UNL     1      -1.567  13.669  20.126  0.00  0.00    +0.000 C 
BRANCH  19  20
ATOM     20  C   UNL     1      -2.343  13.357  21.396  0.00  0.00    +0.000 A 
ATOM     21  C   UNL     1      -1.889  12.433  22.353  0.00  0.00    +0.000 A 
ATOM     22  C   UNL     1      -2.679  12.079  23.448  0.00  0.00    +0.000 A 
ATOM     23  C   UNL     1      -3.924  12.671  23.622  0.00  0.00    +0.000 A 
ATOM     24 CL   UNL     1      -4.922  12.183  24.936  0.00  0.00    +0.000 Cl
ATOM     25  C   UNL     1      -4.369  13.642  22.729  0.00  0.00    +0.000 A 
ATOM     26  C   UNL     1      -3.581  13.986  21.623  0.00  0.00    +0.000 A 
ENDBRANCH  19  20
ENDBRANCH  12  19
ENDBRANCH   1  11
BRANCH   6  27
ATOM     27  C   UNL     1       5.089  15.294  18.737  0.00  0.00    +0.000 C 
ATOM     28  O   UNL     1       4.976  14.898  17.583  0.00  0.00    +0.000 OA
ATOM     29  N   UNL     1       6.289  15.312  19.408  0.00  0.00    +0.000 N 
ATOM     30  H   UNL     1       6.346  15.741  20.321  0.00  0.00    +0.000 HD
BRANCH  29  31
ATOM     31  C   UNL     1       7.540  14.916  18.791  0.00  0.00    +0.000 C 
BRANCH  31  32
ATOM     32  C   UNL     1       8.291  13.947  19.673  0.00  0.00    +0.000 A 
ATOM     33  C   UNL     1       9.080  12.931  19.115  0.00  0.00    +0.000 A 
ATOM     34  C   UNL     1       9.763  12.034  19.937  0.00  0.00    +0.000 A 
ATOM     35  C   UNL     1       9.675  12.146  21.321  0.00  0.00    +0.000 A 
ATOM     36  C   UNL     1       8.904  13.159  21.895  0.00  0.00    +0.000 A 
ATOM     37  C   UNL     1       8.217  14.056  21.070  0.00  0.00    +0.000 A 
ENDBRANCH  31  32
ENDBRANCH  29  31
ENDBRANCH   6  27
TORSDOF 6
ENDMDL
MODEL 4
REMARK VINA RESULT:      -8.0      1.158      1.546
REMARK  Name = 
REMARK  7 active torsions:
REMARK  status: ('A' for Active; 'I' for Inactive)
REMARK    1  A    between atoms: C_1  and  C_2
REMARK    2  A    between atoms: C_3  and  C_4
REMARK    3  A    between atoms: C_9  and  C_10
REMARK    4  A    between atoms: N_12  and  C_13
REMARK    5  A    between atoms: C_13  and  C_14
REMARK    6  A    between atoms: N_22  and  C_23
REMARK    7  A    between atoms: C_23  and  C_24
REMARK                            x       y       z     vdW  Elec       q    Type
REMARK                         _______ _______ _______ _____ _____    ______ ____
ROOT
ATOM      1  C   UNL     1       0.876  12.645  20.490  0.00  0.00    +0.000 C 
ATOM      2  O   UNL     1       1.327  12.111  21.510  0.00  0.00    +0.000 OA
ATOM      3  N   UNL     1       1.526  13.829  20.048  0.00  0.00    +0.000 N 
ATOM      4  C   UNL     1       2.884  14.064  20.556  0.00  0.00    +0.000 C 
ATOM      5  C   UNL     1       3.264  15.545  20.548  0.00  0.00    +0.000 C 
ATOM      6  C   UNL     1       3.099  16.177  19.164  0.00  0.00    +0.000 C 
ATOM      7  C   UNL     1       1.659  15.973  18.708  0.00  0.00    +0.000 C 
ATOM      8  C   UNL     1       1.212  14.523  18.822  0.00  0.00    +0.000 C 
ENDROOT
BRANCH   1  11
ATOM      9  C   UNL     1      -2.546  13.194  20.646  0.00  0.00    +0.000 C 
ATOM     10  C   UNL     1      -1.696  12.242  19.872  0.00  0.00    +0.000 A 
ATOM     11  C   UNL     1      -0.300  12.028  19.813  0.00  0.00    +0.000 A 
ATOM     12  N   UNL     1      -0.130  11.106  18.750  0.00  0.00    +0.000 N 
ATOM     13  C   UNL     1      -1.348  10.819  18.132  0.00  0.00    +0.000 A 
ATOM     14  C   UNL     1      -1.671  10.105  16.958  0.00  0.00    +0.000 A 
ATOM     15  C   UNL     1      -3.010  10.057  16.554  0.00  0.00    +0.000 A 
ATOM     16  C   UNL     1      -4.013  10.629  17.322  0.00  0.00    +0.000 A 
ATOM     17  C   UNL     1      -3.686  11.305  18.493  0.00  0.00    +0.000 A 
ATOM     18  C   UNL     1      -2.334  11.440  18.876  0.00  0.00    +0.000 A 
BRANCH  12  19
ATOM     19  C   UNL     1       1.136  10.550  18.240  0.00  0.00    +0.000 C 
BRANCH  19  20
ATOM     20  C   UNL     1       1.468   9.160  18.760  0.00  0.00    +0.000 A 
ATOM     21  C   UNL     1       1.234   8.775  20.091  0.00  0.00    +0.000 A 
ATOM     22  C   UNL     1       1.658   7.534  20.571  0.00  0.00    +0.000 A 
ATOM     23  C   UNL     1       2.295   6.644  19.714  0.00  0.00    +0.000 A 
ATOM     24 CL   UNL     1       2.877   5.144  20.325  0.00  0.00    +0.000 Cl
ATOM     25  C   UNL     1       2.478   6.971  18.373  0.00  0.00    +0.000 A 
ATOM     26  C   UNL     1       2.064   8.222  17.897  0.00  0.00    +0.000 A 
ENDBRANCH  19  20
ENDBRANCH  12  19
ENDBRANCH   1  11
BRANCH   6  27
ATOM     27  C   UNL     1       4.115  15.660  18.138  0.00  0.00    +0.000 C 
ATOM     28  O   UNL     1       3.857  15.532  16.947  0.00  0.00    +0.000 OA
ATOM     29  N   UNL     1       5.358  15.404  18.666  0.00  0.00    +0.000 N 
ATOM     30  H   UNL     1       5.546  15.621  19.635  0.00  0.00    +0.000 HD
BRANCH  29  31
ATOM     31  C   UNL     1       6.492  15.010  17.852  0.00  0.00    +0.000 C 
BRANCH  31  32
ATOM     32  C   UNL     1       7.713  15.826  18.200  0.00  0.00    +0.000 A 
ATOM     33  C   UNL     1       7.601  17.183  18.535  0.00  0.00    +0.000 A 
ATOM     34  C   UNL     1       8.735  17.933  18.845  0.00  0.00    +0.000 A 
ATOM     35  C   UNL     1       9.993  17.336  18.836  0.00  0.00    +0.000 A 
ATOM     36  C   UNL     1      10.124  15.983  18.516  0.00  0.00    +0.000 A 
ATOM     37  C   UNL     1       8.985  15.233  18.202  0.00  0.00    +0.000 A 
ENDBRANCH  31  32
ENDBRANCH  29  31
ENDBRANCH   6  27
TORSDOF 6
ENDMDL
MODEL 5
REMARK VINA RESULT:      -8.0      2.366      4.246
REMARK  Name = 
REMARK  7 active torsions:
REMARK  status: ('A' for Active; 'I' for Inactive)
REMARK    1  A    between atoms: C_1  and  C_2
REMARK    2  A    between atoms: C_3  and  C_4
REMARK    3  A    between atoms: C_9  and  C_10
REMARK    4  A    between atoms: N_12  and  C_13
REMARK    5  A    between atoms: C_13  and  C_14
REMARK    6  A    between atoms: N_22  and  C_23
REMARK    7  A    between atoms: C_23  and  C_24
REMARK                            x       y       z     vdW  Elec       q    Type
REMARK                         _______ _______ _______ _____ _____    ______ ____
ROOT
ATOM      1  C   UNL     1       1.295  12.456  20.243  0.00  0.00    +0.000 C 
ATOM      2  O   UNL     1       1.488  11.914  21.338  0.00  0.00    +0.000 OA
ATOM      3  N   UNL     1       2.109  13.580  19.935  0.00  0.00    +0.000 N 
ATOM      4  C   UNL     1       3.349  13.727  20.707  0.00  0.00    +0.000 C 
ATOM      5  C   UNL     1       3.835  15.175  20.766  0.00  0.00    +0.000 C 
ATOM      6  C   UNL     1       4.004  15.786  19.373  0.00  0.00    +0.000 C 
ATOM      7  C   UNL     1       2.675  15.676  18.633  0.00  0.00    +0.000 C 
ATOM      8  C   UNL     1       2.105  14.266  18.665  0.00  0.00    +0.000 C 
ENDROOT
BRANCH   1  11
ATOM      9  C   UNL     1       1.138   9.738  18.092  0.00  0.00    +0.000 C 
ATOM     10  C   UNL     1       0.166  10.808  18.464  0.00  0.00    +0.000 A 
ATOM     11  C   UNL     1       0.238  11.911  19.345  0.00  0.00    +0.000 A 
ATOM     12  N   UNL     1      -1.083  12.422  19.377  0.00  0.00    +0.000 N 
ATOM     13  C   UNL     1      -1.947  11.636  18.615  0.00  0.00    +0.000 A 
ATOM     14  C   UNL     1      -3.351  11.638  18.467  0.00  0.00    +0.000 A 
ATOM     15  C   UNL     1      -3.940  10.651  17.669  0.00  0.00    +0.000 A 
ATOM     16  C   UNL     1      -3.166   9.735  16.973  0.00  0.00    +0.000 A 
ATOM     17  C   UNL     1      -1.781   9.760  17.103  0.00  0.00    +0.000 A 
ATOM     18  C   UNL     1      -1.170  10.692  17.970  0.00  0.00    +0.000 A 
BRANCH  12  19
ATOM     19  C   UNL     1      -1.581  13.569  20.158  0.00  0.00    +0.000 C 
BRANCH  19  20
ATOM     20  C   UNL     1      -2.467  13.192  21.336  0.00  0.00    +0.000 A 
ATOM     21  C   UNL     1      -3.715  13.794  21.567  0.00  0.00    +0.000 A 
ATOM     22  C   UNL     1      -4.451  13.514  22.720  0.00  0.00    +0.000 A 
ATOM     23  C   UNL     1      -3.963  12.598  23.645  0.00  0.00    +0.000 A 
ATOM     24 CL   UNL     1      -4.841  12.306  25.097  0.00  0.00    +0.000 Cl
ATOM     25  C   UNL     1      -2.763  11.934  23.408  0.00  0.00    +0.000 A 
ATOM     26  C   UNL     1      -2.019  12.226  22.257  0.00  0.00    +0.000 A 
ENDBRANCH  19  20
ENDBRANCH  12  19
ENDBRANCH   1  11
BRANCH   6  27
ATOM     27  C   UNL     1       5.165  15.173  18.580  0.00  0.00    +0.000 C 
ATOM     28  O   UNL     1       5.006  14.329  17.706  0.00  0.00    +0.000 OA
ATOM     29  N   UNL     1       6.395  15.694  18.902  0.00  0.00    +0.000 N 
ATOM     30  H   UNL     1       6.459  16.459  19.559  0.00  0.00    +0.000 HD
BRANCH  29  31
ATOM     31  C   UNL     1       7.610  15.332  18.199  0.00  0.00    +0.000 C 
BRANCH  31  32
ATOM     32  C   UNL     1       8.243  14.106  18.813  0.00  0.00    +0.000 A 
ATOM     33  C   UNL     1       8.445  14.019  20.198  0.00  0.00    +0.000 A 
ATOM     34  C   UNL     1       9.040  12.888  20.757  0.00  0.00    +0.000 A 
ATOM     35  C   UNL     1       9.429  11.827  19.944  0.00  0.00    +0.000 A 
ATOM     36  C   UNL     1       9.225  11.890  18.563  0.00  0.00    +0.000 A 
ATOM     37  C   UNL     1       8.631  13.028  18.004  0.00  0.00    +0.000 A 
ENDBRANCH  31  32
ENDBRANCH  29  31
ENDBRANCH   6  27
TORSDOF 6
ENDMDL
MODEL 6
REMARK VINA RESULT:      -7.9      1.250      1.739
REMARK  Name = 
REMARK  7 active torsions:
REMARK  status: ('A' for Active; 'I' for Inactive)
REMARK    1  A    between atoms: C_1  and  C_2
REMARK    2  A    between atoms: C_3  and  C_4
REMARK    3  A    between atoms: C_9  and  C_10
REMARK    4  A    between atoms: N_12  and  C_13
REMARK    5  A    between atoms: C_13  and  C_14
REMARK    6  A    between atoms: N_22  and  C_23
REMARK    7  A    between atoms: C_23  and  C_24
REMARK                            x       y       z     vdW  Elec       q    Type
REMARK                         _______ _______ _______ _____ _____    ______ ____
ROOT
ATOM      1  C   UNL     1       0.719  12.643  20.537  0.00  0.00    +0.000 C 
ATOM      2  O   UNL     1       1.141  12.134  21.582  0.00  0.00    +0.000 OA
ATOM      3  N   UNL     1       1.359  13.837  20.105  0.00  0.00    +0.000 N 
ATOM      4  C   UNL     1       2.689  14.111  20.664  0.00  0.00    +0.000 C 
ATOM      5  C   UNL     1       3.034  15.600  20.650  0.00  0.00    +0.000 C 
ATOM      6  C   UNL     1       2.911  16.210  19.251  0.00  0.00    +0.000 C 
ATOM      7  C   UNL     1       1.496  15.964  18.740  0.00  0.00    +0.000 C 
ATOM      8  C   UNL     1       1.079  14.506  18.858  0.00  0.00    +0.000 C 
ENDROOT
BRANCH   1  11
ATOM      9  C   UNL     1      -2.715  13.138  20.516  0.00  0.00    +0.000 C 
ATOM     10  C   UNL     1      -1.813  12.181  19.809  0.00  0.00    +0.000 A 
ATOM     11  C   UNL     1      -0.413  11.989  19.822  0.00  0.00    +0.000 A 
ATOM     12  N   UNL     1      -0.179  11.043  18.794  0.00  0.00    +0.000 N 
ATOM     13  C   UNL     1      -1.361  10.719  18.127  0.00  0.00    +0.000 A 
ATOM     14  C   UNL     1      -1.617   9.969  16.959  0.00  0.00    +0.000 A 
ATOM     15  C   UNL     1      -2.934   9.888  16.493  0.00  0.00    +0.000 A 
ATOM     16  C   UNL     1      -3.981  10.463  17.197  0.00  0.00    +0.000 A 
ATOM     17  C   UNL     1      -3.721  11.175  18.364  0.00  0.00    +0.000 A 
ATOM     18  C   UNL     1      -2.391  11.343  18.807  0.00  0.00    +0.000 A 
BRANCH  12  19
ATOM     19  C   UNL     1       1.119  10.495  18.360  0.00  0.00    +0.000 C 
BRANCH  19  20
ATOM     20  C   UNL     1       1.489   9.168  19.003  0.00  0.00    +0.000 A 
ATOM     21  C   UNL     1       2.213   8.173  18.324  0.00  0.00    +0.000 A 
ATOM     22  C   UNL     1       2.434   6.920  18.898  0.00  0.00    +0.000 A 
ATOM     23  C   UNL     1       1.963   6.654  20.178  0.00  0.00    +0.000 A 
ATOM     24 CL   UNL     1       2.179   5.086  20.856  0.00  0.00    +0.000 Cl
ATOM     25  C   UNL     1       1.303   7.644  20.902  0.00  0.00    +0.000 A 
ATOM     26  C   UNL     1       1.070   8.896  20.319  0.00  0.00    +0.000 A 
ENDBRANCH  19  20
ENDBRANCH  12  19
ENDBRANCH   1  11
BRANCH   6  27
ATOM     27  C   UNL     1       3.980  15.704  18.275  0.00  0.00    +0.000 C 
ATOM     28  O   UNL     1       3.793  15.612  17.068  0.00  0.00    +0.000 OA
ATOM     29  N   UNL     1       5.184  15.412  18.870  0.00  0.00    +0.000 N 
ATOM     30  H   UNL     1       5.316  15.600  19.855  0.00  0.00    +0.000 HD
BRANCH  29  31
ATOM     31  C   UNL     1       6.359  15.021  18.116  0.00  0.00    +0.000 C 
BRANCH  31  32
ATOM     32  C   UNL     1       7.481  16.012  18.315  0.00  0.00    +0.000 A 
ATOM     33  C   UNL     1       8.728  15.820  17.704  0.00  0.00    +0.000 A 
ATOM     34  C   UNL     1       9.762  16.735  17.901  0.00  0.00    +0.000 A 
ATOM     35  C   UNL     1       9.562  17.856  18.702  0.00  0.00    +0.000 A 
ATOM     36  C   UNL     1       8.323  18.071  19.310  0.00  0.00    +0.000 A 
ATOM     37  C   UNL     1       7.288  17.151  19.113  0.00  0.00    +0.000 A 
ENDBRANCH  31  32
ENDBRANCH  29  31
ENDBRANCH   6  27
TORSDOF 6
ENDMDL
MODEL 7
REMARK VINA RESULT:      -7.8      4.706      9.393
REMARK  Name = 
REMARK  7 active torsions:
REMARK  status: ('A' for Active; 'I' for Inactive)
REMARK    1  A    between atoms: C_1  and  C_2
REMARK    2  A    between atoms: C_3  and  C_4
REMARK    3  A    between atoms: C_9  and  C_10
REMARK    4  A    between atoms: N_12  and  C_13
REMARK    5  A    between atoms: C_13  and  C_14
REMARK    6  A    between atoms: N_22  and  C_23
REMARK    7  A    between atoms: C_23  and  C_24
REMARK                            x       y       z     vdW  Elec       q    Type
REMARK                         _______ _______ _______ _____ _____    ______ ____
ROOT
ATOM      1  C   UNL     1      -0.747  12.052  21.958  0.00  0.00    +0.000 C 
ATOM      2  O   UNL     1      -0.264  11.115  22.605  0.00  0.00    +0.000 OA
ATOM      3  N   UNL     1      -0.840  11.875  20.550  0.00  0.00    +0.000 N 
ATOM      4  C   UNL     1      -0.771  10.495  20.054  0.00  0.00    +0.000 C 
ATOM      5  C   UNL     1      -0.282  10.417  18.607  0.00  0.00    +0.000 C 
ATOM      6  C   UNL     1      -1.127  11.277  17.664  0.00  0.00    +0.000 C 
ATOM      7  C   UNL     1      -1.113  12.713  18.177  0.00  0.00    +0.000 C 
ATOM      8  C   UNL     1      -1.475  12.808  19.651  0.00  0.00    +0.000 C 
ENDROOT
BRANCH   1  11
ATOM      9  C   UNL     1      -3.377  12.771  24.104  0.00  0.00    +0.000 C 
ATOM     10  C   UNL     1      -2.251  13.583  23.555  0.00  0.00    +0.000 A 
ATOM     11  C   UNL     1      -1.181  13.280  22.682  0.00  0.00    +0.000 A 
ATOM     12  N   UNL     1      -0.366  14.438  22.709  0.00  0.00    +0.000 N 
ATOM     13  C   UNL     1      -0.863  15.384  23.607  0.00  0.00    +0.000 A 
ATOM     14  C   UNL     1      -0.333  16.598  24.096  0.00  0.00    +0.000 A 
ATOM     15  C   UNL     1      -1.057  17.297  25.069  0.00  0.00    +0.000 A 
ATOM     16  C   UNL     1      -2.301  16.856  25.493  0.00  0.00    +0.000 A 
ATOM     17  C   UNL     1      -2.827  15.674  24.982  0.00  0.00    +0.000 A 
ATOM     18  C   UNL     1      -2.077  14.907  24.064  0.00  0.00    +0.000 A 
BRANCH  12  19
ATOM     19  C   UNL     1       0.901  14.659  21.989  0.00  0.00    +0.000 C 
BRANCH  19  20
ATOM     20  C   UNL     1       0.793  15.597  20.796  0.00  0.00    +0.000 A 
ATOM     21  C   UNL     1      -0.438  16.092  20.333  0.00  0.00    +0.000 A 
ATOM     22  C   UNL     1      -0.518  16.854  19.166  0.00  0.00    +0.000 A 
ATOM     23  C   UNL     1       0.640  17.160  18.461  0.00  0.00    +0.000 A 
ATOM     24 CL   UNL     1       0.530  18.042  16.986  0.00  0.00    +0.000 Cl
ATOM     25  C   UNL     1       1.881  16.742  18.934  0.00  0.00    +0.000 A 
ATOM     26  C   UNL     1       1.958  15.967  20.099  0.00  0.00    +0.000 A 
ENDBRANCH  19  20
ENDBRANCH  12  19
ENDBRANCH   1  11
BRANCH   6  27
ATOM     27  C   UNL     1      -2.551  10.742  17.469  0.00  0.00    +0.000 C 
ATOM     28  O   UNL     1      -2.847   9.562  17.614  0.00  0.00    +0.000 OA
ATOM     29  N   UNL     1      -3.475  11.714  17.169  0.00  0.00    +0.000 N 
ATOM     30  H   UNL     1      -3.195  12.686  17.159  0.00  0.00    +0.000 HD
BRANCH  29  31
ATOM     31  C   UNL     1      -4.893  11.440  17.050  0.00  0.00    +0.000 C 
BRANCH  31  32
ATOM     32  C   UNL     1      -5.574  11.533  18.394  0.00  0.00    +0.000 A 
ATOM     33  C   UNL     1      -6.640  10.683  18.721  0.00  0.00    +0.000 A 
ATOM     34  C   UNL     1      -7.271  10.782  19.962  0.00  0.00    +0.000 A 
ATOM     35  C   UNL     1      -6.838  11.722  20.893  0.00  0.00    +0.000 A 
ATOM     36  C   UNL     1      -5.770  12.570  20.591  0.00  0.00    +0.000 A 
ATOM     37  C   UNL     1      -5.141  12.471  19.345  0.00  0.00    +0.000 A 
ENDBRANCH  31  32
ENDBRANCH  29  31
ENDBRANCH   6  27
TORSDOF 6
ENDMDL
MODEL 8
REMARK VINA RESULT:      -7.6      1.110      1.197
REMARK  Name = 
REMARK  7 active torsions:
REMARK  status: ('A' for Active; 'I' for Inactive)
REMARK    1  A    between atoms: C_1  and  C_2
REMARK    2  A    between atoms: C_3  and  C_4
REMARK    3  A    between atoms: C_9  and  C_10
REMARK    4  A    between atoms: N_12  and  C_13
REMARK    5  A    between atoms: C_13  and  C_14
REMARK    6  A    between atoms: N_22  and  C_23
REMARK    7  A    between atoms: C_23  and  C_24
REMARK                            x       y       z     vdW  Elec       q    Type
REMARK                         _______ _______ _______ _____ _____    ______ ____
ROOT
ATOM      1  C   UNL     1       0.392  13.122  20.552  0.00  0.00    +0.000 C 
ATOM      2  O   UNL     1       0.933  12.632  21.550  0.00  0.00    +0.000 OA
ATOM      3  N   UNL     1       0.846  14.406  20.145  0.00  0.00    +0.000 N 
ATOM      4  C   UNL     1       2.159  14.830  20.649  0.00  0.00    +0.000 C 
ATOM      5  C   UNL     1       2.307  16.351  20.688  0.00  0.00    +0.000 C 
ATOM      6  C   UNL     1       2.030  16.995  19.327  0.00  0.00    +0.000 C 
ATOM      7  C   UNL     1       0.632  16.585  18.876  0.00  0.00    +0.000 C 
ATOM      8  C   UNL     1       0.414  15.082  18.946  0.00  0.00    +0.000 C 
ENDROOT
BRANCH   1  11
ATOM      9  C   UNL     1      -3.074  13.301  20.569  0.00  0.00    +0.000 C 
ATOM     10  C   UNL     1      -2.097  12.417  19.868  0.00  0.00    +0.000 A 
ATOM     11  C   UNL     1      -0.685  12.354  19.865  0.00  0.00    +0.000 A 
ATOM     12  N   UNL     1      -0.377  11.413  18.851  0.00  0.00    +0.000 N 
ATOM     13  C   UNL     1      -1.532  10.970  18.206  0.00  0.00    +0.000 A 
ATOM     14  C   UNL     1      -1.732  10.177  17.055  0.00  0.00    +0.000 A 
ATOM     15  C   UNL     1      -3.042   9.968  16.609  0.00  0.00    +0.000 A 
ATOM     16  C   UNL     1      -4.128  10.458  17.317  0.00  0.00    +0.000 A 
ATOM     17  C   UNL     1      -3.921  11.213  18.467  0.00  0.00    +0.000 A 
ATOM     18  C   UNL     1      -2.607  11.510  18.888  0.00  0.00    +0.000 A 
BRANCH  12  19
ATOM     19  C   UNL     1       0.960  10.978  18.409  0.00  0.00    +0.000 C 
BRANCH  19  20
ATOM     20  C   UNL     1       1.337   9.569  18.839  0.00  0.00    +0.000 A 
ATOM     21  C   UNL     1       1.109   9.088  20.140  0.00  0.00    +0.000 A 
ATOM     22  C   UNL     1       1.573   7.833  20.539  0.00  0.00    +0.000 A 
ATOM     23  C   UNL     1       2.245   7.024  19.630  0.00  0.00    +0.000 A 
ATOM     24 CL   UNL     1       2.875   5.507  20.145  0.00  0.00    +0.000 Cl
ATOM     25  C   UNL     1       2.424   7.446  18.315  0.00  0.00    +0.000 A 
ATOM     26  C   UNL     1       1.970   8.710  17.920  0.00  0.00    +0.000 A 
ENDBRANCH  19  20
ENDBRANCH  12  19
ENDBRANCH   1  11
BRANCH   6  27
ATOM     27  C   UNL     1       3.099  16.672  18.276  0.00  0.00    +0.000 C 
ATOM     28  O   UNL     1       3.079  17.130  17.140  0.00  0.00    +0.000 OA
ATOM     29  N   UNL     1       4.111  15.866  18.741  0.00  0.00    +0.000 N 
ATOM     30  H   UNL     1       4.131  15.597  19.715  0.00  0.00    +0.000 HD
BRANCH  29  31
ATOM     31  C   UNL     1       5.274  15.527  17.945  0.00  0.00    +0.000 C 
BRANCH  31  32
ATOM     32  C   UNL     1       6.485  15.321  18.822  0.00  0.00    +0.000 A 
ATOM     33  C   UNL     1       7.781  15.436  18.299  0.00  0.00    +0.000 A 
ATOM     34  C   UNL     1       8.895  15.234  19.114  0.00  0.00    +0.000 A 
ATOM     35  C   UNL     1       8.729  14.926  20.461  0.00  0.00    +0.000 A 
ATOM     36  C   UNL     1       7.447  14.818  21.004  0.00  0.00    +0.000 A 
ATOM     37  C   UNL     1       6.331  15.019  20.184  0.00  0.00    +0.000 A 
ENDBRANCH  31  32
ENDBRANCH  29  31
ENDBRANCH   6  27
TORSDOF 6
ENDMDL
MODEL 9
REMARK VINA RESULT:      -7.6      4.856      9.438
REMARK  Name = 
REMARK  7 active torsions:
REMARK  status: ('A' for Active; 'I' for Inactive)
REMARK    1  A    between atoms: C_1  and  C_2
REMARK    2  A    between atoms: C_3  and  C_4
REMARK    3  A    between atoms: C_9  and  C_10
REMARK    4  A    between atoms: N_12  and  C_13
REMARK    5  A    between atoms: C_13  and  C_14
REMARK    6  A    between atoms: N_22  and  C_23
REMARK    7  A    between atoms: C_23  and  C_24
REMARK                            x       y       z     vdW  Elec       q    Type
REMARK                         _______ _______ _______ _____ _____    ______ ____
ROOT
ATOM      1  C   UNL     1      -1.290  12.609  22.429  0.00  0.00    +0.000 C 
ATOM      2  O   UNL     1      -0.880  11.744  23.212  0.00  0.00    +0.000 OA
ATOM      3  N   UNL     1      -1.109  12.353  21.043  0.00  0.00    +0.000 N 
ATOM      4  C   UNL     1      -0.866  10.958  20.657  0.00  0.00    +0.000 C 
ATOM      5  C   UNL     1      -0.113  10.840  19.331  0.00  0.00    +0.000 C 
ATOM      6  C   UNL     1      -0.819  11.587  18.197  0.00  0.00    +0.000 C 
ATOM      7  C   UNL     1      -0.987  13.045  18.611  0.00  0.00    +0.000 C 
ATOM      8  C   UNL     1      -1.622  13.191  19.985  0.00  0.00    +0.000 C 
ENDROOT
BRANCH   1  11
ATOM      9  C   UNL     1      -4.365  13.276  23.891  0.00  0.00    +0.000 C 
ATOM     10  C   UNL     1      -3.175  14.121  23.576  0.00  0.00    +0.000 A 
ATOM     11  C   UNL     1      -1.924  13.839  22.983  0.00  0.00    +0.000 A 
ATOM     12  N   UNL     1      -1.182  15.035  23.143  0.00  0.00    +0.000 N 
ATOM     13  C   UNL     1      -1.905  15.986  23.863  0.00  0.00    +0.000 A 
ATOM     14  C   UNL     1      -1.548  17.239  24.406  0.00  0.00    +0.000 A 
ATOM     15  C   UNL     1      -2.501  17.936  25.158  0.00  0.00    +0.000 A 
ATOM     16  C   UNL     1      -3.791  17.452  25.308  0.00  0.00    +0.000 A 
ATOM     17  C   UNL     1      -4.141  16.229  24.744  0.00  0.00    +0.000 A 
ATOM     18  C   UNL     1      -3.173  15.468  24.054  0.00  0.00    +0.000 A 
BRANCH  12  19
ATOM     19  C   UNL     1       0.207  15.291  22.720  0.00  0.00    +0.000 C 
BRANCH  19  20
ATOM     20  C   UNL     1       0.344  15.837  21.307  0.00  0.00    +0.000 A 
ATOM     21  C   UNL     1       1.346  15.402  20.422  0.00  0.00    +0.000 A 
ATOM     22  C   UNL     1       1.520  16.005  19.175  0.00  0.00    +0.000 A 
ATOM     23  C   UNL     1       0.673  17.033  18.780  0.00  0.00    +0.000 A 
ATOM     24 CL   UNL     1       0.934  17.819  17.271  0.00  0.00    +0.000 Cl
ATOM     25  C   UNL     1      -0.372  17.437  19.608  0.00  0.00    +0.000 A 
ATOM     26  C   UNL     1      -0.538  16.840  20.863  0.00  0.00    +0.000 A 
ENDBRANCH  19  20
ENDBRANCH  12  19
ENDBRANCH   1  11
BRANCH   6  27
ATOM     27  C   UNL     1      -2.147  10.942  17.781  0.00  0.00    +0.000 C 
ATOM     28  O   UNL     1      -2.327   9.731  17.769  0.00  0.00    +0.000 OA
ATOM     29  N   UNL     1      -3.134  11.849  17.474  0.00  0.00    +0.000 N 
ATOM     30  H   UNL     1      -2.963  12.838  17.597  0.00  0.00    +0.000 HD
BRANCH  29  31
ATOM     31  C   UNL     1      -4.494  11.454  17.161  0.00  0.00    +0.000 C 
BRANCH  31  32
ATOM     32  C   UNL     1      -5.360  11.482  18.397  0.00  0.00    +0.000 A 
ATOM     33  C   UNL     1      -6.350  10.511  18.603  0.00  0.00    +0.000 A 
ATOM     34  C   UNL     1      -7.154  10.549  19.743  0.00  0.00    +0.000 A 
ATOM     35  C   UNL     1      -6.972  11.548  20.694  0.00  0.00    +0.000 A 
ATOM     36  C   UNL     1      -5.983  12.518  20.513  0.00  0.00    +0.000 A 
ATOM     37  C   UNL     1      -5.180  12.479  19.368  0.00  0.00    +0.000 A 
ENDBRANCH  31  32
ENDBRANCH  29  31
ENDBRANCH   6  27
TORSDOF 6
ENDMDL
