MODEL 1
REMARK VINA RESULT:      -7.6      0.000      0.000
REMARK  Name = 
REMARK  2 active torsions:
REMARK  status: ('A' for Active; 'I' for Inactive)
REMARK    1  A    between atoms: C_2  and  C_3
REMARK    2  A    between atoms: C_7  and  C_8
REMARK                            x       y       z     vdW  Elec       q    Type
REMARK                         _______ _______ _______ _____ _____    ______ ____
ROOT
ATOM      1  C   UNL     1       3.974   4.304  17.656  0.00  0.00    +0.000 A 
ATOM      2  C   UNL     1       2.722   4.875  17.458  0.00  0.00    +0.000 A 
ATOM      3  C   UNL     1       1.732   4.655  18.401  0.00  0.00    +0.000 A 
ATOM      4  C   UNL     1       2.017   3.863  19.515  0.00  0.00    +0.000 A 
ATOM      5  C   UNL     1       1.051   3.622  20.500  0.00  0.00    +0.000 A 
ATOM      6  C   UNL     1       1.377   2.830  21.588  0.00  0.00    +0.000 A 
ATOM      7  C   UNL     1       2.655   2.313  21.641  0.00  0.00    +0.000 A 
ATOM      8  N   UNL     1       3.600   2.533  20.700  0.00  0.00    +0.000 NA
ATOM      9  C   UNL     1       3.299   3.298  19.648  0.00  0.00    +0.000 A 
ATOM     10  N   UNL     1       4.243   3.519  18.730  0.00  0.00    +0.000 NA
ENDROOT
BRANCH   1  15
ATOM     11  C   UNL     1       6.147   4.204  14.544  0.00  0.00    +0.000 A 
ATOM     12  C   UNL     1       7.271   4.921  14.965  0.00  0.00    +0.000 A 
ATOM     13  C   UNL     1       7.320   5.443  16.254  0.00  0.00    +0.000 A 
ATOM     14  C   UNL     1       6.246   5.245  17.123  0.00  0.00    +0.000 A 
ATOM     15  C   UNL     1       5.099   4.531  16.729  0.00  0.00    +0.000 A 
ATOM     16  C   UNL     1       5.070   4.018  15.419  0.00  0.00    +0.000 A 
BRANCH  11  18
ATOM     17  N   UNL     1       6.066   3.191  12.158  0.00  0.00    +0.000 NA
ATOM     18  C   UNL     1       6.102   3.651  13.225  0.00  0.00    +0.000 C 
ENDBRANCH  11  18
ENDBRANCH   1  15
TORSDOF 2
ENDMDL
MODEL 2
REMARK VINA RESULT:      -7.4      4.177      5.024
REMARK  Name = 
REMARK  2 active torsions:
REMARK  status: ('A' for Active; 'I' for Inactive)
REMARK    1  A    between atoms: C_2  and  C_3
REMARK    2  A    between atoms: C_7  and  C_8
REMARK                            x       y       z     vdW  Elec       q    Type
REMARK                         _______ _______ _______ _____ _____    ______ ____
ROOT
ATOM      1  C   UNL     1       2.385   7.514  18.469  0.00  0.00    +0.000 A 
ATOM      2  C   UNL     1       2.040   8.609  17.686  0.00  0.00    +0.000 A 
ATOM      3  C   UNL     1       1.393   9.678  18.283  0.00  0.00    +0.000 A 
ATOM      4  C   UNL     1       1.099   9.620  19.646  0.00  0.00    +0.000 A 
ATOM      5  C   UNL     1       0.456  10.681  20.295  0.00  0.00    +0.000 A 
ATOM      6  C   UNL     1       0.184  10.582  21.649  0.00  0.00    +0.000 A 
ATOM      7  C   UNL     1       0.567   9.424  22.294  0.00  0.00    +0.000 A 
ATOM      8  N   UNL     1       1.188   8.389  21.685  0.00  0.00    +0.000 NA
ATOM      9  C   UNL     1       1.459   8.475  20.380  0.00  0.00    +0.000 A 
ATOM     10  N   UNL     1       2.082   7.452  19.790  0.00  0.00    +0.000 NA
ENDROOT
BRANCH   1  15
ATOM     11  C   UNL     1       5.091   5.431  16.808  0.00  0.00    +0.000 A 
ATOM     12  C   UNL     1       4.519   4.156  16.836  0.00  0.00    +0.000 A 
ATOM     13  C   UNL     1       3.261   3.971  17.400  0.00  0.00    +0.000 A 
ATOM     14  C   UNL     1       2.573   5.062  17.933  0.00  0.00    +0.000 A 
ATOM     15  C   UNL     1       3.123   6.358  17.925  0.00  0.00    +0.000 A 
ATOM     16  C   UNL     1       4.399   6.519  17.354  0.00  0.00    +0.000 A 
BRANCH  11  18
ATOM     17  N   UNL     1       7.418   5.794  15.721  0.00  0.00    +0.000 NA
ATOM     18  C   UNL     1       6.378   5.627  16.213  0.00  0.00    +0.000 C 
ENDBRANCH  11  18
ENDBRANCH   1  15
TORSDOF 2
ENDMDL
MODEL 3
REMARK VINA RESULT:      -7.2      3.968      6.709
REMARK  Name = 
REMARK  2 active torsions:
REMARK  status: ('A' for Active; 'I' for Inactive)
REMARK    1  A    between atoms: C_2  and  C_3
REMARK    2  A    between atoms: C_7  and  C_8
REMARK                            x       y       z     vdW  Elec       q    Type
REMARK                         _______ _______ _______ _____ _____    ______ ____
ROOT
ATOM      1  C   UNL     1       2.538   6.646  18.747  0.00  0.00    +0.000 A 
ATOM      2  C   UNL     1       3.600   6.605  17.852  0.00  0.00    +0.000 A 
ATOM      3  C   UNL     1       4.083   5.373  17.446  0.00  0.00    +0.000 A 
ATOM      4  C   UNL     1       3.497   4.212  17.952  0.00  0.00    +0.000 A 
ATOM      5  C   UNL     1       3.945   2.944  17.562  0.00  0.00    +0.000 A 
ATOM      6  C   UNL     1       3.335   1.818  18.090  0.00  0.00    +0.000 A 
ATOM      7  C   UNL     1       2.303   2.012  18.986  0.00  0.00    +0.000 A 
ATOM      8  N   UNL     1       1.859   3.228  19.375  0.00  0.00    +0.000 NA
ATOM      9  C   UNL     1       2.436   4.320  18.871  0.00  0.00    +0.000 A 
ATOM     10  N   UNL     1       1.982   5.516  19.253  0.00  0.00    +0.000 NA
ENDROOT
BRANCH   1  15
ATOM     11  C   UNL     1       0.979   9.310  20.959  0.00  0.00    +0.000 A 
ATOM     12  C   UNL     1       0.717  10.324  20.033  0.00  0.00    +0.000 A 
ATOM     13  C   UNL     1       1.052  10.146  18.694  0.00  0.00    +0.000 A 
ATOM     14  C   UNL     1       1.648   8.953  18.281  0.00  0.00    +0.000 A 
ATOM     15  C   UNL     1       1.929   7.915  19.190  0.00  0.00    +0.000 A 
ATOM     16  C   UNL     1       1.586   8.120  20.538  0.00  0.00    +0.000 A 
BRANCH  11  18
ATOM     17  N   UNL     1       0.333   9.632  23.450  0.00  0.00    +0.000 NA
ATOM     18  C   UNL     1       0.618   9.483  22.333  0.00  0.00    +0.000 C 
ENDBRANCH  11  18
ENDBRANCH   1  15
TORSDOF 2
ENDMDL
MODEL 4
REMARK VINA RESULT:      -7.2      4.131      5.165
REMARK  Name = 
REMARK  2 active torsions:
REMARK  status: ('A' for Active; 'I' for Inactive)
REMARK    1  A    between atoms: C_2  and  C_3
REMARK    2  A    between atoms: C_7  and  C_8
REMARK                            x       y       z     vdW  Elec       q    Type
REMARK                         _______ _______ _______ _____ _____    ______ ____
ROOT
ATOM      1  C   UNL     1       2.352   7.703  18.451  0.00  0.00    +0.000 A 
ATOM      2  C   UNL     1       1.839   8.756  17.703  0.00  0.00    +0.000 A 
ATOM      3  C   UNL     1       1.095   9.730  18.347  0.00  0.00    +0.000 A 
ATOM      4  C   UNL     1       0.877   9.623  19.721  0.00  0.00    +0.000 A 
ATOM      5  C   UNL     1       0.141  10.590  20.417  0.00  0.00    +0.000 A 
ATOM      6  C   UNL     1      -0.052  10.444  21.780  0.00  0.00    +0.000 A 
ATOM      7  C   UNL     1       0.501   9.334  22.387  0.00  0.00    +0.000 A 
ATOM      8  N   UNL     1       1.213   8.390  21.733  0.00  0.00    +0.000 NA
ATOM      9  C   UNL     1       1.408   8.522  20.419  0.00  0.00    +0.000 A 
ATOM     10  N   UNL     1       2.123   7.590  19.784  0.00  0.00    +0.000 NA
ENDROOT
BRANCH   1  15
ATOM     11  C   UNL     1       3.719   4.288  17.508  0.00  0.00    +0.000 A 
ATOM     12  C   UNL     1       4.844   4.635  16.754  0.00  0.00    +0.000 A 
ATOM     13  C   UNL     1       5.154   5.975  16.546  0.00  0.00    +0.000 A 
ATOM     14  C   UNL     1       4.340   6.968  17.094  0.00  0.00    +0.000 A 
ATOM     15  C   UNL     1       3.198   6.651  17.854  0.00  0.00    +0.000 A 
ATOM     16  C   UNL     1       2.902   5.290  18.046  0.00  0.00    +0.000 A 
BRANCH  11  18
ATOM     17  N   UNL     1       3.162   1.791  17.936  0.00  0.00    +0.000 NA
ATOM     18  C   UNL     1       3.408   2.910  17.739  0.00  0.00    +0.000 C 
ENDBRANCH  11  18
ENDBRANCH   1  15
TORSDOF 2
ENDMDL
MODEL 5
REMARK VINA RESULT:      -7.2      3.956      7.204
REMARK  Name = 
REMARK  2 active torsions:
REMARK  status: ('A' for Active; 'I' for Inactive)
REMARK    1  A    between atoms: C_2  and  C_3
REMARK    2  A    between atoms: C_7  and  C_8
REMARK                            x       y       z     vdW  Elec       q    Type
REMARK                         _______ _______ _______ _____ _____    ______ ____
ROOT
ATOM      1  C   UNL     1       2.745   6.911  18.123  0.00  0.00    +0.000 A 
ATOM      2  C   UNL     1       2.274   5.612  18.269  0.00  0.00    +0.000 A 
ATOM      3  C   UNL     1       3.027   4.568  17.757  0.00  0.00    +0.000 A 
ATOM      4  C   UNL     1       4.228   4.852  17.105  0.00  0.00    +0.000 A 
ATOM      5  C   UNL     1       5.027   3.829  16.581  0.00  0.00    +0.000 A 
ATOM      6  C   UNL     1       6.212   4.155  15.942  0.00  0.00    +0.000 A 
ATOM      7  C   UNL     1       6.542   5.492  15.854  0.00  0.00    +0.000 A 
ATOM      8  N   UNL     1       5.782   6.493  16.352  0.00  0.00    +0.000 NA
ATOM      9  C   UNL     1       4.641   6.191  16.974  0.00  0.00    +0.000 A 
ATOM     10  N   UNL     1       3.903   7.186  17.472  0.00  0.00    +0.000 NA
ENDROOT
BRANCH   1  15
ATOM     11  C   UNL     1       1.132   9.286  20.609  0.00  0.00    +0.000 A 
ATOM     12  C   UNL     1       0.625  10.276  19.761  0.00  0.00    +0.000 A 
ATOM     13  C   UNL     1       0.813  10.177  18.386  0.00  0.00    +0.000 A 
ATOM     14  C   UNL     1       1.506   9.086  17.859  0.00  0.00    +0.000 A 
ATOM     15  C   UNL     1       2.032   8.075  18.685  0.00  0.00    +0.000 A 
ATOM     16  C   UNL     1       1.834   8.200  20.072  0.00  0.00    +0.000 A 
BRANCH  11  18
ATOM     17  N   UNL     1       0.754   9.461  23.169  0.00  0.00    +0.000 NA
ATOM     18  C   UNL     1       0.924   9.377  22.022  0.00  0.00    +0.000 C 
ENDBRANCH  11  18
ENDBRANCH   1  15
TORSDOF 2
ENDMDL
MODEL 6
REMARK VINA RESULT:      -7.0      1.879      2.574
REMARK  Name = 
REMARK  2 active torsions:
REMARK  status: ('A' for Active; 'I' for Inactive)
REMARK    1  A    between atoms: C_2  and  C_3
REMARK    2  A    between atoms: C_7  and  C_8
REMARK                            x       y       z     vdW  Elec       q    Type
REMARK                         _______ _______ _______ _____ _____    ______ ____
ROOT
ATOM      1  C   UNL     1       3.842   4.203  17.841  0.00  0.00    +0.000 A 
ATOM      2  C   UNL     1       2.558   4.273  17.315  0.00  0.00    +0.000 A 
ATOM      3  C   UNL     1       1.491   3.879  18.105  0.00  0.00    +0.000 A 
ATOM      4  C   UNL     1       1.736   3.418  19.399  0.00  0.00    +0.000 A 
ATOM      5  C   UNL     1       0.689   3.019  20.238  0.00  0.00    +0.000 A 
ATOM      6  C   UNL     1       0.977   2.567  21.515  0.00  0.00    +0.000 A 
ATOM      7  C   UNL     1       2.304   2.533  21.895  0.00  0.00    +0.000 A 
ATOM      8  N   UNL     1       3.328   2.912  21.099  0.00  0.00    +0.000 NA
ATOM      9  C   UNL     1       3.062   3.353  19.867  0.00  0.00    +0.000 A 
ATOM     10  N   UNL     1       4.081   3.736  19.093  0.00  0.00    +0.000 NA
ENDROOT
BRANCH   1  15
ATOM     11  C   UNL     1       6.842   6.255  16.742  0.00  0.00    +0.000 A 
ATOM     12  C   UNL     1       7.270   5.545  15.617  0.00  0.00    +0.000 A 
ATOM     13  C   UNL     1       6.591   4.397  15.220  0.00  0.00    +0.000 A 
ATOM     14  C   UNL     1       5.482   3.962  15.947  0.00  0.00    +0.000 A 
ATOM     15  C   UNL     1       5.029   4.652  17.087  0.00  0.00    +0.000 A 
ATOM     16  C   UNL     1       5.734   5.806  17.472  0.00  0.00    +0.000 A 
BRANCH  11  18
ATOM     17  N   UNL     1       8.080   8.412  17.477  0.00  0.00    +0.000 NA
ATOM     18  C   UNL     1       7.528   7.446  17.142  0.00  0.00    +0.000 C 
ENDBRANCH  11  18
ENDBRANCH   1  15
TORSDOF 2
ENDMDL
MODEL 7
REMARK VINA RESULT:      -7.0      4.166      5.326
REMARK  Name = 
REMARK  2 active torsions:
REMARK  status: ('A' for Active; 'I' for Inactive)
REMARK    1  A    between atoms: C_2  and  C_3
REMARK    2  A    between atoms: C_7  and  C_8
REMARK                            x       y       z     vdW  Elec       q    Type
REMARK                         _______ _______ _______ _____ _____    ______ ____
ROOT
ATOM      1  C   UNL     1       2.467   6.987  18.928  0.00  0.00    +0.000 A 
ATOM      2  C   UNL     1       2.074   6.773  20.244  0.00  0.00    +0.000 A 
ATOM      3  C   UNL     1       1.372   7.769  20.900  0.00  0.00    +0.000 A 
ATOM      4  C   UNL     1       1.086   8.957  20.227  0.00  0.00    +0.000 A 
ATOM      5  C   UNL     1       0.370   9.988  20.847  0.00  0.00    +0.000 A 
ATOM      6  C   UNL     1       0.109  11.151  20.142  0.00  0.00    +0.000 A 
ATOM      7  C   UNL     1       0.580  11.231  18.847  0.00  0.00    +0.000 A 
ATOM      8  N   UNL     1       1.275  10.248  18.233  0.00  0.00    +0.000 NA
ATOM      9  C   UNL     1       1.529   9.121  18.901  0.00  0.00    +0.000 A 
ATOM     10  N   UNL     1       2.206   8.151  18.281  0.00  0.00    +0.000 NA
ENDROOT
BRANCH   1  15
ATOM     11  C   UNL     1       5.089   5.262  16.790  0.00  0.00    +0.000 A 
ATOM     12  C   UNL     1       4.503   4.009  16.585  0.00  0.00    +0.000 A 
ATOM     13  C   UNL     1       3.263   3.722  17.147  0.00  0.00    +0.000 A 
ATOM     14  C   UNL     1       2.607   4.689  17.911  0.00  0.00    +0.000 A 
ATOM     15  C   UNL     1       3.172   5.958  18.139  0.00  0.00    +0.000 A 
ATOM     16  C   UNL     1       4.429   6.223  17.566  0.00  0.00    +0.000 A 
BRANCH  11  18
ATOM     17  N   UNL     1       7.386   5.803  15.714  0.00  0.00    +0.000 NA
ATOM     18  C   UNL     1       6.356   5.566  16.199  0.00  0.00    +0.000 C 
ENDBRANCH  11  18
ENDBRANCH   1  15
TORSDOF 2
ENDMDL
MODEL 8
REMARK VINA RESULT:      -7.0      1.361      1.829
REMARK  Name = 
REMARK  2 active torsions:
REMARK  status: ('A' for Active; 'I' for Inactive)
REMARK    1  A    between atoms: C_2  and  C_3
REMARK    2  A    between atoms: C_7  and  C_8
REMARK                            x       y       z     vdW  Elec       q    Type
REMARK                         _______ _______ _______ _____ _____    ______ ____
ROOT
ATOM      1  C   UNL     1       4.793   4.396  17.206  0.00  0.00    +0.000 A 
ATOM      2  C   UNL     1       5.239   4.845  18.444  0.00  0.00    +0.000 A 
ATOM      3  C   UNL     1       4.434   4.652  19.553  0.00  0.00    +0.000 A 
ATOM      4  C   UNL     1       3.199   4.022  19.396  0.00  0.00    +0.000 A 
ATOM      5  C   UNL     1       2.356   3.795  20.491  0.00  0.00    +0.000 A 
ATOM      6  C   UNL     1       1.138   3.167  20.290  0.00  0.00    +0.000 A 
ATOM      7  C   UNL     1       0.818   2.794  19.001  0.00  0.00    +0.000 A 
ATOM      8  N   UNL     1       1.618   3.005  17.932  0.00  0.00    +0.000 NA
ATOM      9  C   UNL     1       2.795   3.607  18.113  0.00  0.00    +0.000 A 
ATOM     10  N   UNL     1       3.583   3.801  17.052  0.00  0.00    +0.000 NA
ENDROOT
BRANCH   1  15
ATOM     11  C   UNL     1       6.032   3.926  13.648  0.00  0.00    +0.000 A 
ATOM     12  C   UNL     1       7.199   4.696  13.654  0.00  0.00    +0.000 A 
ATOM     13  C   UNL     1       7.579   5.372  14.809  0.00  0.00    +0.000 A 
ATOM     14  C   UNL     1       6.793   5.276  15.959  0.00  0.00    +0.000 A 
ATOM     15  C   UNL     1       5.610   4.513  15.983  0.00  0.00    +0.000 A 
ATOM     16  C   UNL     1       5.244   3.843  14.802  0.00  0.00    +0.000 A 
BRANCH  11  18
ATOM     17  N   UNL     1       5.346   2.630  11.508  0.00  0.00    +0.000 NA
ATOM     18  C   UNL     1       5.648   3.215  12.467  0.00  0.00    +0.000 C 
ENDBRANCH  11  18
ENDBRANCH   1  15
TORSDOF 2
ENDMDL
MODEL 9
REMARK VINA RESULT:      -6.9      4.532      6.758
REMARK  Name = 
REMARK  2 active torsions:
REMARK  status: ('A' for Active; 'I' for Inactive)
REMARK    1  A    between atoms: C_2  and  C_3
REMARK    2  A    between atoms: C_7  and  C_8
REMARK                            x       y       z     vdW  Elec       q    Type
REMARK                         _______ _______ _______ _____ _____    ______ ____
ROOT
ATOM      1  C   UNL     1       2.155   7.576  19.115  0.00  0.00    +0.000 A 
ATOM      2  C   UNL     1       2.282   8.284  17.925  0.00  0.00    +0.000 A 
ATOM      3  C   UNL     1       1.787   9.575  17.862  0.00  0.00    +0.000 A 
ATOM      4  C   UNL     1       1.170  10.124  18.987  0.00  0.00    +0.000 A 
ATOM      5  C   UNL     1       0.665  11.429  18.973  0.00  0.00    +0.000 A 
ATOM      6  C   UNL     1       0.060  11.934  20.112  0.00  0.00    +0.000 A 
ATOM      7  C   UNL     1      -0.013  11.107  21.215  0.00  0.00    +0.000 A 
ATOM      8  N   UNL     1       0.468   9.845  21.247  0.00  0.00    +0.000 NA
ATOM      9  C   UNL     1       1.057   9.349  20.156  0.00  0.00    +0.000 A 
ATOM     10  N   UNL     1       1.538   8.104  20.202  0.00  0.00    +0.000 NA
ENDROOT
BRANCH   1  15
ATOM     11  C   UNL     1       2.682   4.046  20.412  0.00  0.00    +0.000 A 
ATOM     12  C   UNL     1       3.776   3.627  19.648  0.00  0.00    +0.000 A 
ATOM     13  C   UNL     1       4.336   4.487  18.707  0.00  0.00    +0.000 A 
ATOM     14  C   UNL     1       3.804   5.766  18.534  0.00  0.00    +0.000 A 
ATOM     15  C   UNL     1       2.701   6.215  19.284  0.00  0.00    +0.000 A 
ATOM     16  C   UNL     1       2.149   5.327  20.225  0.00  0.00    +0.000 A 
BRANCH  11  18
ATOM     17  N   UNL     1       1.657   2.468  22.197  0.00  0.00    +0.000 NA
ATOM     18  C   UNL     1       2.115   3.171  21.392  0.00  0.00    +0.000 C 
ENDBRANCH  11  18
ENDBRANCH   1  15
TORSDOF 2
ENDMDL
