MODEL 1
REMARK VINA RESULT:      -8.0      0.000      0.000
REMARK  Name = 
REMARK  4 active torsions:
REMARK  status: ('A' for Active; 'I' for Inactive)
REMARK    1  A    between atoms: C_2  and  C_3
REMARK    2  A    between atoms: C_3  and  N_4
REMARK    3  A    between atoms: N_15  and  C_16
REMARK    4  A    between atoms: C_16  and  C_17
REMARK                            x       y       z     vdW  Elec       q    Type
REMARK                         _______ _______ _______ _____ _____    ______ ____
ROOT
ATOM      1  O   UNL     1       2.212   3.585  21.866  0.00  0.00    +0.000 OA
ATOM      2  C   UNL     1       2.276   3.929  20.683  0.00  0.00    +0.000 C 
ATOM      3  N   UNL     1       1.988   5.193  20.233  0.00  0.00    +0.000 N 
ATOM      4  H   UNL     1       1.759   5.288  19.246  0.00  0.00    +0.000 HD
ENDROOT
BRANCH   2   5
ATOM      5  C   UNL     1       2.637   2.929  19.583  0.00  0.00    +0.000 C 
BRANCH   5   6
ATOM      6  N   UNL     1       3.766   3.441  18.821  0.00  0.00    +0.000 N 
ATOM      7  C   UNL     1       4.948   3.736  19.455  0.00  0.00    +0.000 A 
ATOM      8  N   UNL     1       6.016   4.166  18.867  0.00  0.00    +0.000 NA
ATOM      9  C   UNL     1       5.970   4.325  17.475  0.00  0.00    +0.000 A 
ATOM     10  C   UNL     1       7.128   4.739  16.802  0.00  0.00    +0.000 A 
ATOM     11  C   UNL     1       7.122   4.907  15.417  0.00  0.00    +0.000 A 
ATOM     12  C   UNL     1       5.954   4.682  14.688  0.00  0.00    +0.000 A 
ATOM     13  C   UNL     1       4.794   4.270  15.343  0.00  0.00    +0.000 A 
ATOM     14  C   UNL     1       4.814   4.078  16.730  0.00  0.00    +0.000 A 
ATOM     15  C   UNL     1       3.629   3.581  17.450  0.00  0.00    +0.000 A 
ATOM     16  O   UNL     1       2.596   3.297  16.848  0.00  0.00    +0.000 OA
ENDBRANCH   5   6
ENDBRANCH   2   5
BRANCH   3  17
ATOM     17  C   UNL     1       1.506   6.242  21.118  0.00  0.00    +0.000 C 
BRANCH  17  18
ATOM     18  C   UNL     1       1.599   7.570  20.406  0.00  0.00    +0.000 A 
ATOM     19  C   UNL     1       2.140   7.647  19.099  0.00  0.00    +0.000 A 
ATOM     20  C   UNL     1       1.989   8.801  18.327  0.00  0.00    +0.000 A 
ATOM     21  C   UNL     1       1.269   9.838  18.878  0.00  0.00    +0.000 A 
ATOM     22  C   UNL     1       0.798   9.793  20.172  0.00  0.00    +0.000 A 
ATOM     23  C   UNL     1       0.974   8.690  20.974  0.00  0.00    +0.000 A 
ATOM     24  O   UNL     1       0.061  10.891  20.490  0.00  0.00    +0.000 OA
ATOM     25  C   UNL     1      -0.138  11.428  19.166  0.00  0.00    +0.000 C 
ATOM     26  O   UNL     1       0.855  10.962  18.226  0.00  0.00    +0.000 OA
ENDBRANCH  17  18
ENDBRANCH   3  17
TORSDOF 4
ENDMDL
MODEL 2
REMARK VINA RESULT:      -7.9      1.872      2.498
REMARK  Name = 
REMARK  4 active torsions:
REMARK  status: ('A' for Active; 'I' for Inactive)
REMARK    1  A    between atoms: C_2  and  C_3
REMARK    2  A    between atoms: C_3  and  N_4
REMARK    3  A    between atoms: N_15  and  C_16
REMARK    4  A    between atoms: C_16  and  C_17
REMARK                            x       y       z     vdW  Elec       q    Type
REMARK                         _______ _______ _______ _____ _____    ______ ____
ROOT
ATOM      1  O   UNL     1       1.035   3.479  18.580  0.00  0.00    +0.000 OA
ATOM      2  C   UNL     1       2.206   3.713  18.893  0.00  0.00    +0.000 C 
ATOM      3  N   UNL     1       2.576   4.525  19.935  0.00  0.00    +0.000 N 
ATOM      4  H   UNL     1       3.520   4.904  19.909  0.00  0.00    +0.000 HD
ENDROOT
BRANCH   2   5
ATOM      5  C   UNL     1       3.374   3.144  18.084  0.00  0.00    +0.000 C 
BRANCH   5   6
ATOM      6  N   UNL     1       4.334   4.205  17.817  0.00  0.00    +0.000 N 
ATOM      7  C   UNL     1       4.151   5.045  16.746  0.00  0.00    +0.000 A 
ATOM      8  N   UNL     1       4.925   6.034  16.442  0.00  0.00    +0.000 NA
ATOM      9  C   UNL     1       6.025   6.279  17.278  0.00  0.00    +0.000 A 
ATOM     10  C   UNL     1       6.853   7.375  17.005  0.00  0.00    +0.000 A 
ATOM     11  C   UNL     1       7.954   7.653  17.815  0.00  0.00    +0.000 A 
ATOM     12  C   UNL     1       8.253   6.827  18.898  0.00  0.00    +0.000 A 
ATOM     13  C   UNL     1       7.438   5.731  19.184  0.00  0.00    +0.000 A 
ATOM     14  C   UNL     1       6.320   5.474  18.382  0.00  0.00    +0.000 A 
ATOM     15  C   UNL     1       5.398   4.367  18.688  0.00  0.00    +0.000 A 
ATOM     16  O   UNL     1       5.572   3.653  19.672  0.00  0.00    +0.000 OA
ENDBRANCH   5   6
ENDBRANCH   2   5
BRANCH   3  17
ATOM     17  C   UNL     1       1.604   5.253  20.736  0.00  0.00    +0.000 C 
BRANCH  17  18
ATOM     18  C   UNL     1       1.674   6.719  20.385  0.00  0.00    +0.000 A 
ATOM     19  C   UNL     1       2.276   7.139  19.173  0.00  0.00    +0.000 A 
ATOM     20  C   UNL     1       2.114   8.446  18.706  0.00  0.00    +0.000 A 
ATOM     21  C   UNL     1       1.322   9.288  19.454  0.00  0.00    +0.000 A 
ATOM     22  C   UNL     1       0.790   8.905  20.666  0.00  0.00    +0.000 A 
ATOM     23  C   UNL     1       0.973   7.641  21.177  0.00  0.00    +0.000 A 
ATOM     24  O   UNL     1      -0.010   9.865  21.204  0.00  0.00    +0.000 OA
ATOM     25  C   UNL     1      -0.165  10.712  20.047  0.00  0.00    +0.000 C 
ATOM     26  O   UNL     1       0.893  10.528  19.081  0.00  0.00    +0.000 OA
ENDBRANCH  17  18
ENDBRANCH   3  17
TORSDOF 4
ENDMDL
MODEL 3
REMARK VINA RESULT:      -7.7      1.748      4.166
REMARK  Name = 
REMARK  4 active torsions:
REMARK  status: ('A' for Active; 'I' for Inactive)
REMARK    1  A    between atoms: C_2  and  C_3
REMARK    2  A    between atoms: C_3  and  N_4
REMARK    3  A    between atoms: N_15  and  C_16
REMARK    4  A    between atoms: C_16  and  C_17
REMARK                            x       y       z     vdW  Elec       q    Type
REMARK                         _______ _______ _______ _____ _____    ______ ____
ROOT
ATOM      1  O   UNL     1       5.363   6.328  15.315  0.00  0.00    +0.000 OA
ATOM      2  C   UNL     1       4.754   5.706  16.190  0.00  0.00    +0.000 C 
ATOM      3  N   UNL     1       3.921   6.290  17.111  0.00  0.00    +0.000 N 
ATOM      4  H   UNL     1       3.734   5.762  17.960  0.00  0.00    +0.000 HD
ENDROOT
BRANCH   2   5
ATOM      5  C   UNL     1       4.929   4.195  16.358  0.00  0.00    +0.000 C 
BRANCH   5   6
ATOM      6  N   UNL     1       4.358   3.786  17.634  0.00  0.00    +0.000 N 
ATOM      7  C   UNL     1       5.169   3.620  18.730  0.00  0.00    +0.000 A 
ATOM      8  N   UNL     1       4.760   3.291  19.910  0.00  0.00    +0.000 NA
ATOM      9  C   UNL     1       3.381   3.107  20.090  0.00  0.00    +0.000 A 
ATOM     10  C   UNL     1       2.900   2.802  21.370  0.00  0.00    +0.000 A 
ATOM     11  C   UNL     1       1.534   2.614  21.589  0.00  0.00    +0.000 A 
ATOM     12  C   UNL     1       0.634   2.711  20.528  0.00  0.00    +0.000 A 
ATOM     13  C   UNL     1       1.097   3.014  19.248  0.00  0.00    +0.000 A 
ATOM     14  C   UNL     1       2.465   3.227  19.041  0.00  0.00    +0.000 A 
ATOM     15  C   UNL     1       2.987   3.614  17.719  0.00  0.00    +0.000 A 
ATOM     16  O   UNL     1       2.230   3.785  16.766  0.00  0.00    +0.000 OA
ENDBRANCH   5   6
ENDBRANCH   2   5
BRANCH   3  17
ATOM     17  C   UNL     1       3.732   7.731  17.184  0.00  0.00    +0.000 C 
BRANCH  17  18
ATOM     18  C   UNL     1       2.644   8.035  18.184  0.00  0.00    +0.000 A 
ATOM     19  C   UNL     1       2.504   7.249  19.355  0.00  0.00    +0.000 A 
ATOM     20  C   UNL     1       1.691   7.670  20.410  0.00  0.00    +0.000 A 
ATOM     21  C   UNL     1       1.065   8.889  20.274  0.00  0.00    +0.000 A 
ATOM     22  C   UNL     1       1.145   9.626  19.112  0.00  0.00    +0.000 A 
ATOM     23  C   UNL     1       1.896   9.214  18.037  0.00  0.00    +0.000 A 
ATOM     24  O   UNL     1       0.507  10.823  19.217  0.00  0.00    +0.000 OA
ATOM     25  C   UNL     1       0.330  10.867  20.648  0.00  0.00    +0.000 C 
ATOM     26  O   UNL     1       0.388   9.556  21.252  0.00  0.00    +0.000 OA
ENDBRANCH  17  18
ENDBRANCH   3  17
TORSDOF 4
ENDMDL
MODEL 4
REMARK VINA RESULT:      -7.7      5.871      7.259
REMARK  Name = 
REMARK  4 active torsions:
REMARK  status: ('A' for Active; 'I' for Inactive)
REMARK    1  A    between atoms: C_2  and  C_3
REMARK    2  A    between atoms: C_3  and  N_4
REMARK    3  A    between atoms: N_15  and  C_16
REMARK    4  A    between atoms: C_16  and  C_17
REMARK                            x       y       z     vdW  Elec       q    Type
REMARK                         _______ _______ _______ _____ _____    ______ ____
ROOT
ATOM      1  O   UNL     1       7.992   6.344  18.683  0.00  0.00    +0.000 OA
ATOM      2  C   UNL     1       7.755   7.262  17.893  0.00  0.00    +0.000 C 
ATOM      3  N   UNL     1       8.197   8.551  18.057  0.00  0.00    +0.000 N 
ATOM      4  H   UNL     1       7.695   9.276  17.550  0.00  0.00    +0.000 HD
ENDROOT
BRANCH   2   5
ATOM      5  C   UNL     1       6.877   7.043  16.659  0.00  0.00    +0.000 C 
BRANCH   5   6
ATOM      6  N   UNL     1       5.626   6.418  17.066  0.00  0.00    +0.000 N 
ATOM      7  C   UNL     1       4.579   7.193  17.502  0.00  0.00    +0.000 A 
ATOM      8  N   UNL     1       3.421   6.741  17.856  0.00  0.00    +0.000 NA
ATOM      9  C   UNL     1       3.212   5.357  17.771  0.00  0.00    +0.000 A 
ATOM     10  C   UNL     1       1.951   4.841  18.096  0.00  0.00    +0.000 A 
ATOM     11  C   UNL     1       1.703   3.470  18.021  0.00  0.00    +0.000 A 
ATOM     12  C   UNL     1       2.719   2.594  17.638  0.00  0.00    +0.000 A 
ATOM     13  C   UNL     1       3.980   3.092  17.310  0.00  0.00    +0.000 A 
ATOM     14  C   UNL     1       4.214   4.471  17.363  0.00  0.00    +0.000 A 
ATOM     15  C   UNL     1       5.511   5.042  16.962  0.00  0.00    +0.000 A 
ATOM     16  O   UNL     1       6.417   4.324  16.547  0.00  0.00    +0.000 OA
ENDBRANCH   5   6
ENDBRANCH   2   5
BRANCH   3  17
ATOM     17  C   UNL     1       8.939   8.974  19.235  0.00  0.00    +0.000 C 
BRANCH  17  18
ATOM     18  C   UNL     1       9.223  10.453  19.135  0.00  0.00    +0.000 A 
ATOM     19  C   UNL     1       9.303  11.249  20.304  0.00  0.00    +0.000 A 
ATOM     20  C   UNL     1       9.824  12.544  20.256  0.00  0.00    +0.000 A 
ATOM     21  C   UNL     1      10.281  12.994  19.037  0.00  0.00    +0.000 A 
ATOM     22  C   UNL     1      10.144  12.249  17.886  0.00  0.00    +0.000 A 
ATOM     23  C   UNL     1       9.590  10.991  17.893  0.00  0.00    +0.000 A 
ATOM     24  O   UNL     1      10.720  12.852  16.811  0.00  0.00    +0.000 OA
ATOM     25  C   UNL     1      11.495  13.857  17.497  0.00  0.00    +0.000 C 
ATOM     26  O   UNL     1      10.986  14.141  18.819  0.00  0.00    +0.000 OA
ENDBRANCH  17  18
ENDBRANCH   3  17
TORSDOF 4
ENDMDL
MODEL 5
REMARK VINA RESULT:      -7.7      3.132      8.200
REMARK  Name = 
REMARK  4 active torsions:
REMARK  status: ('A' for Active; 'I' for Inactive)
REMARK    1  A    between atoms: C_2  and  C_3
REMARK    2  A    between atoms: C_3  and  N_4
REMARK    3  A    between atoms: N_15  and  C_16
REMARK    4  A    between atoms: C_16  and  C_17
REMARK                            x       y       z     vdW  Elec       q    Type
REMARK                         _______ _______ _______ _____ _____    ______ ____
ROOT
ATOM      1  O   UNL     1      -0.150   8.694  21.682  0.00  0.00    +0.000 OA
ATOM      2  C   UNL     1       0.683   8.992  20.823  0.00  0.00    +0.000 C 
ATOM      3  N   UNL     1       1.645   8.131  20.353  0.00  0.00    +0.000 N 
ATOM      4  H   UNL     1       2.457   8.551  19.908  0.00  0.00    +0.000 HD
ENDROOT
BRANCH   2   5
ATOM      5  C   UNL     1       0.751  10.403  20.235  0.00  0.00    +0.000 C 
BRANCH   5   6
ATOM      6  N   UNL     1      -0.488  10.685  19.524  0.00  0.00    +0.000 N 
ATOM      7  C   UNL     1      -1.421  11.530  20.075  0.00  0.00    +0.000 A 
ATOM      8  N   UNL     1      -2.534  11.869  19.514  0.00  0.00    +0.000 NA
ATOM      9  C   UNL     1      -2.803  11.349  18.239  0.00  0.00    +0.000 A 
ATOM     10  C   UNL     1      -3.977  11.740  17.582  0.00  0.00    +0.000 A 
ATOM     11  C   UNL     1      -4.278  11.247  16.312  0.00  0.00    +0.000 A 
ATOM     12  C   UNL     1      -3.418  10.342  15.689  0.00  0.00    +0.000 A 
ATOM     13  C   UNL     1      -2.244   9.944  16.330  0.00  0.00    +0.000 A 
ATOM     14  C   UNL     1      -1.936  10.463  17.593  0.00  0.00    +0.000 A 
ATOM     15  C   UNL     1      -0.677  10.119  18.275  0.00  0.00    +0.000 A 
ATOM     16  O   UNL     1       0.151   9.385  17.741  0.00  0.00    +0.000 OA
ENDBRANCH   5   6
ENDBRANCH   2   5
BRANCH   3  17
ATOM     17  C   UNL     1       1.813   6.789  20.887  0.00  0.00    +0.000 C 
BRANCH  17  18
ATOM     18  C   UNL     1       2.112   5.840  19.752  0.00  0.00    +0.000 A 
ATOM     19  C   UNL     1       2.926   6.251  18.668  0.00  0.00    +0.000 A 
ATOM     20  C   UNL     1       3.430   5.321  17.756  0.00  0.00    +0.000 A 
ATOM     21  C   UNL     1       3.129   3.996  17.977  0.00  0.00    +0.000 A 
ATOM     22  C   UNL     1       2.283   3.598  18.990  0.00  0.00    +0.000 A 
ATOM     23  C   UNL     1       1.731   4.495  19.873  0.00  0.00    +0.000 A 
ATOM     24  O   UNL     1       2.174   2.244  19.068  0.00  0.00    +0.000 OA
ATOM     25  C   UNL     1       3.287   1.874  18.228  0.00  0.00    +0.000 C 
ATOM     26  O   UNL     1       3.669   2.930  17.319  0.00  0.00    +0.000 OA
ENDBRANCH  17  18
ENDBRANCH   3  17
TORSDOF 4
ENDMDL
MODEL 6
REMARK VINA RESULT:      -7.6      5.530      6.776
REMARK  Name = 
REMARK  4 active torsions:
REMARK  status: ('A' for Active; 'I' for Inactive)
REMARK    1  A    between atoms: C_2  and  C_3
REMARK    2  A    between atoms: C_3  and  N_4
REMARK    3  A    between atoms: N_15  and  C_16
REMARK    4  A    between atoms: C_16  and  C_17
REMARK                            x       y       z     vdW  Elec       q    Type
REMARK                         _______ _______ _______ _____ _____    ______ ____
ROOT
ATOM      1  O   UNL     1       7.719   6.293  18.650  0.00  0.00    +0.000 OA
ATOM      2  C   UNL     1       7.522   7.152  17.785  0.00  0.00    +0.000 C 
ATOM      3  N   UNL     1       8.043   8.421  17.829  0.00  0.00    +0.000 N 
ATOM      4  H   UNL     1       7.575   9.128  17.267  0.00  0.00    +0.000 HD
ENDROOT
BRANCH   2   5
ATOM      5  C   UNL     1       6.608   6.881  16.588  0.00  0.00    +0.000 C 
BRANCH   5   6
ATOM      6  N   UNL     1       5.390   6.234  17.053  0.00  0.00    +0.000 N 
ATOM      7  C   UNL     1       4.338   6.991  17.509  0.00  0.00    +0.000 A 
ATOM      8  N   UNL     1       3.206   6.517  17.913  0.00  0.00    +0.000 NA
ATOM      9  C   UNL     1       3.031   5.126  17.865  0.00  0.00    +0.000 A 
ATOM     10  C   UNL     1       1.795   4.586  18.246  0.00  0.00    +0.000 A 
ATOM     11  C   UNL     1       1.582   3.207  18.211  0.00  0.00    +0.000 A 
ATOM     12  C   UNL     1       2.607   2.350  17.811  0.00  0.00    +0.000 A 
ATOM     13  C   UNL     1       3.842   2.872  17.428  0.00  0.00    +0.000 A 
ATOM     14  C   UNL     1       4.040   4.258  17.442  0.00  0.00    +0.000 A 
ATOM     15  C   UNL     1       5.307   4.853  16.984  0.00  0.00    +0.000 A 
ATOM     16  O   UNL     1       6.217   4.149  16.552  0.00  0.00    +0.000 OA
ENDBRANCH   5   6
ENDBRANCH   2   5
BRANCH   3  17
ATOM     17  C   UNL     1       8.831   8.899  18.955  0.00  0.00    +0.000 C 
BRANCH  17  18
ATOM     18  C   UNL     1       9.117  10.369  18.768  0.00  0.00    +0.000 A 
ATOM     19  C   UNL     1       8.552  11.077  17.679  0.00  0.00    +0.000 A 
ATOM     20  C   UNL     1       8.582  12.474  17.638  0.00  0.00    +0.000 A 
ATOM     21  C   UNL     1       9.151  13.123  18.711  0.00  0.00    +0.000 A 
ATOM     22  C   UNL     1       9.760  12.438  19.740  0.00  0.00    +0.000 A 
ATOM     23  C   UNL     1       9.792  11.064  19.783  0.00  0.00    +0.000 A 
ATOM     24  O   UNL     1      10.198  13.269  20.724  0.00  0.00    +0.000 OA
ATOM     25  C   UNL     1       9.497  14.470  20.341  0.00  0.00    +0.000 C 
ATOM     26  O   UNL     1       9.113  14.466  18.948  0.00  0.00    +0.000 OA
ENDBRANCH  17  18
ENDBRANCH   3  17
TORSDOF 4
ENDMDL
MODEL 7
REMARK VINA RESULT:      -7.6      5.677      7.044
REMARK  Name = 
REMARK  4 active torsions:
REMARK  status: ('A' for Active; 'I' for Inactive)
REMARK    1  A    between atoms: C_2  and  C_3
REMARK    2  A    between atoms: C_3  and  N_4
REMARK    3  A    between atoms: N_15  and  C_16
REMARK    4  A    between atoms: C_16  and  C_17
REMARK                            x       y       z     vdW  Elec       q    Type
REMARK                         _______ _______ _______ _____ _____    ______ ____
ROOT
ATOM      1  O   UNL     1       7.495   6.274  18.527  0.00  0.00    +0.000 OA
ATOM      2  C   UNL     1       7.309   7.240  17.782  0.00  0.00    +0.000 C 
ATOM      3  N   UNL     1       7.977   8.435  17.890  0.00  0.00    +0.000 N 
ATOM      4  H   UNL     1       7.539   9.245  17.461  0.00  0.00    +0.000 HD
ENDROOT
BRANCH   2   5
ATOM      5  C   UNL     1       6.247   7.203  16.681  0.00  0.00    +0.000 C 
BRANCH   5   6
ATOM      6  N   UNL     1       5.403   6.032  16.868  0.00  0.00    +0.000 N 
ATOM      7  C   UNL     1       5.860   4.788  16.507  0.00  0.00    +0.000 A 
ATOM      8  N   UNL     1       5.204   3.685  16.659  0.00  0.00    +0.000 NA
ATOM      9  C   UNL     1       3.937   3.762  17.256  0.00  0.00    +0.000 A 
ATOM     10  C   UNL     1       3.224   2.578  17.484  0.00  0.00    +0.000 A 
ATOM     11  C   UNL     1       1.961   2.614  18.078  0.00  0.00    +0.000 A 
ATOM     12  C   UNL     1       1.388   3.834  18.435  0.00  0.00    +0.000 A 
ATOM     13  C   UNL     1       2.086   5.022  18.215  0.00  0.00    +0.000 A 
ATOM     14  C   UNL     1       3.363   4.976  17.643  0.00  0.00    +0.000 A 
ATOM     15  C   UNL     1       4.160   6.201  17.454  0.00  0.00    +0.000 A 
ATOM     16  O   UNL     1       3.735   7.295  17.817  0.00  0.00    +0.000 OA
ENDBRANCH   5   6
ENDBRANCH   2   5
BRANCH   3  17
ATOM     17  C   UNL     1       8.932   8.697  18.956  0.00  0.00    +0.000 C 
BRANCH  17  18
ATOM     18  C   UNL     1       9.114  10.188  19.099  0.00  0.00    +0.000 A 
ATOM     19  C   UNL     1       9.294  10.770  20.379  0.00  0.00    +0.000 A 
ATOM     20  C   UNL     1       9.728  12.091  20.512  0.00  0.00    +0.000 A 
ATOM     21  C   UNL     1      10.003  12.783  19.354  0.00  0.00    +0.000 A 
ATOM     22  C   UNL     1       9.766  12.244  18.107  0.00  0.00    +0.000 A 
ATOM     23  C   UNL     1       9.292  10.964  17.944  0.00  0.00    +0.000 A 
ATOM     24  O   UNL     1      10.167  13.072  17.104  0.00  0.00    +0.000 OA
ATOM     25  C   UNL     1      10.962  13.998  17.872  0.00  0.00    +0.000 C 
ATOM     26  O   UNL     1      10.606  14.004  19.273  0.00  0.00    +0.000 OA
ENDBRANCH  17  18
ENDBRANCH   3  17
TORSDOF 4
ENDMDL
MODEL 8
REMARK VINA RESULT:      -7.6      5.714      7.158
REMARK  Name = 
REMARK  4 active torsions:
REMARK  status: ('A' for Active; 'I' for Inactive)
REMARK    1  A    between atoms: C_2  and  C_3
REMARK    2  A    between atoms: C_3  and  N_4
REMARK    3  A    between atoms: N_15  and  C_16
REMARK    4  A    between atoms: C_16  and  C_17
REMARK                            x       y       z     vdW  Elec       q    Type
REMARK                         _______ _______ _______ _____ _____    ______ ____
ROOT
ATOM      1  O   UNL     1       7.669   6.854  16.446  0.00  0.00    +0.000 OA
ATOM      2  C   UNL     1       7.611   7.085  17.657  0.00  0.00    +0.000 C 
ATOM      3  N   UNL     1       7.937   8.290  18.227  0.00  0.00    +0.000 N 
ATOM      4  H   UNL     1       8.166   8.282  19.218  0.00  0.00    +0.000 HD
ENDROOT
BRANCH   2   5
ATOM      5  C   UNL     1       7.214   5.996  18.656  0.00  0.00    +0.000 C 
BRANCH   5   6
ATOM      6  N   UNL     1       5.807   5.669  18.474  0.00  0.00    +0.000 N 
ATOM      7  C   UNL     1       4.989   6.516  17.767  0.00  0.00    +0.000 A 
ATOM      8  N   UNL     1       3.738   6.305  17.524  0.00  0.00    +0.000 NA
ATOM      9  C   UNL     1       3.177   5.111  18.002  0.00  0.00    +0.000 A 
ATOM     10  C   UNL     1       1.837   4.827  17.709  0.00  0.00    +0.000 A 
ATOM     11  C   UNL     1       1.244   3.649  18.165  0.00  0.00    +0.000 A 
ATOM     12  C   UNL     1       1.978   2.748  18.936  0.00  0.00    +0.000 A 
ATOM     13  C   UNL     1       3.314   3.016  19.236  0.00  0.00    +0.000 A 
ATOM     14  C   UNL     1       3.909   4.187  18.753  0.00  0.00    +0.000 A 
ATOM     15  C   UNL     1       5.334   4.475  18.992  0.00  0.00    +0.000 A 
ATOM     16  O   UNL     1       6.046   3.681  19.602  0.00  0.00    +0.000 OA
ENDBRANCH   5   6
ENDBRANCH   2   5
BRANCH   3  17
ATOM     17  C   UNL     1       8.457   9.403  17.447  0.00  0.00    +0.000 C 
BRANCH  17  18
ATOM     18  C   UNL     1       8.856  10.518  18.383  0.00  0.00    +0.000 A 
ATOM     19  C   UNL     1       9.288  10.228  19.701  0.00  0.00    +0.000 A 
ATOM     20  C   UNL     1       9.910  11.204  20.483  0.00  0.00    +0.000 A 
ATOM     21  C   UNL     1      10.110  12.439  19.907  0.00  0.00    +0.000 A 
ATOM     22  C   UNL     1       9.632  12.745  18.651  0.00  0.00    +0.000 A 
ATOM     23  C   UNL     1       8.972  11.821  17.877  0.00  0.00    +0.000 A 
ATOM     24  O   UNL     1       9.997  13.994  18.252  0.00  0.00    +0.000 OA
ATOM     25  C   UNL     1      11.008  14.268  19.244  0.00  0.00    +0.000 C 
ATOM     26  O   UNL     1      10.854  13.456  20.429  0.00  0.00    +0.000 OA
ENDBRANCH  17  18
ENDBRANCH   3  17
TORSDOF 4
ENDMDL
MODEL 9
REMARK VINA RESULT:      -7.5      4.956      6.627
REMARK  Name = 
REMARK  4 active torsions:
REMARK  status: ('A' for Active; 'I' for Inactive)
REMARK    1  A    between atoms: C_2  and  C_3
REMARK    2  A    between atoms: C_3  and  N_4
REMARK    3  A    between atoms: N_15  and  C_16
REMARK    4  A    between atoms: C_16  and  C_17
REMARK                            x       y       z     vdW  Elec       q    Type
REMARK                         _______ _______ _______ _____ _____    ______ ____
ROOT
ATOM      1  O   UNL     1       7.482   5.698  16.744  0.00  0.00    +0.000 OA
ATOM      2  C   UNL     1       6.787   6.717  16.754  0.00  0.00    +0.000 C 
ATOM      3  N   UNL     1       7.154   7.894  17.359  0.00  0.00    +0.000 N 
ATOM      4  H   UNL     1       6.407   8.544  17.590  0.00  0.00    +0.000 HD
ENDROOT
BRANCH   2   5
ATOM      5  C   UNL     1       5.392   6.736  16.124  0.00  0.00    +0.000 C 
BRANCH   5   6
ATOM      6  N   UNL     1       4.454   6.073  17.018  0.00  0.00    +0.000 N 
ATOM      7  C   UNL     1       3.809   6.791  17.995  0.00  0.00    +0.000 A 
ATOM      8  N   UNL     1       2.938   6.305  18.817  0.00  0.00    +0.000 NA
ATOM      9  C   UNL     1       2.613   4.946  18.690  0.00  0.00    +0.000 A 
ATOM     10  C   UNL     1       1.634   4.403  19.531  0.00  0.00    +0.000 A 
ATOM     11  C   UNL     1       1.282   3.056  19.433  0.00  0.00    +0.000 A 
ATOM     12  C   UNL     1       1.918   2.231  18.506  0.00  0.00    +0.000 A 
ATOM     13  C   UNL     1       2.895   2.757  17.661  0.00  0.00    +0.000 A 
ATOM     14  C   UNL     1       3.224   4.115  17.747  0.00  0.00    +0.000 A 
ATOM     15  C   UNL     1       4.203   4.724  16.830  0.00  0.00    +0.000 A 
ATOM     16  O   UNL     1       4.739   4.061  15.946  0.00  0.00    +0.000 OA
ENDBRANCH   5   6
ENDBRANCH   2   5
BRANCH   3  17
ATOM     17  C   UNL     1       8.390   8.025  18.116  0.00  0.00    +0.000 C 
BRANCH  17  18
ATOM     18  C   UNL     1       8.557   9.463  18.543  0.00  0.00    +0.000 A 
ATOM     19  C   UNL     1       9.257   9.781  19.733  0.00  0.00    +0.000 A 
ATOM     20  C   UNL     1       9.653  11.093  20.003  0.00  0.00    +0.000 A 
ATOM     21  C   UNL     1       9.361  12.047  19.054  0.00  0.00    +0.000 A 
ATOM     22  C   UNL     1       8.623  11.755  17.927  0.00  0.00    +0.000 A 
ATOM     23  C   UNL     1       8.177  10.482  17.658  0.00  0.00    +0.000 A 
ATOM     24  O   UNL     1       8.508  12.825  17.094  0.00  0.00    +0.000 OA
ATOM     25  C   UNL     1       9.522  13.675  17.669  0.00  0.00    +0.000 C 
ATOM     26  O   UNL     1       9.818  13.332  19.041  0.00  0.00    +0.000 OA
ENDBRANCH  17  18
ENDBRANCH   3  17
TORSDOF 4
ENDMDL
