MODEL 1
REMARK VINA RESULT:      -8.5      0.000      0.000
REMARK  Name = 
REMARK  3 active torsions:
REMARK  status: ('A' for Active; 'I' for Inactive)
REMARK    1  A    between atoms: C_6  and  C_7
REMARK    2  A    between atoms: C_10  and  C_11
REMARK    3  A    between atoms: C_17  and  C_18
REMARK                            x       y       z     vdW  Elec       q    Type
REMARK                         _______ _______ _______ _____ _____    ______ ____
ROOT
ATOM      1  C   UNL     1       1.048   9.281  20.416  0.00  0.00    +0.000 A 
ATOM      2  C   UNL     1       1.347   9.875  19.188  0.00  0.00    +0.000 A 
ATOM      3  N   UNL     1       1.990   9.287  18.143  0.00  0.00    +0.000 NA
ATOM      4  C   UNL     1       2.348   8.011  18.396  0.00  0.00    +0.000 A 
ATOM      5  O   UNL     1       3.012   7.200  17.523  0.00  0.00    +0.000 OA
ATOM      6  N   UNL     1       3.236   5.958  18.112  0.00  0.00    +0.000 NA
ATOM      7  C   UNL     1       2.694   6.033  19.335  0.00  0.00    +0.000 A 
ATOM      8  C   UNL     1       2.117   7.305  19.561  0.00  0.00    +0.000 A 
ATOM      9  C   UNL     1       1.444   7.950  20.607  0.00  0.00    +0.000 A 
ENDROOT
BRANCH   1  13
ATOM     10  C   UNL     1      -0.969  11.342  22.414  0.00  0.00    +0.000 A 
ATOM     11  N   UNL     1      -0.430  10.643  23.387  0.00  0.00    +0.000 NA
ATOM     12  N   UNL     1       0.426   9.750  22.790  0.00  0.00    +0.000 NA
ATOM     13  C   UNL     1       0.356   9.965  21.491  0.00  0.00    +0.000 A 
ATOM     14  O   UNL     1      -0.516  10.975  21.173  0.00  0.00    +0.000 OA
BRANCH  10  20
ATOM     15  O   UNL     1      -4.130  14.444  23.880  0.00  0.00    +0.000 OA
ATOM     16  S   UNL     1      -4.372  13.239  23.113  0.00  0.00    +0.000 S 
ATOM     17  O   UNL     1      -5.641  12.546  23.130  0.00  0.00    +0.000 OA
ATOM     18  C   UNL     1      -3.883  13.542  21.422  0.00  0.00    +0.000 C 
ATOM     19  C   UNL     1      -2.708  12.609  21.155  0.00  0.00    +0.000 C 
ATOM     20  C   UNL     1      -1.981  12.415  22.493  0.00  0.00    +0.000 C 
ATOM     21  C   UNL     1      -3.078  12.078  23.498  0.00  0.00    +0.000 C 
ENDBRANCH  10  20
ENDBRANCH   1  13
BRANCH   7  22
ATOM     22  C   UNL     1       2.755   4.911  20.314  0.00  0.00    +0.000 C 
ATOM     23  C   UNL     1       1.427   4.313  20.767  0.00  0.00    +0.000 C 
ATOM     24  C   UNL     1       1.851   3.019  21.457  0.00  0.00    +0.000 C 
ATOM     25  C   UNL     1       3.117   2.558  20.732  0.00  0.00    +0.000 C 
ATOM     26  C   UNL     1       3.495   3.685  19.776  0.00  0.00    +0.000 C 
ENDBRANCH   7  22
TORSDOF 3
ENDMDL
MODEL 2
REMARK VINA RESULT:      -8.4      2.567      3.746
REMARK  Name = 
REMARK  3 active torsions:
REMARK  status: ('A' for Active; 'I' for Inactive)
REMARK    1  A    between atoms: C_6  and  C_7
REMARK    2  A    between atoms: C_10  and  C_11
REMARK    3  A    between atoms: C_17  and  C_18
REMARK                            x       y       z     vdW  Elec       q    Type
REMARK                         _______ _______ _______ _____ _____    ______ ____
ROOT
ATOM      1  C   UNL     1       3.019   7.511  17.858  0.00  0.00    +0.000 A 
ATOM      2  C   UNL     1       4.098   7.578  16.975  0.00  0.00    +0.000 A 
ATOM      3  N   UNL     1       4.874   6.537  16.568  0.00  0.00    +0.000 NA
ATOM      4  C   UNL     1       4.510   5.362  17.120  0.00  0.00    +0.000 A 
ATOM      5  O   UNL     1       5.125   4.167  16.890  0.00  0.00    +0.000 OA
ATOM      6  N   UNL     1       4.505   3.165  17.633  0.00  0.00    +0.000 NA
ATOM      7  C   UNL     1       3.512   3.770  18.298  0.00  0.00    +0.000 A 
ATOM      8  C   UNL     1       3.468   5.154  18.006  0.00  0.00    +0.000 A 
ATOM      9  C   UNL     1       2.692   6.256  18.390  0.00  0.00    +0.000 A 
ENDROOT
BRANCH   1  13
ATOM     10  C   UNL     1       0.887   9.821  19.415  0.00  0.00    +0.000 A 
ATOM     11  N   UNL     1       1.289  10.599  18.437  0.00  0.00    +0.000 NA
ATOM     12  N   UNL     1       2.160   9.850  17.683  0.00  0.00    +0.000 NA
ATOM     13  C   UNL     1       2.230   8.662  18.250  0.00  0.00    +0.000 A 
ATOM     14  O   UNL     1       1.436   8.566  19.366  0.00  0.00    +0.000 OA
BRANCH  10  20
ATOM     15  O   UNL     1      -2.361  11.725  22.171  0.00  0.00    +0.000 OA
ATOM     16  S   UNL     1      -0.924  11.774  22.344  0.00  0.00    +0.000 S 
ATOM     17  O   UNL     1      -0.263  12.829  23.079  0.00  0.00    +0.000 OA
ATOM     18  C   UNL     1      -0.379  10.189  22.962  0.00  0.00    +0.000 C 
ATOM     19  C   UNL     1       0.500   9.595  21.867  0.00  0.00    +0.000 C 
ATOM     20  C   UNL     1      -0.030  10.133  20.531  0.00  0.00    +0.000 C 
ATOM     21  C   UNL     1      -0.174  11.637  20.735  0.00  0.00    +0.000 C 
ENDBRANCH  10  20
ENDBRANCH   1  13
BRANCH   7  22
ATOM     22  C   UNL     1       2.620   3.046  19.248  0.00  0.00    +0.000 C 
ATOM     23  C   UNL     1       2.769   3.378  20.729  0.00  0.00    +0.000 C 
ATOM     24  C   UNL     1       1.522   2.753  21.348  0.00  0.00    +0.000 C 
ATOM     25  C   UNL     1       0.439   2.830  20.269  0.00  0.00    +0.000 C 
ATOM     26  C   UNL     1       1.135   3.321  19.003  0.00  0.00    +0.000 C 
ENDBRANCH   7  22
TORSDOF 3
ENDMDL
MODEL 3
REMARK VINA RESULT:      -8.4      4.032      8.951
REMARK  Name = 
REMARK  3 active torsions:
REMARK  status: ('A' for Active; 'I' for Inactive)
REMARK    1  A    between atoms: C_6  and  C_7
REMARK    2  A    between atoms: C_10  and  C_11
REMARK    3  A    between atoms: C_17  and  C_18
REMARK                            x       y       z     vdW  Elec       q    Type
REMARK                         _______ _______ _______ _____ _____    ______ ____
ROOT
ATOM      1  C   UNL     1       0.993   9.129  20.103  0.00  0.00    +0.000 A 
ATOM      2  C   UNL     1       1.084   9.666  21.389  0.00  0.00    +0.000 A 
ATOM      3  N   UNL     1       0.325  10.674  21.898  0.00  0.00    +0.000 NA
ATOM      4  C   UNL     1      -0.573  11.155  21.014  0.00  0.00    +0.000 A 
ATOM      5  O   UNL     1      -1.448  12.171  21.264  0.00  0.00    +0.000 OA
ATOM      6  N   UNL     1      -2.216  12.422  20.130  0.00  0.00    +0.000 NA
ATOM      7  C   UNL     1      -1.799  11.545  19.208  0.00  0.00    +0.000 A 
ATOM      8  C   UNL     1      -0.768  10.719  19.716  0.00  0.00    +0.000 A 
ATOM      9  C   UNL     1       0.033   9.673  19.239  0.00  0.00    +0.000 A 
ENDROOT
BRANCH   1  13
ATOM     10  C   UNL     1       2.758   6.140  19.597  0.00  0.00    +0.000 A 
ATOM     11  N   UNL     1       3.157   6.755  18.507  0.00  0.00    +0.000 NA
ATOM     12  N   UNL     1       2.558   7.991  18.523  0.00  0.00    +0.000 NA
ATOM     13  C   UNL     1       1.833   8.050  19.623  0.00  0.00    +0.000 A 
ATOM     14  O   UNL     1       1.914   6.899  20.366  0.00  0.00    +0.000 OA
BRANCH  10  20
ATOM     15  O   UNL     1       4.832   2.050  20.457  0.00  0.00    +0.000 OA
ATOM     16  S   UNL     1       3.721   2.301  19.562  0.00  0.00    +0.000 S 
ATOM     17  O   UNL     1       3.427   1.451  18.429  0.00  0.00    +0.000 OA
ATOM     18  C   UNL     1       2.245   2.513  20.545  0.00  0.00    +0.000 C 
ATOM     19  C   UNL     1       1.804   3.956  20.328  0.00  0.00    +0.000 C 
ATOM     20  C   UNL     1       3.075   4.773  20.060  0.00  0.00    +0.000 C 
ATOM     21  C   UNL     1       3.840   3.986  19.001  0.00  0.00    +0.000 C 
ENDBRANCH  10  20
ENDBRANCH   1  13
BRANCH   7  22
ATOM     22  C   UNL     1      -2.347  11.509  17.822  0.00  0.00    +0.000 C 
ATOM     23  C   UNL     1      -2.013  10.285  16.976  0.00  0.00    +0.000 C 
ATOM     24  C   UNL     1      -2.982  10.405  15.802  0.00  0.00    +0.000 C 
ATOM     25  C   UNL     1      -4.228  11.096  16.361  0.00  0.00    +0.000 C 
ATOM     26  C   UNL     1      -3.876  11.523  17.783  0.00  0.00    +0.000 C 
ENDBRANCH   7  22
TORSDOF 3
ENDMDL
MODEL 4
REMARK VINA RESULT:      -8.3      2.944      4.647
REMARK  Name = 
REMARK  3 active torsions:
REMARK  status: ('A' for Active; 'I' for Inactive)
REMARK    1  A    between atoms: C_6  and  C_7
REMARK    2  A    between atoms: C_10  and  C_11
REMARK    3  A    between atoms: C_17  and  C_18
REMARK                            x       y       z     vdW  Elec       q    Type
REMARK                         _______ _______ _______ _____ _____    ______ ____
ROOT
ATOM      1  C   UNL     1       2.484   6.869  19.088  0.00  0.00    +0.000 A 
ATOM      2  C   UNL     1       1.963   6.242  20.222  0.00  0.00    +0.000 A 
ATOM      3  N   UNL     1       2.278   4.998  20.672  0.00  0.00    +0.000 NA
ATOM      4  C   UNL     1       3.180   4.368  19.892  0.00  0.00    +0.000 A 
ATOM      5  O   UNL     1       3.659   3.111  20.111  0.00  0.00    +0.000 OA
ATOM      6  N   UNL     1       4.559   2.766  19.105  0.00  0.00    +0.000 NA
ATOM      7  C   UNL     1       4.618   3.829  18.292  0.00  0.00    +0.000 A 
ATOM      8  C   UNL     1       3.772   4.869  18.747  0.00  0.00    +0.000 A 
ATOM      9  C   UNL     1       3.421   6.158  18.326  0.00  0.00    +0.000 A 
ENDROOT
BRANCH   1  13
ATOM     10  C   UNL     1       1.231  10.132  18.788  0.00  0.00    +0.000 A 
ATOM     11  N   UNL     1       1.823  10.073  17.617  0.00  0.00    +0.000 NA
ATOM     12  N   UNL     1       2.391   8.825  17.536  0.00  0.00    +0.000 NA
ATOM     13  C   UNL     1       2.106   8.203  18.663  0.00  0.00    +0.000 A 
ATOM     14  O   UNL     1       1.360   8.977  19.515  0.00  0.00    +0.000 OA
BRANCH  10  20
ATOM     15  O   UNL     1       0.044  13.983  21.139  0.00  0.00    +0.000 OA
ATOM     16  S   UNL     1      -0.253  12.611  21.494  0.00  0.00    +0.000 S 
ATOM     17  O   UNL     1      -0.495  12.194  22.857  0.00  0.00    +0.000 OA
ATOM     18  C   UNL     1      -1.584  12.036  20.452  0.00  0.00    +0.000 C 
ATOM     19  C   UNL     1      -0.991  10.924  19.594  0.00  0.00    +0.000 C 
ATOM     20  C   UNL     1       0.494  11.258  19.399  0.00  0.00    +0.000 C 
ATOM     21  C   UNL     1       1.018  11.578  20.795  0.00  0.00    +0.000 C 
ENDBRANCH  10  20
ENDBRANCH   1  13
BRANCH   7  22
ATOM     22  C   UNL     1       5.449   3.853  17.055  0.00  0.00    +0.000 C 
ATOM     23  C   UNL     1       4.775   4.338  15.776  0.00  0.00    +0.000 C 
ATOM     24  C   UNL     1       5.952   4.561  14.831  0.00  0.00    +0.000 C 
ATOM     25  C   UNL     1       7.128   4.970  15.722  0.00  0.00    +0.000 C 
ATOM     26  C   UNL     1       6.654   4.789  17.161  0.00  0.00    +0.000 C 
ENDBRANCH   7  22
TORSDOF 3
ENDMDL
MODEL 5
REMARK VINA RESULT:      -8.3      1.175      1.367
REMARK  Name = 
REMARK  3 active torsions:
REMARK  status: ('A' for Active; 'I' for Inactive)
REMARK    1  A    between atoms: C_6  and  C_7
REMARK    2  A    between atoms: C_10  and  C_11
REMARK    3  A    between atoms: C_17  and  C_18
REMARK                            x       y       z     vdW  Elec       q    Type
REMARK                         _______ _______ _______ _____ _____    ______ ____
ROOT
ATOM      1  C   UNL     1       1.016   9.340  20.461  0.00  0.00    +0.000 A 
ATOM      2  C   UNL     1       1.285   9.953  19.236  0.00  0.00    +0.000 A 
ATOM      3  N   UNL     1       1.911   9.386  18.170  0.00  0.00    +0.000 NA
ATOM      4  C   UNL     1       2.286   8.110  18.397  0.00  0.00    +0.000 A 
ATOM      5  O   UNL     1       2.938   7.317  17.500  0.00  0.00    +0.000 OA
ATOM      6  N   UNL     1       3.185   6.069  18.067  0.00  0.00    +0.000 NA
ATOM      7  C   UNL     1       2.668   6.122  19.301  0.00  0.00    +0.000 A 
ATOM      8  C   UNL     1       2.085   7.386  19.557  0.00  0.00    +0.000 A 
ATOM      9  C   UNL     1       1.428   8.011  20.626  0.00  0.00    +0.000 A 
ENDROOT
BRANCH   1  13
ATOM     10  C   UNL     1      -0.923  11.402  22.533  0.00  0.00    +0.000 A 
ATOM     11  N   UNL     1      -0.448  10.620  23.475  0.00  0.00    +0.000 NA
ATOM     12  N   UNL     1       0.369   9.713  22.845  0.00  0.00    +0.000 NA
ATOM     13  C   UNL     1       0.341  10.003  21.560  0.00  0.00    +0.000 A 
ATOM     14  O   UNL     1      -0.465  11.079  21.282  0.00  0.00    +0.000 OA
BRANCH  10  20
ATOM     15  O   UNL     1      -2.896  15.627  22.696  0.00  0.00    +0.000 OA
ATOM     16  S   UNL     1      -2.652  14.729  23.805  0.00  0.00    +0.000 S 
ATOM     17  O   UNL     1      -2.500  15.194  25.166  0.00  0.00    +0.000 OA
ATOM     18  C   UNL     1      -3.876  13.429  23.755  0.00  0.00    +0.000 C 
ATOM     19  C   UNL     1      -3.105  12.141  23.485  0.00  0.00    +0.000 C 
ATOM     20  C   UNL     1      -1.874  12.527  22.654  0.00  0.00    +0.000 C 
ATOM     21  C   UNL     1      -1.252  13.711  23.386  0.00  0.00    +0.000 C 
ENDBRANCH  10  20
ENDBRANCH   1  13
BRANCH   7  22
ATOM     22  C   UNL     1       2.759   4.988  20.264  0.00  0.00    +0.000 C 
ATOM     23  C   UNL     1       1.447   4.351  20.712  0.00  0.00    +0.000 C 
ATOM     24  C   UNL     1       1.904   3.058  21.381  0.00  0.00    +0.000 C 
ATOM     25  C   UNL     1       3.179   2.638  20.645  0.00  0.00    +0.000 C 
ATOM     26  C   UNL     1       3.526   3.788  19.705  0.00  0.00    +0.000 C 
ENDBRANCH   7  22
TORSDOF 3
ENDMDL
MODEL 6
REMARK VINA RESULT:      -8.2      2.897      4.200
REMARK  Name = 
REMARK  3 active torsions:
REMARK  status: ('A' for Active; 'I' for Inactive)
REMARK    1  A    between atoms: C_6  and  C_7
REMARK    2  A    between atoms: C_10  and  C_11
REMARK    3  A    between atoms: C_17  and  C_18
REMARK                            x       y       z     vdW  Elec       q    Type
REMARK                         _______ _______ _______ _____ _____    ______ ____
ROOT
ATOM      1  C   UNL     1       2.203   7.221  19.397  0.00  0.00    +0.000 A 
ATOM      2  C   UNL     1       1.827   6.384  20.448  0.00  0.00    +0.000 A 
ATOM      3  N   UNL     1       2.315   5.139  20.702  0.00  0.00    +0.000 NA
ATOM      4  C   UNL     1       3.240   4.744  19.805  0.00  0.00    +0.000 A 
ATOM      5  O   UNL     1       3.879   3.539  19.822  0.00  0.00    +0.000 OA
ATOM      6  N   UNL     1       4.756   3.454  18.743  0.00  0.00    +0.000 NA
ATOM      7  C   UNL     1       4.640   4.618  18.090  0.00  0.00    +0.000 A 
ATOM      8  C   UNL     1       3.702   5.468  18.722  0.00  0.00    +0.000 A 
ATOM      9  C   UNL     1       3.175   6.748  18.505  0.00  0.00    +0.000 A 
ENDROOT
BRANCH   1  13
ATOM     10  C   UNL     1       0.717  10.388  19.673  0.00  0.00    +0.000 A 
ATOM     11  N   UNL     1       0.974  10.436  18.385  0.00  0.00    +0.000 NA
ATOM     12  N   UNL     1       1.575   9.242  18.068  0.00  0.00    +0.000 NA
ATOM     13  C   UNL     1       1.643   8.542  19.183  0.00  0.00    +0.000 A 
ATOM     14  O   UNL     1       1.108   9.211  20.256  0.00  0.00    +0.000 OA
BRANCH  10  20
ATOM     15  O   UNL     1      -0.440  13.155  23.247  0.00  0.00    +0.000 OA
ATOM     16  S   UNL     1      -1.236  12.096  22.662  0.00  0.00    +0.000 S 
ATOM     17  O   UNL     1      -2.264  11.396  23.400  0.00  0.00    +0.000 OA
ATOM     18  C   UNL     1      -1.914  12.690  21.119  0.00  0.00    +0.000 C 
ATOM     19  C   UNL     1      -1.284  11.831  20.029  0.00  0.00    +0.000 C 
ATOM     20  C   UNL     1       0.106  11.419  20.536  0.00  0.00    +0.000 C 
ATOM     21  C   UNL     1      -0.123  10.902  21.952  0.00  0.00    +0.000 C 
ENDBRANCH  10  20
ENDBRANCH   1  13
BRANCH   7  22
ATOM     22  C   UNL     1       5.391   4.918  16.838  0.00  0.00    +0.000 C 
ATOM     23  C   UNL     1       6.900   4.700  16.864  0.00  0.00    +0.000 C 
ATOM     24  C   UNL     1       7.281   4.758  15.387  0.00  0.00    +0.000 C 
ATOM     25  C   UNL     1       6.068   4.222  14.624  0.00  0.00    +0.000 C 
ATOM     26  C   UNL     1       4.958   4.048  15.657  0.00  0.00    +0.000 C 
ENDBRANCH   7  22
TORSDOF 3
ENDMDL
MODEL 7
REMARK VINA RESULT:      -8.2      2.827      4.396
REMARK  Name = 
REMARK  3 active torsions:
REMARK  status: ('A' for Active; 'I' for Inactive)
REMARK    1  A    between atoms: C_6  and  C_7
REMARK    2  A    between atoms: C_10  and  C_11
REMARK    3  A    between atoms: C_17  and  C_18
REMARK                            x       y       z     vdW  Elec       q    Type
REMARK                         _______ _______ _______ _____ _____    ______ ____
ROOT
ATOM      1  C   UNL     1       2.153   6.380  20.028  0.00  0.00    +0.000 A 
ATOM      2  C   UNL     1       1.492   5.382  20.747  0.00  0.00    +0.000 A 
ATOM      3  N   UNL     1       1.918   4.103  20.930  0.00  0.00    +0.000 NA
ATOM      4  C   UNL     1       3.095   3.848  20.321  0.00  0.00    +0.000 A 
ATOM      5  O   UNL     1       3.738   2.646  20.338  0.00  0.00    +0.000 OA
ATOM      6  N   UNL     1       4.914   2.730  19.597  0.00  0.00    +0.000 NA
ATOM      7  C   UNL     1       4.971   3.990  19.149  0.00  0.00    +0.000 A 
ATOM      8  C   UNL     1       3.851   4.739  19.581  0.00  0.00    +0.000 A 
ATOM      9  C   UNL     1       3.375   6.047  19.428  0.00  0.00    +0.000 A 
ENDROOT
BRANCH   1  13
ATOM     10  C   UNL     1       0.498   9.461  20.313  0.00  0.00    +0.000 A 
ATOM     11  N   UNL     1       1.225   9.759  19.261  0.00  0.00    +0.000 NA
ATOM     12  N   UNL     1       1.968   8.639  18.977  0.00  0.00    +0.000 NA
ATOM     13  C   UNL     1       1.644   7.729  19.874  0.00  0.00    +0.000 A 
ATOM     14  O   UNL     1       0.702   8.182  20.763  0.00  0.00    +0.000 OA
BRANCH  10  20
ATOM     15  O   UNL     1      -2.276  12.941  21.714  0.00  0.00    +0.000 OA
ATOM     16  S   UNL     1      -1.025  12.520  22.310  0.00  0.00    +0.000 S 
ATOM     17  O   UNL     1      -0.194  13.413  23.087  0.00  0.00    +0.000 OA
ATOM     18  C   UNL     1      -1.320  11.024  23.240  0.00  0.00    +0.000 C 
ATOM     19  C   UNL     1      -0.518   9.933  22.540  0.00  0.00    +0.000 C 
ATOM     20  C   UNL     1      -0.456  10.312  21.053  0.00  0.00    +0.000 C 
ATOM     21  C   UNL     1      -0.033  11.777  21.032  0.00  0.00    +0.000 C 
ENDBRANCH  10  20
ENDBRANCH   1  13
BRANCH   7  22
ATOM     22  C   UNL     1       6.070   4.485  18.271  0.00  0.00    +0.000 C 
ATOM     23  C   UNL     1       5.676   5.002  16.891  0.00  0.00    +0.000 C 
ATOM     24  C   UNL     1       6.937   5.724  16.424  0.00  0.00    +0.000 C 
ATOM     25  C   UNL     1       7.602   6.263  17.692  0.00  0.00    +0.000 C 
ATOM     26  C   UNL     1       6.817   5.681  18.864  0.00  0.00    +0.000 C 
ENDBRANCH   7  22
TORSDOF 3
ENDMDL
MODEL 8
REMARK VINA RESULT:      -8.1      4.025      9.083
REMARK  Name = 
REMARK  3 active torsions:
REMARK  status: ('A' for Active; 'I' for Inactive)
REMARK    1  A    between atoms: C_6  and  C_7
REMARK    2  A    between atoms: C_10  and  C_11
REMARK    3  A    between atoms: C_17  and  C_18
REMARK                            x       y       z     vdW  Elec       q    Type
REMARK                         _______ _______ _______ _____ _____    ______ ____
ROOT
ATOM      1  C   UNL     1       1.278   8.374  20.696  0.00  0.00    +0.000 A 
ATOM      2  C   UNL     1       1.463   8.892  21.979  0.00  0.00    +0.000 A 
ATOM      3  N   UNL     1       0.894  10.021  22.482  0.00  0.00    +0.000 NA
ATOM      4  C   UNL     1       0.095  10.648  21.595  0.00  0.00    +0.000 A 
ATOM      5  O   UNL     1      -0.588  11.803  21.840  0.00  0.00    +0.000 OA
ATOM      6  N   UNL     1      -1.300  12.180  20.704  0.00  0.00    +0.000 NA
ATOM      7  C   UNL     1      -1.045  11.238  19.787  0.00  0.00    +0.000 A 
ATOM      8  C   UNL     1      -0.175  10.247  20.300  0.00  0.00    +0.000 A 
ATOM      9  C   UNL     1       0.429   9.073  19.829  0.00  0.00    +0.000 A 
ENDROOT
BRANCH   1  13
ATOM     10  C   UNL     1       3.072   5.914  18.951  0.00  0.00    +0.000 A 
ATOM     11  N   UNL     1       2.685   5.158  19.954  0.00  0.00    +0.000 NA
ATOM     12  N   UNL     1       1.938   5.965  20.777  0.00  0.00    +0.000 NA
ATOM     13  C   UNL     1       1.915   7.160  20.221  0.00  0.00    +0.000 A 
ATOM     14  O   UNL     1       2.618   7.205  19.044  0.00  0.00    +0.000 OA
BRANCH  10  20
ATOM     15  O   UNL     1       5.850   3.711  15.919  0.00  0.00    +0.000 OA
ATOM     16  S   UNL     1       6.208   4.795  16.811  0.00  0.00    +0.000 S 
ATOM     17  O   UNL     1       7.561   5.009  17.273  0.00  0.00    +0.000 OA
ATOM     18  C   UNL     1       5.564   6.316  16.133  0.00  0.00    +0.000 C 
ATOM     19  C   UNL     1       4.518   6.806  17.128  0.00  0.00    +0.000 C 
ATOM     20  C   UNL     1       3.923   5.560  17.797  0.00  0.00    +0.000 C 
ATOM     21  C   UNL     1       5.124   4.722  18.222  0.00  0.00    +0.000 C 
ENDBRANCH  10  20
ENDBRANCH   1  13
BRANCH   7  22
ATOM     22  C   UNL     1      -1.592  11.292  18.402  0.00  0.00    +0.000 C 
ATOM     23  C   UNL     1      -1.505  10.015  17.572  0.00  0.00    +0.000 C 
ATOM     24  C   UNL     1      -2.434  10.307  16.396  0.00  0.00    +0.000 C 
ATOM     25  C   UNL     1      -3.520  11.235  16.944  0.00  0.00    +0.000 C 
ATOM     26  C   UNL     1      -3.089  11.604  18.361  0.00  0.00    +0.000 C 
ENDBRANCH   7  22
TORSDOF 3
ENDMDL
MODEL 9
REMARK VINA RESULT:      -8.1      3.803      8.867
REMARK  Name = 
REMARK  3 active torsions:
REMARK  status: ('A' for Active; 'I' for Inactive)
REMARK    1  A    between atoms: C_6  and  C_7
REMARK    2  A    between atoms: C_10  and  C_11
REMARK    3  A    between atoms: C_17  and  C_18
REMARK                            x       y       z     vdW  Elec       q    Type
REMARK                         _______ _______ _______ _____ _____    ______ ____
ROOT
ATOM      1  C   UNL     1       1.128   8.445  20.851  0.00  0.00    +0.000 A 
ATOM      2  C   UNL     1       1.287   9.006  22.120  0.00  0.00    +0.000 A 
ATOM      3  N   UNL     1       0.718  10.157  22.570  0.00  0.00    +0.000 NA
ATOM      4  C   UNL     1      -0.053  10.761  21.643  0.00  0.00    +0.000 A 
ATOM      5  O   UNL     1      -0.728  11.930  21.831  0.00  0.00    +0.000 OA
ATOM      6  N   UNL     1      -1.408  12.276  20.665  0.00  0.00    +0.000 NA
ATOM      7  C   UNL     1      -1.140  11.300  19.787  0.00  0.00    +0.000 A 
ATOM      8  C   UNL     1      -0.294  10.318  20.355  0.00  0.00    +0.000 A 
ATOM      9  C   UNL     1       0.308   9.123  19.939  0.00  0.00    +0.000 A 
ENDROOT
BRANCH   1  13
ATOM     10  C   UNL     1       3.105   5.947  19.380  0.00  0.00    +0.000 A 
ATOM     11  N   UNL     1       2.406   5.163  20.170  0.00  0.00    +0.000 NA
ATOM     12  N   UNL     1       1.539   5.981  20.853  0.00  0.00    +0.000 NA
ATOM     13  C   UNL     1       1.764   7.210  20.434  0.00  0.00    +0.000 A 
ATOM     14  O   UNL     1       2.753   7.268  19.484  0.00  0.00    +0.000 OA
BRANCH  10  20
ATOM     15  O   UNL     1       6.955   5.968  16.746  0.00  0.00    +0.000 OA
ATOM     16  S   UNL     1       5.582   6.051  16.295  0.00  0.00    +0.000 S 
ATOM     17  O   UNL     1       5.211   6.666  15.040  0.00  0.00    +0.000 OA
ATOM     18  C   UNL     1       4.858   4.422  16.394  0.00  0.00    +0.000 C 
ATOM     19  C   UNL     1       3.757   4.518  17.445  0.00  0.00    +0.000 C 
ATOM     20  C   UNL     1       4.196   5.592  18.451  0.00  0.00    +0.000 C 
ATOM     21  C   UNL     1       4.620   6.785  17.601  0.00  0.00    +0.000 C 
ENDBRANCH  10  20
ENDBRANCH   1  13
BRANCH   7  22
ATOM     22  C   UNL     1      -1.651  11.312  18.387  0.00  0.00    +0.000 C 
ATOM     23  C   UNL     1      -1.506  10.024  17.584  0.00  0.00    +0.000 C 
ATOM     24  C   UNL     1      -2.411  10.267  16.379  0.00  0.00    +0.000 C 
ATOM     25  C   UNL     1      -3.537  11.172  16.882  0.00  0.00    +0.000 C 
ATOM     26  C   UNL     1      -3.155  11.579  18.302  0.00  0.00    +0.000 C 
ENDBRANCH   7  22
TORSDOF 3
ENDMDL
