MODEL 1
REMARK VINA RESULT:      -7.6      0.000      0.000
REMARK  Name = 
REMARK  10 active torsions:
REMARK  status: ('A' for Active; 'I' for Inactive)
REMARK    1  A    between atoms: C_1  and  O_2
REMARK    2  A    between atoms: O_2  and  C_3
REMARK    3  A    between atoms: C_5  and  N_6
REMARK    4  A    between atoms: C_7  and  C_9
REMARK    5  A    between atoms: C_12  and  C_13
REMARK    6  A    between atoms: C_20  and  N_21
REMARK    7  A    between atoms: C_25  and  O_26
REMARK    8  A    between atoms: O_26  and  C_27
REMARK    9  A    between atoms: C_28  and  O_29
REMARK   10  A    between atoms: O_29  and  C_30
REMARK                            x       y       z     vdW  Elec       q    Type
REMARK                         _______ _______ _______ _____ _____    ______ ____
ROOT
ATOM      1  N   UNL     1      -0.808  11.340  21.428  0.00  0.00    +0.000 N 
ATOM      2  C   UNL     1       0.064  10.341  21.831  0.00  0.00    +0.000 C 
ATOM      3  O   UNL     1       0.378  10.081  22.991  0.00  0.00    +0.000 OA
ATOM      4  H   UNL     1      -0.903  11.552  20.436  0.00  0.00    +0.000 HD
ENDROOT
BRANCH   1   7
ATOM      5  C   UNL     1      -3.326  12.807  23.774  0.00  0.00    +0.000 A 
ATOM      6  C   UNL     1      -2.766  12.046  22.740  0.00  0.00    +0.000 A 
ATOM      7  C   UNL     1      -1.462  12.240  22.309  0.00  0.00    +0.000 A 
ATOM      8  C   UNL     1      -0.772  13.346  22.796  0.00  0.00    +0.000 A 
ATOM      9  C   UNL     1      -1.351  14.204  23.755  0.00  0.00    +0.000 A 
ATOM     10  C   UNL     1      -2.635  13.924  24.278  0.00  0.00    +0.000 A 
BRANCH   5  12
ATOM     11  C   UNL     1      -5.676  13.037  23.565  0.00  0.00    +0.000 C 
ATOM     12  O   UNL     1      -4.564  12.467  24.263  0.00  0.00    +0.000 OA
ENDBRANCH   5  12
BRANCH   9  13
ATOM     13  O   UNL     1      -0.500  15.235  24.079  0.00  0.00    +0.000 OA
ATOM     14  C   UNL     1      -0.109  16.161  23.076  0.00  0.00    +0.000 C 
ENDBRANCH   9  13
BRANCH  10  15
ATOM     15  O   UNL     1      -3.121  14.788  25.224  0.00  0.00    +0.000 OA
ATOM     16  C   UNL     1      -3.786  15.975  24.819  0.00  0.00    +0.000 C 
ENDBRANCH  10  15
ENDBRANCH   1   7
BRANCH   2  17
ATOM     17  C   UNL     1       0.686   9.465  20.810  0.00  0.00    +0.000 A 
ATOM     18  C   UNL     1       1.156   8.234  21.293  0.00  0.00    +0.000 A 
ATOM     19  C   UNL     1       1.894   7.371  20.480  0.00  0.00    +0.000 A 
ATOM     20  C   UNL     1       2.180   7.677  19.139  0.00  0.00    +0.000 A 
ATOM     21  C   UNL     1       1.702   8.909  18.651  0.00  0.00    +0.000 A 
ATOM     22  C   UNL     1       0.981   9.787  19.486  0.00  0.00    +0.000 A 
BRANCH  20  23
ATOM     23  C   UNL     1       2.962   6.743  18.295  0.00  0.00    +0.000 A 
ATOM     24  C   UNL     1       2.675   5.363  18.277  0.00  0.00    +0.000 A 
ATOM     25  C   UNL     1       3.419   4.469  17.502  0.00  0.00    +0.000 A 
ATOM     26  C   UNL     1       4.461   4.935  16.710  0.00  0.00    +0.000 A 
ATOM     27  C   UNL     1       4.764   6.293  16.701  0.00  0.00    +0.000 A 
ATOM     28  C   UNL     1       4.028   7.183  17.491  0.00  0.00    +0.000 A 
ENDBRANCH  20  23
BRANCH  22  29
ATOM     29  N   UNL     1       0.616  11.066  18.928  0.00  0.00    +0.000 N 
ATOM     30  O   UNL     1       1.428  11.991  19.072  0.00  0.00    +0.000 OA
ATOM     31  O   UNL     1      -0.493  11.153  18.386  0.00  0.00    +0.000 OA
ENDBRANCH  22  29
ENDBRANCH   2  17
TORSDOF 7
ENDMDL
MODEL 2
REMARK VINA RESULT:      -7.6      0.124      1.053
REMARK  Name = 
REMARK  10 active torsions:
REMARK  status: ('A' for Active; 'I' for Inactive)
REMARK    1  A    between atoms: C_1  and  O_2
REMARK    2  A    between atoms: O_2  and  C_3
REMARK    3  A    between atoms: C_5  and  N_6
REMARK    4  A    between atoms: C_7  and  C_9
REMARK    5  A    between atoms: C_12  and  C_13
REMARK    6  A    between atoms: C_20  and  N_21
REMARK    7  A    between atoms: C_25  and  O_26
REMARK    8  A    between atoms: O_26  and  C_27
REMARK    9  A    between atoms: C_28  and  O_29
REMARK   10  A    between atoms: O_29  and  C_30
REMARK                            x       y       z     vdW  Elec       q    Type
REMARK                         _______ _______ _______ _____ _____    ______ ____
ROOT
ATOM      1  N   UNL     1      -0.801  11.322  21.418  0.00  0.00    +0.000 N 
ATOM      2  C   UNL     1       0.078  10.332  21.828  0.00  0.00    +0.000 C 
ATOM      3  O   UNL     1       0.402  10.089  22.989  0.00  0.00    +0.000 OA
ATOM      4  H   UNL     1      -0.904  11.520  20.424  0.00  0.00    +0.000 HD
ENDROOT
BRANCH   1   7
ATOM      5  C   UNL     1      -3.280  12.794  23.802  0.00  0.00    +0.000 A 
ATOM      6  C   UNL     1      -2.733  12.014  22.775  0.00  0.00    +0.000 A 
ATOM      7  C   UNL     1      -1.451  12.232  22.292  0.00  0.00    +0.000 A 
ATOM      8  C   UNL     1      -0.778  13.374  22.717  0.00  0.00    +0.000 A 
ATOM      9  C   UNL     1      -1.350  14.247  23.667  0.00  0.00    +0.000 A 
ATOM     10  C   UNL     1      -2.606  13.947  24.244  0.00  0.00    +0.000 A 
BRANCH   5  12
ATOM     11  C   UNL     1      -5.641  12.991  23.700  0.00  0.00    +0.000 C 
ATOM     12  O   UNL     1      -4.490  12.434  24.345  0.00  0.00    +0.000 OA
ENDBRANCH   5  12
BRANCH   9  13
ATOM     13  O   UNL     1      -0.521  15.312  23.926  0.00  0.00    +0.000 OA
ATOM     14  C   UNL     1       0.300  15.830  22.889  0.00  0.00    +0.000 C 
ENDBRANCH   9  13
BRANCH  10  15
ATOM     15  O   UNL     1      -3.086  14.829  25.177  0.00  0.00    +0.000 OA
ATOM     16  C   UNL     1      -3.771  15.998  24.755  0.00  0.00    +0.000 C 
ENDBRANCH  10  15
ENDBRANCH   1   7
BRANCH   2  17
ATOM     17  C   UNL     1       0.696   9.444  20.815  0.00  0.00    +0.000 A 
ATOM     18  C   UNL     1       1.150   8.211  21.306  0.00  0.00    +0.000 A 
ATOM     19  C   UNL     1       1.883   7.335  20.502  0.00  0.00    +0.000 A 
ATOM     20  C   UNL     1       2.178   7.631  19.160  0.00  0.00    +0.000 A 
ATOM     21  C   UNL     1       1.715   8.865  18.664  0.00  0.00    +0.000 A 
ATOM     22  C   UNL     1       1.000   9.755  19.491  0.00  0.00    +0.000 A 
BRANCH  20  23
ATOM     23  C   UNL     1       2.954   6.685  18.326  0.00  0.00    +0.000 A 
ATOM     24  C   UNL     1       4.032   7.127  17.532  0.00  0.00    +0.000 A 
ATOM     25  C   UNL     1       4.758   6.248  16.724  0.00  0.00    +0.000 A 
ATOM     26  C   UNL     1       4.435   4.897  16.701  0.00  0.00    +0.000 A 
ATOM     27  C   UNL     1       3.380   4.428  17.478  0.00  0.00    +0.000 A 
ATOM     28  C   UNL     1       2.645   5.313  18.273  0.00  0.00    +0.000 A 
ENDBRANCH  20  23
BRANCH  22  29
ATOM     29  N   UNL     1       0.651  11.036  18.924  0.00  0.00    +0.000 N 
ATOM     30  O   UNL     1      -0.443  11.114  18.350  0.00  0.00    +0.000 OA
ATOM     31  O   UNL     1       1.486  11.944  19.020  0.00  0.00    +0.000 OA
ENDBRANCH  22  29
ENDBRANCH   2  17
TORSDOF 7
ENDMDL
MODEL 3
REMARK VINA RESULT:      -7.5      3.092      9.951
REMARK  Name = 
REMARK  10 active torsions:
REMARK  status: ('A' for Active; 'I' for Inactive)
REMARK    1  A    between atoms: C_1  and  O_2
REMARK    2  A    between atoms: O_2  and  C_3
REMARK    3  A    between atoms: C_5  and  N_6
REMARK    4  A    between atoms: C_7  and  C_9
REMARK    5  A    between atoms: C_12  and  C_13
REMARK    6  A    between atoms: C_20  and  N_21
REMARK    7  A    between atoms: C_25  and  O_26
REMARK    8  A    between atoms: O_26  and  C_27
REMARK    9  A    between atoms: C_28  and  O_29
REMARK   10  A    between atoms: O_29  and  C_30
REMARK                            x       y       z     vdW  Elec       q    Type
REMARK                         _______ _______ _______ _____ _____    ______ ____
ROOT
ATOM      1  N   UNL     1       2.411   7.820  18.938  0.00  0.00    +0.000 N 
ATOM      2  C   UNL     1       1.779   7.744  20.169  0.00  0.00    +0.000 C 
ATOM      3  O   UNL     1       1.732   6.755  20.897  0.00  0.00    +0.000 OA
ATOM      4  H   UNL     1       2.284   8.649  18.360  0.00  0.00    +0.000 HD
ENDROOT
BRANCH   1   7
ATOM      5  C   UNL     1       3.084   4.532  17.285  0.00  0.00    +0.000 A 
ATOM      6  C   UNL     1       2.490   5.511  18.091  0.00  0.00    +0.000 A 
ATOM      7  C   UNL     1       3.091   6.741  18.316  0.00  0.00    +0.000 A 
ATOM      8  C   UNL     1       4.400   6.917  17.877  0.00  0.00    +0.000 A 
ATOM      9  C   UNL     1       5.073   5.904  17.161  0.00  0.00    +0.000 A 
ATOM     10  C   UNL     1       4.405   4.702  16.831  0.00  0.00    +0.000 A 
BRANCH   5  12
ATOM     11  C   UNL     1       2.455   2.340  17.933  0.00  0.00    +0.000 C 
ATOM     12  O   UNL     1       2.374   3.398  16.973  0.00  0.00    +0.000 OA
ENDBRANCH   5  12
BRANCH   9  13
ATOM     13  O   UNL     1       6.355   6.287  16.843  0.00  0.00    +0.000 OA
ATOM     14  C   UNL     1       7.359   6.273  17.847  0.00  0.00    +0.000 C 
ENDBRANCH   9  13
BRANCH  10  15
ATOM     15  O   UNL     1       5.115   3.776  16.113  0.00  0.00    +0.000 OA
ATOM     16  C   UNL     1       5.489   4.059  14.773  0.00  0.00    +0.000 C 
ENDBRANCH  10  15
ENDBRANCH   1   7
BRANCH   2  17
ATOM     17  C   UNL     1       1.100   8.945  20.712  0.00  0.00    +0.000 A 
ATOM     18  C   UNL     1       0.783   8.880  22.077  0.00  0.00    +0.000 A 
ATOM     19  C   UNL     1       0.014   9.871  22.691  0.00  0.00    +0.000 A 
ATOM     20  C   UNL     1      -0.456  10.990  21.984  0.00  0.00    +0.000 A 
ATOM     21  C   UNL     1      -0.131  11.060  20.615  0.00  0.00    +0.000 A 
ATOM     22  C   UNL     1       0.622  10.041  19.997  0.00  0.00    +0.000 A 
BRANCH  20  23
ATOM     23  C   UNL     1      -1.267  12.030  22.658  0.00  0.00    +0.000 A 
ATOM     24  C   UNL     1      -2.534  11.731  23.198  0.00  0.00    +0.000 A 
ATOM     25  C   UNL     1      -3.318  12.708  23.817  0.00  0.00    +0.000 A 
ATOM     26  C   UNL     1      -2.847  14.010  23.927  0.00  0.00    +0.000 A 
ATOM     27  C   UNL     1      -1.597  14.336  23.410  0.00  0.00    +0.000 A 
ATOM     28  C   UNL     1      -0.822  13.359  22.776  0.00  0.00    +0.000 A 
ENDBRANCH  20  23
BRANCH  22  29
ATOM     29  N   UNL     1       0.822  10.151  18.572  0.00  0.00    +0.000 N 
ATOM     30  O   UNL     1      -0.101   9.759  17.846  0.00  0.00    +0.000 OA
ATOM     31  O   UNL     1       1.914  10.587  18.185  0.00  0.00    +0.000 OA
ENDBRANCH  22  29
ENDBRANCH   2  17
TORSDOF 7
ENDMDL
MODEL 4
REMARK VINA RESULT:      -7.5      3.099      9.939
REMARK  Name = 
REMARK  10 active torsions:
REMARK  status: ('A' for Active; 'I' for Inactive)
REMARK    1  A    between atoms: C_1  and  O_2
REMARK    2  A    between atoms: O_2  and  C_3
REMARK    3  A    between atoms: C_5  and  N_6
REMARK    4  A    between atoms: C_7  and  C_9
REMARK    5  A    between atoms: C_12  and  C_13
REMARK    6  A    between atoms: C_20  and  N_21
REMARK    7  A    between atoms: C_25  and  O_26
REMARK    8  A    between atoms: O_26  and  C_27
REMARK    9  A    between atoms: C_28  and  O_29
REMARK   10  A    between atoms: O_29  and  C_30
REMARK                            x       y       z     vdW  Elec       q    Type
REMARK                         _______ _______ _______ _____ _____    ______ ____
ROOT
ATOM      1  N   UNL     1       2.505   7.849  18.867  0.00  0.00    +0.000 N 
ATOM      2  C   UNL     1       1.823   7.732  20.068  0.00  0.00    +0.000 C 
ATOM      3  O   UNL     1       1.728   6.713  20.748  0.00  0.00    +0.000 OA
ATOM      4  H   UNL     1       2.417   8.706  18.322  0.00  0.00    +0.000 HD
ENDROOT
BRANCH   1   7
ATOM      5  C   UNL     1       3.218   4.550  17.253  0.00  0.00    +0.000 A 
ATOM      6  C   UNL     1       2.636   5.523  18.076  0.00  0.00    +0.000 A 
ATOM      7  C   UNL     1       3.191   6.786  18.225  0.00  0.00    +0.000 A 
ATOM      8  C   UNL     1       4.455   7.010  17.688  0.00  0.00    +0.000 A 
ATOM      9  C   UNL     1       5.124   6.009  16.951  0.00  0.00    +0.000 A 
ATOM     10  C   UNL     1       4.494   4.768  16.701  0.00  0.00    +0.000 A 
BRANCH   5  12
ATOM     11  C   UNL     1       1.903   2.802  18.167  0.00  0.00    +0.000 C 
ATOM     12  O   UNL     1       2.543   3.376  17.022  0.00  0.00    +0.000 OA
ENDBRANCH   5  12
BRANCH   9  13
ATOM     13  O   UNL     1       6.360   6.443  16.531  0.00  0.00    +0.000 OA
ATOM     14  C   UNL     1       7.325   6.843  17.493  0.00  0.00    +0.000 C 
ENDBRANCH   9  13
BRANCH  10  15
ATOM     15  O   UNL     1       5.194   3.856  15.956  0.00  0.00    +0.000 OA
ATOM     16  C   UNL     1       5.406   4.089  14.572  0.00  0.00    +0.000 C 
ENDBRANCH  10  15
ENDBRANCH   1   7
BRANCH   2  17
ATOM     17  C   UNL     1       1.144   8.921  20.636  0.00  0.00    +0.000 A 
ATOM     18  C   UNL     1       0.795   8.812  21.991  0.00  0.00    +0.000 A 
ATOM     19  C   UNL     1       0.023   9.790  22.621  0.00  0.00    +0.000 A 
ATOM     20  C   UNL     1      -0.420  10.938  21.942  0.00  0.00    +0.000 A 
ATOM     21  C   UNL     1      -0.064  11.051  20.584  0.00  0.00    +0.000 A 
ATOM     22  C   UNL     1       0.693  10.046  19.948  0.00  0.00    +0.000 A 
BRANCH  20  23
ATOM     23  C   UNL     1      -1.236  11.963  22.633  0.00  0.00    +0.000 A 
ATOM     24  C   UNL     1      -0.788  13.296  22.747  0.00  0.00    +0.000 A 
ATOM     25  C   UNL     1      -1.538  14.267  23.415  0.00  0.00    +0.000 A 
ATOM     26  C   UNL     1      -2.766  13.936  23.973  0.00  0.00    +0.000 A 
ATOM     27  C   UNL     1      -3.239  12.631  23.872  0.00  0.00    +0.000 A 
ATOM     28  C   UNL     1      -2.478  11.656  23.217  0.00  0.00    +0.000 A 
ENDBRANCH  20  23
BRANCH  22  29
ATOM     29  N   UNL     1       0.926  10.201  18.533  0.00  0.00    +0.000 N 
ATOM     30  O   UNL     1       1.925  10.853  18.199  0.00  0.00    +0.000 OA
ATOM     31  O   UNL     1       0.092   9.708  17.764  0.00  0.00    +0.000 OA
ENDBRANCH  22  29
ENDBRANCH   2  17
TORSDOF 7
ENDMDL
MODEL 5
REMARK VINA RESULT:      -7.5      2.904      9.997
REMARK  Name = 
REMARK  10 active torsions:
REMARK  status: ('A' for Active; 'I' for Inactive)
REMARK    1  A    between atoms: C_1  and  O_2
REMARK    2  A    between atoms: O_2  and  C_3
REMARK    3  A    between atoms: C_5  and  N_6
REMARK    4  A    between atoms: C_7  and  C_9
REMARK    5  A    between atoms: C_12  and  C_13
REMARK    6  A    between atoms: C_20  and  N_21
REMARK    7  A    between atoms: C_25  and  O_26
REMARK    8  A    between atoms: O_26  and  C_27
REMARK    9  A    between atoms: C_28  and  O_29
REMARK   10  A    between atoms: O_29  and  C_30
REMARK                            x       y       z     vdW  Elec       q    Type
REMARK                         _______ _______ _______ _____ _____    ______ ____
ROOT
ATOM      1  N   UNL     1       2.098   8.332  18.994  0.00  0.00    +0.000 N 
ATOM      2  C   UNL     1       1.501   8.170  20.234  0.00  0.00    +0.000 C 
ATOM      3  O   UNL     1       1.508   7.143  20.911  0.00  0.00    +0.000 OA
ATOM      4  H   UNL     1       1.927   9.184  18.463  0.00  0.00    +0.000 HD
ENDROOT
BRANCH   1   7
ATOM      5  C   UNL     1       4.750   6.536  17.060  0.00  0.00    +0.000 A 
ATOM      6  C   UNL     1       3.941   7.568  17.553  0.00  0.00    +0.000 A 
ATOM      7  C   UNL     1       2.801   7.312  18.301  0.00  0.00    +0.000 A 
ATOM      8  C   UNL     1       2.362   5.994  18.392  0.00  0.00    +0.000 A 
ATOM      9  C   UNL     1       3.092   4.939  17.805  0.00  0.00    +0.000 A 
ATOM     10  C   UNL     1       4.319   5.200  17.151  0.00  0.00    +0.000 A 
BRANCH   5  12
ATOM     11  C   UNL     1       7.076   6.896  17.340  0.00  0.00    +0.000 C 
ATOM     12  O   UNL     1       5.946   6.850  16.462  0.00  0.00    +0.000 OA
ENDBRANCH   5  12
BRANCH   9  13
ATOM     13  O   UNL     1       2.469   3.730  18.005  0.00  0.00    +0.000 OA
ATOM     14  C   UNL     1       1.260   3.681  18.750  0.00  0.00    +0.000 C 
ENDBRANCH   9  13
BRANCH  10  15
ATOM     15  O   UNL     1       4.985   4.122  16.628  0.00  0.00    +0.000 OA
ATOM     16  C   UNL     1       5.325   4.106  15.250  0.00  0.00    +0.000 C 
ENDBRANCH  10  15
ENDBRANCH   1   7
BRANCH   2  17
ATOM     17  C   UNL     1       0.793   9.315  20.854  0.00  0.00    +0.000 A 
ATOM     18  C   UNL     1       0.479   9.152  22.212  0.00  0.00    +0.000 A 
ATOM     19  C   UNL     1      -0.314  10.081  22.889  0.00  0.00    +0.000 A 
ATOM     20  C   UNL     1      -0.813  11.232  22.257  0.00  0.00    +0.000 A 
ATOM     21  C   UNL     1      -0.491  11.400  20.896  0.00  0.00    +0.000 A 
ATOM     22  C   UNL     1       0.287  10.444  20.213  0.00  0.00    +0.000 A 
BRANCH  20  23
ATOM     23  C   UNL     1      -1.649  12.205  22.997  0.00  0.00    +0.000 A 
ATOM     24  C   UNL     1      -2.941  11.863  23.448  0.00  0.00    +0.000 A 
ATOM     25  C   UNL     1      -3.747  12.779  24.128  0.00  0.00    +0.000 A 
ATOM     26  C   UNL     1      -3.276  14.059  24.392  0.00  0.00    +0.000 A 
ATOM     27  C   UNL     1      -2.002  14.425  23.966  0.00  0.00    +0.000 A 
ATOM     28  C   UNL     1      -1.204  13.511  23.271  0.00  0.00    +0.000 A 
ENDBRANCH  20  23
BRANCH  22  29
ATOM     29  N   UNL     1       0.483  10.651  18.798  0.00  0.00    +0.000 N 
ATOM     30  O   UNL     1      -0.351  10.142  18.037  0.00  0.00    +0.000 OA
ATOM     31  O   UNL     1       1.488  11.285  18.452  0.00  0.00    +0.000 OA
ENDBRANCH  22  29
ENDBRANCH   2  17
TORSDOF 7
ENDMDL
MODEL 6
REMARK VINA RESULT:      -7.5      3.016     10.097
REMARK  Name = 
REMARK  10 active torsions:
REMARK  status: ('A' for Active; 'I' for Inactive)
REMARK    1  A    between atoms: C_1  and  O_2
REMARK    2  A    between atoms: O_2  and  C_3
REMARK    3  A    between atoms: C_5  and  N_6
REMARK    4  A    between atoms: C_7  and  C_9
REMARK    5  A    between atoms: C_12  and  C_13
REMARK    6  A    between atoms: C_20  and  N_21
REMARK    7  A    between atoms: C_25  and  O_26
REMARK    8  A    between atoms: O_26  and  C_27
REMARK    9  A    between atoms: C_28  and  O_29
REMARK   10  A    between atoms: O_29  and  C_30
REMARK                            x       y       z     vdW  Elec       q    Type
REMARK                         _______ _______ _______ _____ _____    ______ ____
ROOT
ATOM      1  N   UNL     1       2.158   8.064  19.096  0.00  0.00    +0.000 N 
ATOM      2  C   UNL     1       1.589   7.974  20.357  0.00  0.00    +0.000 C 
ATOM      3  O   UNL     1       1.613   6.988  21.091  0.00  0.00    +0.000 OA
ATOM      4  H   UNL     1       1.973   8.885  18.521  0.00  0.00    +0.000 HD
ENDROOT
BRANCH   1   7
ATOM      5  C   UNL     1       4.913   5.951  17.704  0.00  0.00    +0.000 A 
ATOM      6  C   UNL     1       4.196   7.073  18.138  0.00  0.00    +0.000 A 
ATOM      7  C   UNL     1       2.845   7.006  18.446  0.00  0.00    +0.000 A 
ATOM      8  C   UNL     1       2.161   5.836  18.131  0.00  0.00    +0.000 A 
ATOM      9  C   UNL     1       2.833   4.723  17.582  0.00  0.00    +0.000 A 
ATOM     10  C   UNL     1       4.233   4.761  17.387  0.00  0.00    +0.000 A 
BRANCH   5  12
ATOM     11  C   UNL     1       7.038   5.661  18.716  0.00  0.00    +0.000 C 
ATOM     12  O   UNL     1       6.277   6.040  17.563  0.00  0.00    +0.000 OA
ENDBRANCH   5  12
BRANCH   9  13
ATOM     13  O   UNL     1       1.961   3.688  17.336  0.00  0.00    +0.000 OA
ATOM     14  C   UNL     1       1.736   2.709  18.340  0.00  0.00    +0.000 C 
ENDBRANCH   9  13
BRANCH  10  15
ATOM     15  O   UNL     1       4.819   3.634  16.873  0.00  0.00    +0.000 OA
ATOM     16  C   UNL     1       5.497   3.697  15.628  0.00  0.00    +0.000 C 
ENDBRANCH  10  15
ENDBRANCH   1   7
BRANCH   2  17
ATOM     17  C   UNL     1       0.894   9.153  20.926  0.00  0.00    +0.000 A 
ATOM     18  C   UNL     1       0.538   9.034  22.278  0.00  0.00    +0.000 A 
ATOM     19  C   UNL     1      -0.249  10.001  22.907  0.00  0.00    +0.000 A 
ATOM     20  C   UNL     1      -0.699  11.148  22.232  0.00  0.00    +0.000 A 
ATOM     21  C   UNL     1      -0.335  11.271  20.876  0.00  0.00    +0.000 A 
ATOM     22  C   UNL     1       0.437  10.277  20.241  0.00  0.00    +0.000 A 
BRANCH  20  23
ATOM     23  C   UNL     1      -1.530  12.161  22.922  0.00  0.00    +0.000 A 
ATOM     24  C   UNL     1      -1.028  13.450  23.198  0.00  0.00    +0.000 A 
ATOM     25  C   UNL     1      -1.794  14.408  23.867  0.00  0.00    +0.000 A 
ATOM     26  C   UNL     1      -3.091  14.108  24.264  0.00  0.00    +0.000 A 
ATOM     27  C   UNL     1      -3.617  12.847  24.000  0.00  0.00    +0.000 A 
ATOM     28  C   UNL     1      -2.843  11.885  23.344  0.00  0.00    +0.000 A 
ENDBRANCH  20  23
BRANCH  22  29
ATOM     29  N   UNL     1       0.678  10.442  18.828  0.00  0.00    +0.000 N 
ATOM     30  O   UNL     1       1.693  11.074  18.504  0.00  0.00    +0.000 OA
ATOM     31  O   UNL     1      -0.164   9.976  18.051  0.00  0.00    +0.000 OA
ENDBRANCH  22  29
ENDBRANCH   2  17
TORSDOF 7
ENDMDL
MODEL 7
REMARK VINA RESULT:      -7.4      0.351      2.317
REMARK  Name = 
REMARK  10 active torsions:
REMARK  status: ('A' for Active; 'I' for Inactive)
REMARK    1  A    between atoms: C_1  and  O_2
REMARK    2  A    between atoms: O_2  and  C_3
REMARK    3  A    between atoms: C_5  and  N_6
REMARK    4  A    between atoms: C_7  and  C_9
REMARK    5  A    between atoms: C_12  and  C_13
REMARK    6  A    between atoms: C_20  and  N_21
REMARK    7  A    between atoms: C_25  and  O_26
REMARK    8  A    between atoms: O_26  and  C_27
REMARK    9  A    between atoms: C_28  and  O_29
REMARK   10  A    between atoms: O_29  and  C_30
REMARK                            x       y       z     vdW  Elec       q    Type
REMARK                         _______ _______ _______ _____ _____    ______ ____
ROOT
ATOM      1  N   UNL     1      -0.722  11.287  21.561  0.00  0.00    +0.000 N 
ATOM      2  C   UNL     1       0.157  10.282  21.936  0.00  0.00    +0.000 C 
ATOM      3  O   UNL     1       0.504  10.018  23.085  0.00  0.00    +0.000 OA
ATOM      4  H   UNL     1      -0.845  11.501  20.573  0.00  0.00    +0.000 HD
ENDROOT
BRANCH   1   7
ATOM      5  C   UNL     1      -1.497  14.380  23.518  0.00  0.00    +0.000 A 
ATOM      6  C   UNL     1      -0.781  13.407  22.808  0.00  0.00    +0.000 A 
ATOM      7  C   UNL     1      -1.345  12.187  22.464  0.00  0.00    +0.000 A 
ATOM      8  C   UNL     1      -2.585  11.865  23.006  0.00  0.00    +0.000 A 
ATOM      9  C   UNL     1      -3.285  12.779  23.824  0.00  0.00    +0.000 A 
ATOM     10  C   UNL     1      -2.754  14.068  24.066  0.00  0.00    +0.000 A 
BRANCH   5  12
ATOM     11  C   UNL     1      -0.977  16.479  22.545  0.00  0.00    +0.000 C 
ATOM     12  O   UNL     1      -0.942  15.624  23.694  0.00  0.00    +0.000 OA
ENDBRANCH   5  12
BRANCH   9  13
ATOM     13  O   UNL     1      -4.475  12.247  24.259  0.00  0.00    +0.000 OA
ATOM     14  C   UNL     1      -5.692  12.669  23.660  0.00  0.00    +0.000 C 
ENDBRANCH   9  13
BRANCH  10  15
ATOM     15  O   UNL     1      -3.502  14.909  24.848  0.00  0.00    +0.000 OA
ATOM     16  C   UNL     1      -4.277  15.932  24.241  0.00  0.00    +0.000 C 
ENDBRANCH  10  15
ENDBRANCH   1   7
BRANCH   2  17
ATOM     17  C   UNL     1       0.744   9.405  20.895  0.00  0.00    +0.000 A 
ATOM     18  C   UNL     1       1.129   8.132  21.341  0.00  0.00    +0.000 A 
ATOM     19  C   UNL     1       1.828   7.254  20.511  0.00  0.00    +0.000 A 
ATOM     20  C   UNL     1       2.157   7.587  19.186  0.00  0.00    +0.000 A 
ATOM     21  C   UNL     1       1.764   8.863  18.735  0.00  0.00    +0.000 A 
ATOM     22  C   UNL     1       1.082   9.754  19.589  0.00  0.00    +0.000 A 
BRANCH  20  23
ATOM     23  C   UNL     1       2.897   6.638  18.323  0.00  0.00    +0.000 A 
ATOM     24  C   UNL     1       2.524   5.280  18.247  0.00  0.00    +0.000 A 
ATOM     25  C   UNL     1       3.226   4.369  17.453  0.00  0.00    +0.000 A 
ATOM     26  C   UNL     1       4.312   4.797  16.699  0.00  0.00    +0.000 A 
ATOM     27  C   UNL     1       4.701   6.132  16.748  0.00  0.00    +0.000 A 
ATOM     28  C   UNL     1       4.006   7.038  17.556  0.00  0.00    +0.000 A 
ENDBRANCH  20  23
BRANCH  22  29
ATOM     29  N   UNL     1       0.807  11.072  19.071  0.00  0.00    +0.000 N 
ATOM     30  O   UNL     1      -0.327  11.267  18.612  0.00  0.00    +0.000 OA
ATOM     31  O   UNL     1       1.733  11.892  19.087  0.00  0.00    +0.000 OA
ENDBRANCH  22  29
ENDBRANCH   2  17
TORSDOF 7
ENDMDL
MODEL 8
REMARK VINA RESULT:      -7.3      1.709      2.644
REMARK  Name = 
REMARK  10 active torsions:
REMARK  status: ('A' for Active; 'I' for Inactive)
REMARK    1  A    between atoms: C_1  and  O_2
REMARK    2  A    between atoms: O_2  and  C_3
REMARK    3  A    between atoms: C_5  and  N_6
REMARK    4  A    between atoms: C_7  and  C_9
REMARK    5  A    between atoms: C_12  and  C_13
REMARK    6  A    between atoms: C_20  and  N_21
REMARK    7  A    between atoms: C_25  and  O_26
REMARK    8  A    between atoms: O_26  and  C_27
REMARK    9  A    between atoms: C_28  and  O_29
REMARK   10  A    between atoms: O_29  and  C_30
REMARK                            x       y       z     vdW  Elec       q    Type
REMARK                         _______ _______ _______ _____ _____    ______ ____
ROOT
ATOM      1  N   UNL     1      -0.947  11.152  20.865  0.00  0.00    +0.000 N 
ATOM      2  C   UNL     1       0.119  11.290  19.990  0.00  0.00    +0.000 C 
ATOM      3  O   UNL     1       0.488  12.336  19.461  0.00  0.00    +0.000 OA
ATOM      4  H   UNL     1      -1.245  10.221  21.149  0.00  0.00    +0.000 HD
ENDROOT
BRANCH   1   7
ATOM      5  C   UNL     1      -3.821  13.544  20.996  0.00  0.00    +0.000 A 
ATOM      6  C   UNL     1      -2.860  12.656  20.497  0.00  0.00    +0.000 A 
ATOM      7  C   UNL     1      -1.797  12.214  21.271  0.00  0.00    +0.000 A 
ATOM      8  C   UNL     1      -1.589  12.825  22.504  0.00  0.00    +0.000 A 
ATOM      9  C   UNL     1      -2.475  13.812  22.989  0.00  0.00    +0.000 A 
ATOM     10  C   UNL     1      -3.625  14.163  22.245  0.00  0.00    +0.000 A 
BRANCH   5  12
ATOM     11  C   UNL     1      -5.971  12.838  20.291  0.00  0.00    +0.000 C 
ATOM     12  O   UNL     1      -4.933  13.823  20.240  0.00  0.00    +0.000 OA
ENDBRANCH   5  12
BRANCH   9  13
ATOM     13  O   UNL     1      -2.069  14.286  24.214  0.00  0.00    +0.000 OA
ATOM     14  C   UNL     1      -1.095  15.317  24.278  0.00  0.00    +0.000 C 
ENDBRANCH   9  13
BRANCH  10  15
ATOM     15  O   UNL     1      -4.451  15.110  22.791  0.00  0.00    +0.000 OA
ATOM     16  C   UNL     1      -5.521  14.710  23.634  0.00  0.00    +0.000 C 
ENDBRANCH  10  15
ENDBRANCH   1   7
BRANCH   2  17
ATOM     17  C   UNL     1       0.932  10.100  19.643  0.00  0.00    +0.000 A 
ATOM     18  C   UNL     1       1.381  10.057  18.314  0.00  0.00    +0.000 A 
ATOM     19  C   UNL     1       2.030   8.931  17.805  0.00  0.00    +0.000 A 
ATOM     20  C   UNL     1       2.289   7.800  18.598  0.00  0.00    +0.000 A 
ATOM     21  C   UNL     1       1.846   7.846  19.934  0.00  0.00    +0.000 A 
ATOM     22  C   UNL     1       1.167   8.977  20.433  0.00  0.00    +0.000 A 
BRANCH  20  23
ATOM     23  C   UNL     1       2.983   6.619  18.036  0.00  0.00    +0.000 A 
ATOM     24  C   UNL     1       4.233   6.743  17.395  0.00  0.00    +0.000 A 
ATOM     25  C   UNL     1       4.887   5.640  16.843  0.00  0.00    +0.000 A 
ATOM     26  C   UNL     1       4.316   4.376  16.931  0.00  0.00    +0.000 A 
ATOM     27  C   UNL     1       3.087   4.219  17.564  0.00  0.00    +0.000 A 
ATOM     28  C   UNL     1       2.426   5.329  18.102  0.00  0.00    +0.000 A 
ENDBRANCH  20  23
BRANCH  22  29
ATOM     29  N   UNL     1       0.665   8.894  21.784  0.00  0.00    +0.000 N 
ATOM     30  O   UNL     1      -0.432   8.343  21.940  0.00  0.00    +0.000 OA
ATOM     31  O   UNL     1       1.348   9.414  22.675  0.00  0.00    +0.000 OA
ENDBRANCH  22  29
ENDBRANCH   2  17
TORSDOF 7
ENDMDL
MODEL 9
REMARK VINA RESULT:      -7.2      1.418      3.231
REMARK  Name = 
REMARK  10 active torsions:
REMARK  status: ('A' for Active; 'I' for Inactive)
REMARK    1  A    between atoms: C_1  and  O_2
REMARK    2  A    between atoms: O_2  and  C_3
REMARK    3  A    between atoms: C_5  and  N_6
REMARK    4  A    between atoms: C_7  and  C_9
REMARK    5  A    between atoms: C_12  and  C_13
REMARK    6  A    between atoms: C_20  and  N_21
REMARK    7  A    between atoms: C_25  and  O_26
REMARK    8  A    between atoms: O_26  and  C_27
REMARK    9  A    between atoms: C_28  and  O_29
REMARK   10  A    between atoms: O_29  and  C_30
REMARK                            x       y       z     vdW  Elec       q    Type
REMARK                         _______ _______ _______ _____ _____    ______ ____
ROOT
ATOM      1  N   UNL     1      -0.414  11.634  21.390  0.00  0.00    +0.000 N 
ATOM      2  C   UNL     1      -0.505  11.047  20.137  0.00  0.00    +0.000 C 
ATOM      3  O   UNL     1      -1.339  11.312  19.275  0.00  0.00    +0.000 OA
ATOM      4  H   UNL     1       0.237  11.253  22.075  0.00  0.00    +0.000 HD
ENDROOT
BRANCH   1   7
ATOM      5  C   UNL     1      -2.005  14.958  22.032  0.00  0.00    +0.000 A 
ATOM      6  C   UNL     1      -1.035  13.986  21.753  0.00  0.00    +0.000 A 
ATOM      7  C   UNL     1      -1.299  12.630  21.877  0.00  0.00    +0.000 A 
ATOM      8  C   UNL     1      -2.497  12.250  22.473  0.00  0.00    +0.000 A 
ATOM      9  C   UNL     1      -3.450  13.210  22.874  0.00  0.00    +0.000 A 
ATOM     10  C   UNL     1      -3.223  14.585  22.629  0.00  0.00    +0.000 A 
BRANCH   5  12
ATOM     11  C   UNL     1      -0.577  16.501  20.936  0.00  0.00    +0.000 C 
ATOM     12  O   UNL     1      -1.738  16.274  21.743  0.00  0.00    +0.000 OA
ENDBRANCH   5  12
BRANCH   9  13
ATOM     13  O   UNL     1      -4.546  12.613  23.451  0.00  0.00    +0.000 OA
ATOM     14  C   UNL     1      -4.552  12.362  24.849  0.00  0.00    +0.000 C 
ENDBRANCH   9  13
BRANCH  10  15
ATOM     15  O   UNL     1      -4.204  15.456  23.024  0.00  0.00    +0.000 OA
ATOM     16  C   UNL     1      -4.168  16.015  24.329  0.00  0.00    +0.000 C 
ENDBRANCH  10  15
ENDBRANCH   1   7
BRANCH   2  17
ATOM     17  C   UNL     1       0.482  10.013  19.746  0.00  0.00    +0.000 A 
ATOM     18  C   UNL     1       0.858  10.034  18.395  0.00  0.00    +0.000 A 
ATOM     19  C   UNL     1       1.665   9.032  17.851  0.00  0.00    +0.000 A 
ATOM     20  C   UNL     1       2.160   7.972  18.630  0.00  0.00    +0.000 A 
ATOM     21  C   UNL     1       1.790   7.955  19.989  0.00  0.00    +0.000 A 
ATOM     22  C   UNL     1       0.952   8.956  20.524  0.00  0.00    +0.000 A 
BRANCH  20  23
ATOM     23  C   UNL     1       3.017   6.924  18.032  0.00  0.00    +0.000 A 
ATOM     24  C   UNL     1       4.199   7.255  17.338  0.00  0.00    +0.000 A 
ATOM     25  C   UNL     1       5.005   6.277  16.751  0.00  0.00    +0.000 A 
ATOM     26  C   UNL     1       4.659   4.936  16.856  0.00  0.00    +0.000 A 
ATOM     27  C   UNL     1       3.502   4.575  17.540  0.00  0.00    +0.000 A 
ATOM     28  C   UNL     1       2.689   5.558  18.113  0.00  0.00    +0.000 A 
ENDBRANCH  20  23
BRANCH  22  29
ATOM     29  N   UNL     1       0.548   8.801  21.900  0.00  0.00    +0.000 N 
ATOM     30  O   UNL     1      -0.476   8.138  22.111  0.00  0.00    +0.000 OA
ATOM     31  O   UNL     1       1.230   9.375  22.759  0.00  0.00    +0.000 OA
ENDBRANCH  22  29
ENDBRANCH   2  17
TORSDOF 7
ENDMDL
