MODEL 1
REMARK VINA RESULT:      -6.0      0.000      0.000
REMARK  Name = 
REMARK  11 active torsions:
REMARK  status: ('A' for Active; 'I' for Inactive)
REMARK    1  A    between atoms: C_1  and  O_2
REMARK    2  A    between atoms: O_2  and  C_3
REMARK    3  A    between atoms: C_7  and  C_8
REMARK    4  A    between atoms: C_8  and  C_9
REMARK    5  A    between atoms: C_12  and  O_13
REMARK    6  A    between atoms: O_13  and  C_14
REMARK    7  A    between atoms: C_15  and  O_16
REMARK    8  A    between atoms: O_16  and  C_17
REMARK    9  A    between atoms: N_22  and  C_23
REMARK   10  A    between atoms: C_25  and  O_26
REMARK   11  A    between atoms: O_26  and  C_27
REMARK                            x       y       z     vdW  Elec       q    Type
REMARK                         _______ _______ _______ _____ _____    ______ ____
ROOT
ATOM      1  C   UNL     1      -3.273  11.704  18.117  0.00  0.00    +0.000 C 
ATOM      2  C   UNL     1      -2.252  11.708  19.258  0.00  0.00    +0.000 A 
ATOM      3  C   UNL     1      -2.467  12.543  20.368  0.00  0.00    +0.000 A 
ATOM      4  C   UNL     1      -1.769  12.352  21.570  0.00  0.00    +0.000 A 
ATOM      5  C   UNL     1      -0.778  11.355  21.627  0.00  0.00    +0.000 A 
ATOM      6  C   UNL     1      -0.450  10.640  20.463  0.00  0.00    +0.000 A 
ATOM      7  C   UNL     1      -1.185  10.801  19.280  0.00  0.00    +0.000 A 
ATOM      8  C   UNL     1      -0.805  10.067  18.026  0.00  0.00    +0.000 C 
ATOM      9  C   UNL     1      -1.980   9.897  17.057  0.00  0.00    +0.000 C 
ATOM     10  N   UNL     1      -2.707  11.154  16.864  0.00  0.00    +0.000 NA
ATOM     11  C   UNL     1      -3.660  11.067  15.766  0.00  0.00    +0.000 C 
ENDROOT
BRANCH   4  12
ATOM     12  O   UNL     1      -2.060  13.064  22.707  0.00  0.00    +0.000 OA
ATOM     13  C   UNL     1      -1.208  14.149  23.059  0.00  0.00    +0.000 C 
ENDBRANCH   4  12
BRANCH   5  14
ATOM     14  O   UNL     1      -0.051  10.947  22.718  0.00  0.00    +0.000 OA
ATOM     15  C   UNL     1      -0.123   9.575  23.087  0.00  0.00    +0.000 C 
ENDBRANCH   5  14
BRANCH   1  16
ATOM     16  C   UNL     1      -4.687  11.178  18.609  0.00  0.00    +0.000 C 
BRANCH  16  21
ATOM     17  C   UNL     1      -7.113  13.960  20.917  0.00  0.00    +0.000 A 
ATOM     18  C   UNL     1      -6.596  14.312  19.677  0.00  0.00    +0.000 A 
ATOM     19  C   UNL     1      -6.059  13.325  18.864  0.00  0.00    +0.000 A 
ATOM     20 BR   UNL     1      -6.775  13.411  17.095  0.00  0.00    +0.000 Br
ATOM     21  C   UNL     1      -5.584  12.123  19.389  0.00  0.00    +0.000 A 
ATOM     22  C   UNL     1      -6.023  11.803  20.680  0.00  0.00    +0.000 A 
ATOM     23  C   UNL     1      -6.850  12.677  21.421  0.00  0.00    +0.000 A 
BRANCH  17  25
ATOM     24  C   UNL     1      -7.421  16.189  21.621  0.00  0.00    +0.000 C 
ATOM     25  O   UNL     1      -7.917  14.844  21.595  0.00  0.00    +0.000 OA
ENDBRANCH  17  25
BRANCH  23  26
ATOM     26  O   UNL     1      -7.333  12.095  22.562  0.00  0.00    +0.000 OA
ATOM     27  C   UNL     1      -6.836  12.547  23.801  0.00  0.00    +0.000 C 
ENDBRANCH  23  26
ENDBRANCH  16  21
ENDBRANCH   1  16
TORSDOF 6
ENDMDL
MODEL 2
REMARK VINA RESULT:      -5.8      4.051      8.361
REMARK  Name = 
REMARK  11 active torsions:
REMARK  status: ('A' for Active; 'I' for Inactive)
REMARK    1  A    between atoms: C_1  and  O_2
REMARK    2  A    between atoms: O_2  and  C_3
REMARK    3  A    between atoms: C_7  and  C_8
REMARK    4  A    between atoms: C_8  and  C_9
REMARK    5  A    between atoms: C_12  and  O_13
REMARK    6  A    between atoms: O_13  and  C_14
REMARK    7  A    between atoms: C_15  and  O_16
REMARK    8  A    between atoms: O_16  and  C_17
REMARK    9  A    between atoms: N_22  and  C_23
REMARK   10  A    between atoms: C_25  and  O_26
REMARK   11  A    between atoms: O_26  and  C_27
REMARK                            x       y       z     vdW  Elec       q    Type
REMARK                         _______ _______ _______ _____ _____    ______ ____
ROOT
ATOM      1  C   UNL     1      -0.296  11.599  19.773  0.00  0.00    +0.000 C 
ATOM      2  C   UNL     1      -1.636  11.600  19.033  0.00  0.00    +0.000 A 
ATOM      3  C   UNL     1      -1.813  10.744  17.933  0.00  0.00    +0.000 A 
ATOM      4  C   UNL     1      -3.091  10.454  17.433  0.00  0.00    +0.000 A 
ATOM      5  C   UNL     1      -4.203  11.104  17.999  0.00  0.00    +0.000 A 
ATOM      6  C   UNL     1      -4.002  12.087  18.981  0.00  0.00    +0.000 A 
ATOM      7  C   UNL     1      -2.728  12.334  19.511  0.00  0.00    +0.000 A 
ATOM      8  C   UNL     1      -2.511  13.415  20.532  0.00  0.00    +0.000 C 
ATOM      9  C   UNL     1      -1.267  13.177  21.395  0.00  0.00    +0.000 C 
ATOM     10  N   UNL     1      -0.102  12.826  20.578  0.00  0.00    +0.000 NA
ATOM     11  C   UNL     1       1.130  12.843  21.355  0.00  0.00    +0.000 C 
ENDROOT
BRANCH   4  12
ATOM     12  O   UNL     1      -3.299   9.516  16.452  0.00  0.00    +0.000 OA
ATOM     13  C   UNL     1      -3.024   9.880  15.103  0.00  0.00    +0.000 C 
ENDBRANCH   4  12
BRANCH   5  14
ATOM     14  O   UNL     1      -5.532  10.899  17.723  0.00  0.00    +0.000 OA
ATOM     15  C   UNL     1      -6.377  10.497  18.794  0.00  0.00    +0.000 C 
ENDBRANCH   5  14
BRANCH   1  16
ATOM     16  C   UNL     1      -0.011  10.192  20.449  0.00  0.00    +0.000 C 
BRANCH  16  21
ATOM     17  C   UNL     1       2.519   7.327  18.367  0.00  0.00    +0.000 A 
ATOM     18  C   UNL     1       2.059   8.474  17.735  0.00  0.00    +0.000 A 
ATOM     19  C   UNL     1       1.485   9.481  18.497  0.00  0.00    +0.000 A 
ATOM     20 BR   UNL     1       2.253  11.184  18.098  0.00  0.00    +0.000 Br
ATOM     21  C   UNL     1       0.921   9.222  19.746  0.00  0.00    +0.000 A 
ATOM     22  C   UNL     1       1.304   8.019  20.352  0.00  0.00    +0.000 A 
ATOM     23  C   UNL     1       2.163   7.101  19.705  0.00  0.00    +0.000 A 
BRANCH  17  25
ATOM     24  C   UNL     1       4.499   7.106  17.106  0.00  0.00    +0.000 C 
ATOM     25  O   UNL     1       3.358   6.470  17.696  0.00  0.00    +0.000 OA
ENDBRANCH  17  25
BRANCH  23  26
ATOM     26  O   UNL     1       2.578   6.099  20.540  0.00  0.00    +0.000 OA
ATOM     27  C   UNL     1       1.794   4.930  20.616  0.00  0.00    +0.000 C 
ENDBRANCH  23  26
ENDBRANCH  16  21
ENDBRANCH   1  16
TORSDOF 6
ENDMDL
MODEL 3
REMARK VINA RESULT:      -5.8      3.013      4.976
REMARK  Name = 
REMARK  11 active torsions:
REMARK  status: ('A' for Active; 'I' for Inactive)
REMARK    1  A    between atoms: C_1  and  O_2
REMARK    2  A    between atoms: O_2  and  C_3
REMARK    3  A    between atoms: C_7  and  C_8
REMARK    4  A    between atoms: C_8  and  C_9
REMARK    5  A    between atoms: C_12  and  O_13
REMARK    6  A    between atoms: O_13  and  C_14
REMARK    7  A    between atoms: C_15  and  O_16
REMARK    8  A    between atoms: O_16  and  C_17
REMARK    9  A    between atoms: N_22  and  C_23
REMARK   10  A    between atoms: C_25  and  O_26
REMARK   11  A    between atoms: O_26  and  C_27
REMARK                            x       y       z     vdW  Elec       q    Type
REMARK                         _______ _______ _______ _____ _____    ______ ____
ROOT
ATOM      1  C   UNL     1      -1.434  11.159  20.066  0.00  0.00    +0.000 C 
ATOM      2  C   UNL     1      -2.124  10.890  18.726  0.00  0.00    +0.000 A 
ATOM      3  C   UNL     1      -3.443  11.332  18.532  0.00  0.00    +0.000 A 
ATOM      4  C   UNL     1      -4.002  11.418  17.248  0.00  0.00    +0.000 A 
ATOM      5  C   UNL     1      -3.246  10.971  16.149  0.00  0.00    +0.000 A 
ATOM      6  C   UNL     1      -1.996  10.370  16.370  0.00  0.00    +0.000 A 
ATOM      7  C   UNL     1      -1.423  10.334  17.648  0.00  0.00    +0.000 A 
ATOM      8  C   UNL     1      -0.105   9.654  17.887  0.00  0.00    +0.000 C 
ATOM      9  C   UNL     1       0.623  10.186  19.127  0.00  0.00    +0.000 C 
ATOM     10  N   UNL     1      -0.272  10.269  20.284  0.00  0.00    +0.000 NA
ATOM     11  C   UNL     1       0.459  10.531  21.517  0.00  0.00    +0.000 C 
ENDROOT
BRANCH   4  12
ATOM     12  O   UNL     1      -5.236  11.976  17.022  0.00  0.00    +0.000 OA
ATOM     13  C   UNL     1      -6.285  11.689  17.941  0.00  0.00    +0.000 C 
ENDBRANCH   4  12
BRANCH   5  14
ATOM     14  O   UNL     1      -3.565  11.050  14.816  0.00  0.00    +0.000 OA
ATOM     15  C   UNL     1      -3.232   9.942  13.989  0.00  0.00    +0.000 C 
ENDBRANCH   5  14
BRANCH   1  16
ATOM     16  C   UNL     1      -1.261  12.715  20.324  0.00  0.00    +0.000 C 
BRANCH  16  21
ATOM     17  C   UNL     1      -3.701  14.569  23.416  0.00  0.00    +0.000 A 
ATOM     18  C   UNL     1      -2.582  15.210  22.900  0.00  0.00    +0.000 A 
ATOM     19  C   UNL     1      -1.991  14.714  21.748  0.00  0.00    +0.000 A 
ATOM     20 BR   UNL     1      -1.721  16.093  20.453  0.00  0.00    +0.000 Br
ATOM     21  C   UNL     1      -2.149  13.385  21.358  0.00  0.00    +0.000 A 
ATOM     22  C   UNL     1      -3.219  12.698  21.946  0.00  0.00    +0.000 A 
ATOM     23  C   UNL     1      -4.047  13.305  22.917  0.00  0.00    +0.000 A 
BRANCH  17  25
ATOM     24  C   UNL     1      -3.883  16.388  24.905  0.00  0.00    +0.000 C 
ATOM     25  O   UNL     1      -4.477  15.205  24.354  0.00  0.00    +0.000 OA
ENDBRANCH  17  25
BRANCH  23  26
ATOM     26  O   UNL     1      -5.149  12.546  23.209  0.00  0.00    +0.000 OA
ATOM     27  C   UNL     1      -6.344  12.813  22.510  0.00  0.00    +0.000 C 
ENDBRANCH  23  26
ENDBRANCH  16  21
ENDBRANCH   1  16
TORSDOF 6
ENDMDL
MODEL 4
REMARK VINA RESULT:      -5.7      3.037      6.651
REMARK  Name = 
REMARK  11 active torsions:
REMARK  status: ('A' for Active; 'I' for Inactive)
REMARK    1  A    between atoms: C_1  and  O_2
REMARK    2  A    between atoms: O_2  and  C_3
REMARK    3  A    between atoms: C_7  and  C_8
REMARK    4  A    between atoms: C_8  and  C_9
REMARK    5  A    between atoms: C_12  and  O_13
REMARK    6  A    between atoms: O_13  and  C_14
REMARK    7  A    between atoms: C_15  and  O_16
REMARK    8  A    between atoms: O_16  and  C_17
REMARK    9  A    between atoms: N_22  and  C_23
REMARK   10  A    between atoms: C_25  and  O_26
REMARK   11  A    between atoms: O_26  and  C_27
REMARK                            x       y       z     vdW  Elec       q    Type
REMARK                         _______ _______ _______ _____ _____    ______ ____
ROOT
ATOM      1  C   UNL     1      -1.067  14.049  19.665  0.00  0.00    +0.000 C 
ATOM      2  C   UNL     1      -1.896  13.691  20.902  0.00  0.00    +0.000 A 
ATOM      3  C   UNL     1      -3.248  13.345  20.745  0.00  0.00    +0.000 A 
ATOM      4  C   UNL     1      -3.958  12.694  21.765  0.00  0.00    +0.000 A 
ATOM      5  C   UNL     1      -3.316  12.463  22.995  0.00  0.00    +0.000 A 
ATOM      6  C   UNL     1      -2.021  12.965  23.204  0.00  0.00    +0.000 A 
ATOM      7  C   UNL     1      -1.300  13.569  22.164  0.00  0.00    +0.000 A 
ATOM      8  C   UNL     1       0.068  14.143  22.401  0.00  0.00    +0.000 C 
ATOM      9  C   UNL     1       0.910  14.221  21.123  0.00  0.00    +0.000 C 
ATOM     10  N   UNL     1       0.155  14.809  20.014  0.00  0.00    +0.000 NA
ATOM     11  C   UNL     1       1.012  15.116  18.876  0.00  0.00    +0.000 C 
ENDROOT
BRANCH   4  12
ATOM     12  O   UNL     1      -5.235  12.224  21.585  0.00  0.00    +0.000 OA
ATOM     13  C   UNL     1      -5.774  12.224  20.267  0.00  0.00    +0.000 C 
ENDBRANCH   4  12
BRANCH   5  14
ATOM     14  O   UNL     1      -3.793  11.770  24.080  0.00  0.00    +0.000 OA
ATOM     15  C   UNL     1      -4.671  12.451  24.968  0.00  0.00    +0.000 C 
ENDBRANCH   5  14
BRANCH   1  16
ATOM     16  C   UNL     1      -0.940  12.813  18.678  0.00  0.00    +0.000 C 
BRANCH  16  21
ATOM     17  C   UNL     1       0.992   9.132  19.966  0.00  0.00    +0.000 A 
ATOM     18  C   UNL     1       1.418   9.810  18.832  0.00  0.00    +0.000 A 
ATOM     19  C   UNL     1       0.960  11.099  18.604  0.00  0.00    +0.000 A 
ATOM     20 BR   UNL     1       2.402  12.295  18.226  0.00  0.00    +0.000 Br
ATOM     21  C   UNL     1      -0.229  11.563  19.164  0.00  0.00    +0.000 A 
ATOM     22  C   UNL     1      -0.721  10.829  20.251  0.00  0.00    +0.000 A 
ATOM     23  C   UNL     1      -0.076   9.658  20.709  0.00  0.00    +0.000 A 
BRANCH  17  25
ATOM     24  C   UNL     1       2.374   7.332  19.327  0.00  0.00    +0.000 C 
ATOM     25  O   UNL     1       1.658   8.001  20.373  0.00  0.00    +0.000 OA
ENDBRANCH  17  25
BRANCH  23  26
ATOM     26  O   UNL     1      -0.588   9.212  21.897  0.00  0.00    +0.000 OA
ATOM     27  C   UNL     1      -0.067   9.751  23.090  0.00  0.00    +0.000 C 
ENDBRANCH  23  26
ENDBRANCH  16  21
ENDBRANCH   1  16
TORSDOF 6
ENDMDL
MODEL 5
REMARK VINA RESULT:      -5.7      2.963      5.603
REMARK  Name = 
REMARK  11 active torsions:
REMARK  status: ('A' for Active; 'I' for Inactive)
REMARK    1  A    between atoms: C_1  and  O_2
REMARK    2  A    between atoms: O_2  and  C_3
REMARK    3  A    between atoms: C_7  and  C_8
REMARK    4  A    between atoms: C_8  and  C_9
REMARK    5  A    between atoms: C_12  and  O_13
REMARK    6  A    between atoms: O_13  and  C_14
REMARK    7  A    between atoms: C_15  and  O_16
REMARK    8  A    between atoms: O_16  and  C_17
REMARK    9  A    between atoms: N_22  and  C_23
REMARK   10  A    between atoms: C_25  and  O_26
REMARK   11  A    between atoms: O_26  and  C_27
REMARK                            x       y       z     vdW  Elec       q    Type
REMARK                         _______ _______ _______ _____ _____    ______ ____
ROOT
ATOM      1  C   UNL     1      -5.404  13.182  20.030  0.00  0.00    +0.000 C 
ATOM      2  C   UNL     1      -4.702  12.448  18.885  0.00  0.00    +0.000 A 
ATOM      3  C   UNL     1      -3.298  12.435  18.837  0.00  0.00    +0.000 A 
ATOM      4  C   UNL     1      -2.604  11.522  18.030  0.00  0.00    +0.000 A 
ATOM      5  C   UNL     1      -3.340  10.663  17.192  0.00  0.00    +0.000 A 
ATOM      6  C   UNL     1      -4.735  10.801  17.117  0.00  0.00    +0.000 A 
ATOM      7  C   UNL     1      -5.425  11.680  17.964  0.00  0.00    +0.000 A 
ATOM      8  C   UNL     1      -6.913  11.855  17.853  0.00  0.00    +0.000 C 
ATOM      9  C   UNL     1      -7.552  12.359  19.151  0.00  0.00    +0.000 C 
ATOM     10  N   UNL     1      -6.815  13.495  19.710  0.00  0.00    +0.000 NA
ATOM     11  C   UNL     1      -7.547  14.135  20.796  0.00  0.00    +0.000 C 
ENDROOT
BRANCH   4  12
ATOM     12  O   UNL     1      -1.238  11.397  18.071  0.00  0.00    +0.000 OA
ATOM     13  C   UNL     1      -0.653  10.745  19.194  0.00  0.00    +0.000 C 
ENDBRANCH   4  12
BRANCH   5  14
ATOM     14  O   UNL     1      -2.868   9.646  16.400  0.00  0.00    +0.000 OA
ATOM     15  C   UNL     1      -2.894   9.836  14.991  0.00  0.00    +0.000 C 
ENDBRANCH   5  14
BRANCH   1  16
ATOM     16  C   UNL     1      -5.071  12.517  21.432  0.00  0.00    +0.000 C 
BRANCH  16  21
ATOM     17  C   UNL     1      -1.684  14.173  23.608  0.00  0.00    +0.000 A 
ATOM     18  C   UNL     1      -2.820  14.932  23.358  0.00  0.00    +0.000 A 
ATOM     19  C   UNL     1      -3.967  14.300  22.902  0.00  0.00    +0.000 A 
ATOM     20 BR   UNL     1      -5.495  14.796  23.936  0.00  0.00    +0.000 Br
ATOM     21  C   UNL     1      -3.914  13.072  22.244  0.00  0.00    +0.000 A 
ATOM     22  C   UNL     1      -2.732  12.339  22.411  0.00  0.00    +0.000 A 
ATOM     23  C   UNL     1      -1.642  12.846  23.155  0.00  0.00    +0.000 A 
BRANCH  17  25
ATOM     24  C   UNL     1      -0.940  16.002  24.897  0.00  0.00    +0.000 C 
ATOM     25  O   UNL     1      -0.655  14.711  24.342  0.00  0.00    +0.000 OA
ENDBRANCH  17  25
BRANCH  23  26
ATOM     26  O   UNL     1      -0.675  11.902  23.372  0.00  0.00    +0.000 OA
ATOM     27  C   UNL     1      -0.964  10.565  23.033  0.00  0.00    +0.000 C 
ENDBRANCH  23  26
ENDBRANCH  16  21
ENDBRANCH   1  16
TORSDOF 6
ENDMDL
MODEL 6
REMARK VINA RESULT:      -5.7      2.943      5.472
REMARK  Name = 
REMARK  11 active torsions:
REMARK  status: ('A' for Active; 'I' for Inactive)
REMARK    1  A    between atoms: C_1  and  O_2
REMARK    2  A    between atoms: O_2  and  C_3
REMARK    3  A    between atoms: C_7  and  C_8
REMARK    4  A    between atoms: C_8  and  C_9
REMARK    5  A    between atoms: C_12  and  O_13
REMARK    6  A    between atoms: O_13  and  C_14
REMARK    7  A    between atoms: C_15  and  O_16
REMARK    8  A    between atoms: O_16  and  C_17
REMARK    9  A    between atoms: N_22  and  C_23
REMARK   10  A    between atoms: C_25  and  O_26
REMARK   11  A    between atoms: O_26  and  C_27
REMARK                            x       y       z     vdW  Elec       q    Type
REMARK                         _______ _______ _______ _____ _____    ______ ____
ROOT
ATOM      1  C   UNL     1      -1.351  11.414  20.064  0.00  0.00    +0.000 C 
ATOM      2  C   UNL     1      -2.143  11.046  18.807  0.00  0.00    +0.000 A 
ATOM      3  C   UNL     1      -3.470  11.490  18.678  0.00  0.00    +0.000 A 
ATOM      4  C   UNL     1      -4.126  11.478  17.437  0.00  0.00    +0.000 A 
ATOM      5  C   UNL     1      -3.460  10.932  16.325  0.00  0.00    +0.000 A 
ATOM      6  C   UNL     1      -2.202  10.334  16.498  0.00  0.00    +0.000 A 
ATOM      7  C   UNL     1      -1.532  10.394  17.728  0.00  0.00    +0.000 A 
ATOM      8  C   UNL     1      -0.205   9.717  17.922  0.00  0.00    +0.000 C 
ATOM      9  C   UNL     1       0.621  10.338  19.054  0.00  0.00    +0.000 C 
ATOM     10  N   UNL     1      -0.182  10.528  20.265  0.00  0.00    +0.000 NA
ATOM     11  C   UNL     1       0.644  10.880  21.413  0.00  0.00    +0.000 C 
ENDROOT
BRANCH   4  12
ATOM     12  O   UNL     1      -5.368  12.033  17.260  0.00  0.00    +0.000 OA
ATOM     13  C   UNL     1      -6.459  11.495  18.000  0.00  0.00    +0.000 C 
ENDBRANCH   4  12
BRANCH   5  14
ATOM     14  O   UNL     1      -3.880  10.906  15.018  0.00  0.00    +0.000 OA
ATOM     15  C   UNL     1      -3.183  10.057  14.115  0.00  0.00    +0.000 C 
ENDBRANCH   5  14
BRANCH   1  16
ATOM     16  C   UNL     1      -1.146  12.984  20.178  0.00  0.00    +0.000 C 
BRANCH  16  21
ATOM     17  C   UNL     1      -2.101  14.881  23.978  0.00  0.00    +0.000 A 
ATOM     18  C   UNL     1      -1.178  15.441  23.104  0.00  0.00    +0.000 A 
ATOM     19  C   UNL     1      -1.097  14.959  21.807  0.00  0.00    +0.000 A 
ATOM     20 BR   UNL     1      -1.159  16.377  20.529  0.00  0.00    +0.000 Br
ATOM     21  C   UNL     1      -1.527  13.674  21.476  0.00  0.00    +0.000 A 
ATOM     22  C   UNL     1      -2.383  13.059  22.398  0.00  0.00    +0.000 A 
ATOM     23  C   UNL     1      -2.738  13.686  23.614  0.00  0.00    +0.000 A 
BRANCH  17  25
ATOM     24  C   UNL     1      -1.327  15.645  26.070  0.00  0.00    +0.000 C 
ATOM     25  O   UNL     1      -2.416  15.534  25.145  0.00  0.00    +0.000 OA
ENDBRANCH  17  25
BRANCH  23  26
ATOM     26  O   UNL     1      -3.738  13.020  24.270  0.00  0.00    +0.000 OA
ATOM     27  C   UNL     1      -5.021  13.004  23.687  0.00  0.00    +0.000 C 
ENDBRANCH  23  26
ENDBRANCH  16  21
ENDBRANCH   1  16
TORSDOF 6
ENDMDL
MODEL 7
REMARK VINA RESULT:      -5.6      1.231      1.261
REMARK  Name = 
REMARK  11 active torsions:
REMARK  status: ('A' for Active; 'I' for Inactive)
REMARK    1  A    between atoms: C_1  and  O_2
REMARK    2  A    between atoms: O_2  and  C_3
REMARK    3  A    between atoms: C_7  and  C_8
REMARK    4  A    between atoms: C_8  and  C_9
REMARK    5  A    between atoms: C_12  and  O_13
REMARK    6  A    between atoms: O_13  and  C_14
REMARK    7  A    between atoms: C_15  and  O_16
REMARK    8  A    between atoms: O_16  and  C_17
REMARK    9  A    between atoms: N_22  and  C_23
REMARK   10  A    between atoms: C_25  and  O_26
REMARK   11  A    between atoms: O_26  and  C_27
REMARK                            x       y       z     vdW  Elec       q    Type
REMARK                         _______ _______ _______ _____ _____    ______ ____
ROOT
ATOM      1  C   UNL     1      -3.191  11.896  18.472  0.00  0.00    +0.000 C 
ATOM      2  C   UNL     1      -1.873  11.673  19.220  0.00  0.00    +0.000 A 
ATOM      3  C   UNL     1      -1.569  12.480  20.329  0.00  0.00    +0.000 A 
ATOM      4  C   UNL     1      -0.567  12.118  21.242  0.00  0.00    +0.000 A 
ATOM      5  C   UNL     1       0.197  10.965  20.985  0.00  0.00    +0.000 A 
ATOM      6  C   UNL     1       0.003  10.259  19.787  0.00  0.00    +0.000 A 
ATOM      7  C   UNL     1      -1.033  10.597  18.905  0.00  0.00    +0.000 A 
ATOM      8  C   UNL     1      -1.212   9.868  17.604  0.00  0.00    +0.000 C 
ATOM      9  C   UNL     1      -2.647   9.946  17.070  0.00  0.00    +0.000 C 
ATOM     10  N   UNL     1      -3.164  11.316  17.110  0.00  0.00    +0.000 NA
ATOM     11  C   UNL     1      -4.419  11.444  16.382  0.00  0.00    +0.000 C 
ENDROOT
BRANCH   4  12
ATOM     12  O   UNL     1      -0.346  12.815  22.403  0.00  0.00    +0.000 OA
ATOM     13  C   UNL     1      -1.468  13.152  23.211  0.00  0.00    +0.000 C 
ENDBRANCH   4  12
BRANCH   5  14
ATOM     14  O   UNL     1       1.153  10.389  21.786  0.00  0.00    +0.000 OA
ATOM     15  C   UNL     1       0.758   9.300  22.611  0.00  0.00    +0.000 C 
ENDBRANCH   5  14
BRANCH   1  16
ATOM     16  C   UNL     1      -4.440  11.597  19.403  0.00  0.00    +0.000 C 
BRANCH  16  21
ATOM     17  C   UNL     1      -6.331  15.043  21.274  0.00  0.00    +0.000 A 
ATOM     18  C   UNL     1      -6.398  14.840  19.902  0.00  0.00    +0.000 A 
ATOM     19  C   UNL     1      -6.019  13.612  19.381  0.00  0.00    +0.000 A 
ATOM     20 BR   UNL     1      -7.348  12.915  18.199  0.00  0.00    +0.000 Br
ATOM     21  C   UNL     1      -5.150  12.764  20.066  0.00  0.00    +0.000 A 
ATOM     22  C   UNL     1      -4.999  13.018  21.435  0.00  0.00    +0.000 A 
ATOM     23  C   UNL     1      -5.645  14.107  22.063  0.00  0.00    +0.000 A 
BRANCH  17  25
ATOM     24  C   UNL     1      -6.253  17.346  21.772  0.00  0.00    +0.000 C 
ATOM     25  O   UNL     1      -6.982  16.113  21.837  0.00  0.00    +0.000 OA
ENDBRANCH  17  25
BRANCH  23  26
ATOM     26  O   UNL     1      -5.537  14.060  23.427  0.00  0.00    +0.000 OA
ATOM     27  C   UNL     1      -5.880  12.858  24.080  0.00  0.00    +0.000 C 
ENDBRANCH  23  26
ENDBRANCH  16  21
ENDBRANCH   1  16
TORSDOF 6
ENDMDL
MODEL 8
REMARK VINA RESULT:      -5.6      2.868      5.862
REMARK  Name = 
REMARK  11 active torsions:
REMARK  status: ('A' for Active; 'I' for Inactive)
REMARK    1  A    between atoms: C_1  and  O_2
REMARK    2  A    between atoms: O_2  and  C_3
REMARK    3  A    between atoms: C_7  and  C_8
REMARK    4  A    between atoms: C_8  and  C_9
REMARK    5  A    between atoms: C_12  and  O_13
REMARK    6  A    between atoms: O_13  and  C_14
REMARK    7  A    between atoms: C_15  and  O_16
REMARK    8  A    between atoms: O_16  and  C_17
REMARK    9  A    between atoms: N_22  and  C_23
REMARK   10  A    between atoms: C_25  and  O_26
REMARK   11  A    between atoms: O_26  and  C_27
REMARK                            x       y       z     vdW  Elec       q    Type
REMARK                         _______ _______ _______ _____ _____    ______ ____
ROOT
ATOM      1  C   UNL     1      -5.143  12.548  21.801  0.00  0.00    +0.000 C 
ATOM      2  C   UNL     1      -4.255  13.232  22.844  0.00  0.00    +0.000 A 
ATOM      3  C   UNL     1      -2.858  13.142  22.719  0.00  0.00    +0.000 A 
ATOM      4  C   UNL     1      -2.006  14.004  23.426  0.00  0.00    +0.000 A 
ATOM      5  C   UNL     1      -2.569  14.917  24.336  0.00  0.00    +0.000 A 
ATOM      6  C   UNL     1      -3.951  14.883  24.581  0.00  0.00    +0.000 A 
ATOM      7  C   UNL     1      -4.802  14.055  23.836  0.00  0.00    +0.000 A 
ATOM      8  C   UNL     1      -6.274  13.990  24.130  0.00  0.00    +0.000 C 
ATOM      9  C   UNL     1      -7.102  13.531  22.925  0.00  0.00    +0.000 C 
ATOM     10  N   UNL     1      -6.524  12.341  22.294  0.00  0.00    +0.000 NA
ATOM     11  C   UNL     1      -7.427  11.753  21.314  0.00  0.00    +0.000 C 
ENDROOT
BRANCH   4  12
ATOM     12  O   UNL     1      -0.649  14.028  23.217  0.00  0.00    +0.000 OA
ATOM     13  C   UNL     1      -0.162  14.621  22.018  0.00  0.00    +0.000 C 
ENDBRANCH   4  12
BRANCH   5  14
ATOM     14  O   UNL     1      -1.931  15.900  25.052  0.00  0.00    +0.000 OA
ATOM     15  C   UNL     1      -2.020  17.235  24.570  0.00  0.00    +0.000 C 
ENDBRANCH   5  14
BRANCH   1  16
ATOM     16  C   UNL     1      -4.936  13.182  20.361  0.00  0.00    +0.000 C 
BRANCH  16  21
ATOM     17  C   UNL     1      -3.335  10.537  17.297  0.00  0.00    +0.000 A 
ATOM     18  C   UNL     1      -4.694  10.816  17.370  0.00  0.00    +0.000 A 
ATOM     19  C   UNL     1      -5.127  11.855  18.179  0.00  0.00    +0.000 A 
ATOM     20 BR   UNL     1      -6.301  13.032  17.237  0.00  0.00    +0.000 Br
ATOM     21  C   UNL     1      -4.367  12.309  19.257  0.00  0.00    +0.000 A 
ATOM     22  C   UNL     1      -3.013  11.952  19.244  0.00  0.00    +0.000 A 
ATOM     23  C   UNL     1      -2.471  11.132  18.228  0.00  0.00    +0.000 A 
BRANCH  17  25
ATOM     24  C   UNL     1      -2.924  10.335  14.984  0.00  0.00    +0.000 C 
ATOM     25  O   UNL     1      -2.858   9.739  16.286  0.00  0.00    +0.000 OA
ENDBRANCH  17  25
BRANCH  23  26
ATOM     26  O   UNL     1      -1.104  11.073  18.280  0.00  0.00    +0.000 OA
ATOM     27  C   UNL     1      -0.483  11.152  19.543  0.00  0.00    +0.000 C 
ENDBRANCH  23  26
ENDBRANCH  16  21
ENDBRANCH   1  16
TORSDOF 6
ENDMDL
MODEL 9
REMARK VINA RESULT:      -5.6      3.141      5.887
REMARK  Name = 
REMARK  11 active torsions:
REMARK  status: ('A' for Active; 'I' for Inactive)
REMARK    1  A    between atoms: C_1  and  O_2
REMARK    2  A    between atoms: O_2  and  C_3
REMARK    3  A    between atoms: C_7  and  C_8
REMARK    4  A    between atoms: C_8  and  C_9
REMARK    5  A    between atoms: C_12  and  O_13
REMARK    6  A    between atoms: O_13  and  C_14
REMARK    7  A    between atoms: C_15  and  O_16
REMARK    8  A    between atoms: O_16  and  C_17
REMARK    9  A    between atoms: N_22  and  C_23
REMARK   10  A    between atoms: C_25  and  O_26
REMARK   11  A    between atoms: O_26  and  C_27
REMARK                            x       y       z     vdW  Elec       q    Type
REMARK                         _______ _______ _______ _____ _____    ______ ____
ROOT
ATOM      1  C   UNL     1      -5.503  13.129  20.791  0.00  0.00    +0.000 C 
ATOM      2  C   UNL     1      -4.959  12.383  19.569  0.00  0.00    +0.000 A 
ATOM      3  C   UNL     1      -3.631  12.602  19.167  0.00  0.00    +0.000 A 
ATOM      4  C   UNL     1      -2.980  11.722  18.288  0.00  0.00    +0.000 A 
ATOM      5  C   UNL     1      -3.709  10.651  17.741  0.00  0.00    +0.000 A 
ATOM      6  C   UNL     1      -5.082  10.540  18.012  0.00  0.00    +0.000 A 
ATOM      7  C   UNL     1      -5.713  11.391  18.931  0.00  0.00    +0.000 A 
ATOM      8  C   UNL     1      -7.190  11.296  19.187  0.00  0.00    +0.000 C 
ATOM      9  C   UNL     1      -7.592  11.848  20.559  0.00  0.00    +0.000 C 
ATOM     10  N   UNL     1      -6.983  13.155  20.815  0.00  0.00    +0.000 NA
ATOM     11  C   UNL     1      -7.550  13.797  21.994  0.00  0.00    +0.000 C 
ENDROOT
BRANCH   4  12
ATOM     12  O   UNL     1      -1.645  11.837  17.991  0.00  0.00    +0.000 OA
ATOM     13  C   UNL     1      -0.816  12.570  18.886  0.00  0.00    +0.000 C 
ENDBRANCH   4  12
BRANCH   5  14
ATOM     14  O   UNL     1      -3.246   9.635  16.942  0.00  0.00    +0.000 OA
ATOM     15  C   UNL     1      -3.074   9.906  15.557  0.00  0.00    +0.000 C 
ENDBRANCH   5  14
BRANCH   1  16
ATOM     16  C   UNL     1      -4.726  12.717  22.112  0.00  0.00    +0.000 C 
BRANCH  16  21
ATOM     17  C   UNL     1      -0.507  13.768  22.311  0.00  0.00    +0.000 A 
ATOM     18  C   UNL     1      -1.471  14.715  21.991  0.00  0.00    +0.000 A 
ATOM     19  C   UNL     1      -2.809  14.412  22.194  0.00  0.00    +0.000 A 
ATOM     20 BR   UNL     1      -3.698  15.794  23.168  0.00  0.00    +0.000 Br
ATOM     21  C   UNL     1      -3.261  13.094  22.242  0.00  0.00    +0.000 A 
ATOM     22  C   UNL     1      -2.282  12.119  22.470  0.00  0.00    +0.000 A 
ATOM     23  C   UNL     1      -0.913  12.453  22.584  0.00  0.00    +0.000 A 
BRANCH  17  25
ATOM     24  C   UNL     1       1.032  15.554  22.257  0.00  0.00    +0.000 C 
ATOM     25  O   UNL     1       0.810  14.147  22.416  0.00  0.00    +0.000 OA
ENDBRANCH  17  25
BRANCH  23  26
ATOM     26  O   UNL     1      -0.153  11.398  23.008  0.00  0.00    +0.000 OA
ATOM     27  C   UNL     1      -0.764  10.131  23.097  0.00  0.00    +0.000 C 
ENDBRANCH  23  26
ENDBRANCH  16  21
ENDBRANCH   1  16
TORSDOF 6
ENDMDL
