MODEL 1
REMARK VINA RESULT:      -7.6      0.000      0.000
REMARK  Name = 
REMARK  5 active torsions:
REMARK  status: ('A' for Active; 'I' for Inactive)
REMARK    1  A    between atoms: C_1  and  N_2
REMARK    2  A    between atoms: N_2  and  C_3
REMARK    3  A    between atoms: N_2  and  S_21
REMARK    4  A    between atoms: C_6  and  C_7
REMARK    5  A    between atoms: S_21  and  C_22
REMARK                            x       y       z     vdW  Elec       q    Type
REMARK                         _______ _______ _______ _____ _____    ______ ____
ROOT
ATOM      1  C   UNL     1       3.006   6.223  18.638  0.00  0.00    +0.000 A 
ATOM      2  C   UNL     1       3.270   7.027  17.525  0.00  0.00    +0.000 A 
ATOM      3  C   UNL     1       2.818   8.359  17.483  0.00  0.00    +0.000 A 
ATOM      4  C   UNL     1       2.101   8.896  18.558  0.00  0.00    +0.000 A 
ATOM      5  C   UNL     1       1.823   8.070  19.662  0.00  0.00    +0.000 A 
ATOM      6  C   UNL     1       2.280   6.747  19.706  0.00  0.00    +0.000 A 
ENDROOT
BRANCH   4   7
ATOM      7  C   UNL     1       1.411  10.220  18.485  0.00  0.00    +0.000 C 
ATOM      8  O   UNL     1       2.127  11.222  18.553  0.00  0.00    +0.000 OA
ATOM      9  N   UNL     1       0.018  10.321  18.476  0.00  0.00    +0.000 N 
ATOM     10  C   UNL     1      -0.527  11.618  18.890  0.00  0.00    +0.000 C 
ATOM     11  C   UNL     1      -1.981  11.484  19.337  0.00  0.00    +0.000 C 
ATOM     12  C   UNL     1      -2.754  11.099  18.105  0.00  0.00    +0.000 A 
ATOM     13  C   UNL     1      -3.950  11.743  17.773  0.00  0.00    +0.000 A 
ATOM     14  C   UNL     1      -4.523  11.523  16.526  0.00  0.00    +0.000 A 
ATOM     15  C   UNL     1      -3.916  10.645  15.627  0.00  0.00    +0.000 A 
ATOM     16  C   UNL     1      -2.750   9.949  15.983  0.00  0.00    +0.000 A 
ATOM     17  C   UNL     1      -2.153  10.169  17.228  0.00  0.00    +0.000 A 
ATOM     18  C   UNL     1      -0.872   9.462  17.666  0.00  0.00    +0.000 C 
ENDBRANCH   4   7
BRANCH   1  20
ATOM     19  C   UNL     1       4.760   4.524  19.219  0.00  0.00    +0.000 C 
ATOM     20  N   UNL     1       3.430   4.859  18.695  0.00  0.00    +0.000 N 
BRANCH  20  21
ATOM     21  S   UNL     1       2.285   3.627  18.572  0.00  0.00    +0.000 S 
ATOM     22  C   UNL     1       3.246   2.302  17.868  0.00  0.00    +0.000 C 
ATOM     23  O   UNL     1       1.872   3.219  19.897  0.00  0.00    +0.000 OA
ATOM     24  O   UNL     1       1.308   4.024  17.577  0.00  0.00    +0.000 OA
ENDBRANCH  20  21
ENDBRANCH   1  20
TORSDOF 3
ENDMDL
MODEL 2
REMARK VINA RESULT:      -7.6      1.384      1.605
REMARK  Name = 
REMARK  5 active torsions:
REMARK  status: ('A' for Active; 'I' for Inactive)
REMARK    1  A    between atoms: C_1  and  N_2
REMARK    2  A    between atoms: N_2  and  C_3
REMARK    3  A    between atoms: N_2  and  S_21
REMARK    4  A    between atoms: C_6  and  C_7
REMARK    5  A    between atoms: S_21  and  C_22
REMARK                            x       y       z     vdW  Elec       q    Type
REMARK                         _______ _______ _______ _____ _____    ______ ____
ROOT
ATOM      1  C   UNL     1       2.825   6.171  18.987  0.00  0.00    +0.000 A 
ATOM      2  C   UNL     1       3.043   6.864  17.792  0.00  0.00    +0.000 A 
ATOM      3  C   UNL     1       2.623   8.199  17.653  0.00  0.00    +0.000 A 
ATOM      4  C   UNL     1       1.983   8.852  18.713  0.00  0.00    +0.000 A 
ATOM      5  C   UNL     1       1.751   8.138  19.902  0.00  0.00    +0.000 A 
ATOM      6  C   UNL     1       2.176   6.811  20.041  0.00  0.00    +0.000 A 
ENDROOT
BRANCH   4   7
ATOM      7  C   UNL     1       1.324  10.184  18.558  0.00  0.00    +0.000 C 
ATOM      8  O   UNL     1       2.059  11.174  18.592  0.00  0.00    +0.000 OA
ATOM      9  N   UNL     1      -0.067  10.313  18.511  0.00  0.00    +0.000 N 
ATOM     10  C   UNL     1      -0.593  11.640  18.847  0.00  0.00    +0.000 C 
ATOM     11  C   UNL     1      -2.059  11.557  19.266  0.00  0.00    +0.000 C 
ATOM     12  C   UNL     1      -2.813  11.126  18.038  0.00  0.00    +0.000 A 
ATOM     13  C   UNL     1      -3.987  11.777  17.646  0.00  0.00    +0.000 A 
ATOM     14  C   UNL     1      -4.536  11.506  16.398  0.00  0.00    +0.000 A 
ATOM     15  C   UNL     1      -3.928  10.571  15.559  0.00  0.00    +0.000 A 
ATOM     16  C   UNL     1      -2.786   9.871  15.977  0.00  0.00    +0.000 A 
ATOM     17  C   UNL     1      -2.212  10.142  17.223  0.00  0.00    +0.000 A 
ATOM     18  C   UNL     1      -0.956   9.432  17.725  0.00  0.00    +0.000 C 
ENDBRANCH   4   7
BRANCH   1  20
ATOM     19  C   UNL     1       2.231   3.732  18.975  0.00  0.00    +0.000 C 
ATOM     20  N   UNL     1       3.218   4.806  19.145  0.00  0.00    +0.000 N 
BRANCH  20  21
ATOM     21  S   UNL     1       4.855   4.402  19.101  0.00  0.00    +0.000 S 
ATOM     22  C   UNL     1       5.145   4.235  17.352  0.00  0.00    +0.000 C 
ATOM     23  O   UNL     1       5.639   5.522  19.575  0.00  0.00    +0.000 OA
ATOM     24  O   UNL     1       5.006   3.086  19.690  0.00  0.00    +0.000 OA
ENDBRANCH  20  21
ENDBRANCH   1  20
TORSDOF 3
ENDMDL
MODEL 3
REMARK VINA RESULT:      -7.5      3.004      8.254
REMARK  Name = 
REMARK  5 active torsions:
REMARK  status: ('A' for Active; 'I' for Inactive)
REMARK    1  A    between atoms: C_1  and  N_2
REMARK    2  A    between atoms: N_2  and  C_3
REMARK    3  A    between atoms: N_2  and  S_21
REMARK    4  A    between atoms: C_6  and  C_7
REMARK    5  A    between atoms: S_21  and  C_22
REMARK                            x       y       z     vdW  Elec       q    Type
REMARK                         _______ _______ _______ _____ _____    ______ ____
ROOT
ATOM      1  C   UNL     1       0.489  10.153  19.848  0.00  0.00    +0.000 A 
ATOM      2  C   UNL     1       0.581   9.343  20.985  0.00  0.00    +0.000 A 
ATOM      3  C   UNL     1       1.303   8.136  20.946  0.00  0.00    +0.000 A 
ATOM      4  C   UNL     1       1.940   7.732  19.767  0.00  0.00    +0.000 A 
ATOM      5  C   UNL     1       1.822   8.544  18.625  0.00  0.00    +0.000 A 
ATOM      6  C   UNL     1       1.109   9.749  18.668  0.00  0.00    +0.000 A 
ENDROOT
BRANCH   4   7
ATOM      7  C   UNL     1       2.532   6.371  19.597  0.00  0.00    +0.000 C 
ATOM      8  O   UNL     1       1.919   5.432  20.111  0.00  0.00    +0.000 OA
ATOM      9  N   UNL     1       3.782   6.184  19.002  0.00  0.00    +0.000 N 
ATOM     10  C   UNL     1       4.456   4.922  19.323  0.00  0.00    +0.000 C 
ATOM     11  C   UNL     1       5.959   5.025  19.074  0.00  0.00    +0.000 C 
ATOM     12  C   UNL     1       6.117   5.197  17.588  0.00  0.00    +0.000 A 
ATOM     13  C   UNL     1       7.050   4.443  16.869  0.00  0.00    +0.000 A 
ATOM     14  C   UNL     1       7.021   4.461  15.480  0.00  0.00    +0.000 A 
ATOM     15  C   UNL     1       6.081   5.249  14.814  0.00  0.00    +0.000 A 
ATOM     16  C   UNL     1       5.186   6.056  15.534  0.00  0.00    +0.000 A 
ATOM     17  C   UNL     1       5.191   6.038  16.932  0.00  0.00    +0.000 A 
ATOM     18  C   UNL     1       4.228   6.874  17.772  0.00  0.00    +0.000 C 
ENDBRANCH   4   7
BRANCH   1  20
ATOM     19  C   UNL     1       0.302  12.577  20.475  0.00  0.00    +0.000 C 
ATOM     20  N   UNL     1      -0.260  11.371  19.854  0.00  0.00    +0.000 N 
BRANCH  20  21
ATOM     21  S   UNL     1      -1.566  11.547  18.803  0.00  0.00    +0.000 S 
ATOM     22  C   UNL     1      -2.769  12.348  19.844  0.00  0.00    +0.000 C 
ATOM     23  O   UNL     1      -1.212  12.469  17.745  0.00  0.00    +0.000 OA
ATOM     24  O   UNL     1      -2.075  10.225  18.496  0.00  0.00    +0.000 OA
ENDBRANCH  20  21
ENDBRANCH   1  20
TORSDOF 3
ENDMDL
MODEL 4
REMARK VINA RESULT:      -7.5      2.984      8.425
REMARK  Name = 
REMARK  5 active torsions:
REMARK  status: ('A' for Active; 'I' for Inactive)
REMARK    1  A    between atoms: C_1  and  N_2
REMARK    2  A    between atoms: N_2  and  C_3
REMARK    3  A    between atoms: N_2  and  S_21
REMARK    4  A    between atoms: C_6  and  C_7
REMARK    5  A    between atoms: S_21  and  C_22
REMARK                            x       y       z     vdW  Elec       q    Type
REMARK                         _______ _______ _______ _____ _____    ______ ____
ROOT
ATOM      1  C   UNL     1       0.454  10.174  19.460  0.00  0.00    +0.000 A 
ATOM      2  C   UNL     1       0.587   9.461  20.656  0.00  0.00    +0.000 A 
ATOM      3  C   UNL     1       1.352   8.282  20.704  0.00  0.00    +0.000 A 
ATOM      4  C   UNL     1       1.991   7.808  19.552  0.00  0.00    +0.000 A 
ATOM      5  C   UNL     1       1.831   8.521  18.351  0.00  0.00    +0.000 A 
ATOM      6  C   UNL     1       1.076   9.700  18.307  0.00  0.00    +0.000 A 
ENDROOT
BRANCH   4   7
ATOM      7  C   UNL     1       2.631   6.459  19.483  0.00  0.00    +0.000 C 
ATOM      8  O   UNL     1       2.062   5.544  20.084  0.00  0.00    +0.000 OA
ATOM      9  N   UNL     1       3.878   6.269  18.882  0.00  0.00    +0.000 N 
ATOM     10  C   UNL     1       4.603   5.063  19.292  0.00  0.00    +0.000 C 
ATOM     11  C   UNL     1       6.097   5.199  19.007  0.00  0.00    +0.000 C 
ATOM     12  C   UNL     1       6.225   5.253  17.510  0.00  0.00    +0.000 A 
ATOM     13  C   UNL     1       7.174   4.476  16.837  0.00  0.00    +0.000 A 
ATOM     14  C   UNL     1       7.122   4.379  15.452  0.00  0.00    +0.000 A 
ATOM     15  C   UNL     1       6.143   5.075  14.742  0.00  0.00    +0.000 A 
ATOM     16  C   UNL     1       5.230   5.906  15.410  0.00  0.00    +0.000 A 
ATOM     17  C   UNL     1       5.259   6.003  16.804  0.00  0.00    +0.000 A 
ATOM     18  C   UNL     1       4.278   6.870  17.592  0.00  0.00    +0.000 C 
ENDBRANCH   4   7
BRANCH   1  20
ATOM     19  C   UNL     1      -1.745  11.279  18.961  0.00  0.00    +0.000 C 
ATOM     20  N   UNL     1      -0.339  11.361  19.379  0.00  0.00    +0.000 N 
BRANCH  20  21
ATOM     21  S   UNL     1       0.186  12.764  20.151  0.00  0.00    +0.000 S 
ATOM     22  C   UNL     1      -0.331  14.028  19.008  0.00  0.00    +0.000 C 
ATOM     23  O   UNL     1      -0.559  12.946  21.378  0.00  0.00    +0.000 OA
ATOM     24  O   UNL     1       1.635  12.756  20.156  0.00  0.00    +0.000 OA
ENDBRANCH  20  21
ENDBRANCH   1  20
TORSDOF 3
ENDMDL
MODEL 5
REMARK VINA RESULT:      -7.4      3.161      8.385
REMARK  Name = 
REMARK  5 active torsions:
REMARK  status: ('A' for Active; 'I' for Inactive)
REMARK    1  A    between atoms: C_1  and  N_2
REMARK    2  A    between atoms: N_2  and  C_3
REMARK    3  A    between atoms: N_2  and  S_21
REMARK    4  A    between atoms: C_6  and  C_7
REMARK    5  A    between atoms: S_21  and  C_22
REMARK                            x       y       z     vdW  Elec       q    Type
REMARK                         _______ _______ _______ _____ _____    ______ ____
ROOT
ATOM      1  C   UNL     1       0.854  10.390  19.486  0.00  0.00    +0.000 A 
ATOM      2  C   UNL     1       1.290   9.868  18.264  0.00  0.00    +0.000 A 
ATOM      3  C   UNL     1       1.791   8.557  18.185  0.00  0.00    +0.000 A 
ATOM      4  C   UNL     1       1.858   7.756  19.331  0.00  0.00    +0.000 A 
ATOM      5  C   UNL     1       1.437   8.299  20.557  0.00  0.00    +0.000 A 
ATOM      6  C   UNL     1       0.930   9.603  20.633  0.00  0.00    +0.000 A 
ENDROOT
BRANCH   4   7
ATOM      7  C   UNL     1       2.576   6.445  19.358  0.00  0.00    +0.000 C 
ATOM      8  O   UNL     1       2.051   5.540  20.008  0.00  0.00    +0.000 OA
ATOM      9  N   UNL     1       3.841   6.291  18.786  0.00  0.00    +0.000 N 
ATOM     10  C   UNL     1       4.628   5.158  19.284  0.00  0.00    +0.000 C 
ATOM     11  C   UNL     1       6.116   5.362  19.010  0.00  0.00    +0.000 C 
ATOM     12  C   UNL     1       6.266   5.328  17.514  0.00  0.00    +0.000 A 
ATOM     13  C   UNL     1       7.270   4.567  16.906  0.00  0.00    +0.000 A 
ATOM     14  C   UNL     1       7.247   4.378  15.529  0.00  0.00    +0.000 A 
ATOM     15  C   UNL     1       6.241   4.968  14.763  0.00  0.00    +0.000 A 
ATOM     16  C   UNL     1       5.271   5.785  15.364  0.00  0.00    +0.000 A 
ATOM     17  C   UNL     1       5.270   5.974  16.749  0.00  0.00    +0.000 A 
ATOM     18  C   UNL     1       4.228   6.830  17.465  0.00  0.00    +0.000 C 
ENDBRANCH   4   7
BRANCH   1  20
ATOM     19  C   UNL     1      -1.069  11.973  19.806  0.00  0.00    +0.000 C 
ATOM     20  N   UNL     1       0.364  11.729  19.598  0.00  0.00    +0.000 N 
BRANCH  20  21
ATOM     21  S   UNL     1       1.444  12.984  19.916  0.00  0.00    +0.000 S 
ATOM     22  C   UNL     1       0.380  14.411  19.842  0.00  0.00    +0.000 C 
ATOM     23  O   UNL     1       1.932  12.866  21.273  0.00  0.00    +0.000 OA
ATOM     24  O   UNL     1       2.364  13.075  18.800  0.00  0.00    +0.000 OA
ENDBRANCH  20  21
ENDBRANCH   1  20
TORSDOF 3
ENDMDL
MODEL 6
REMARK VINA RESULT:      -7.3      3.439      8.279
REMARK  Name = 
REMARK  5 active torsions:
REMARK  status: ('A' for Active; 'I' for Inactive)
REMARK    1  A    between atoms: C_1  and  N_2
REMARK    2  A    between atoms: N_2  and  C_3
REMARK    3  A    between atoms: N_2  and  S_21
REMARK    4  A    between atoms: C_6  and  C_7
REMARK    5  A    between atoms: S_21  and  C_22
REMARK                            x       y       z     vdW  Elec       q    Type
REMARK                         _______ _______ _______ _____ _____    ______ ____
ROOT
ATOM      1  C   UNL     1       0.904  10.333  19.962  0.00  0.00    +0.000 A 
ATOM      2  C   UNL     1       1.385   9.919  18.716  0.00  0.00    +0.000 A 
ATOM      3  C   UNL     1       1.862   8.608  18.534  0.00  0.00    +0.000 A 
ATOM      4  C   UNL     1       1.859   7.701  19.600  0.00  0.00    +0.000 A 
ATOM      5  C   UNL     1       1.393   8.136  20.853  0.00  0.00    +0.000 A 
ATOM      6  C   UNL     1       0.911   9.439  21.031  0.00  0.00    +0.000 A 
ENDROOT
BRANCH   4   7
ATOM      7  C   UNL     1       2.547   6.376  19.532  0.00  0.00    +0.000 C 
ATOM      8  O   UNL     1       2.010   5.442  20.131  0.00  0.00    +0.000 OA
ATOM      9  N   UNL     1       3.802   6.232  18.935  0.00  0.00    +0.000 N 
ATOM     10  C   UNL     1       4.569   5.052  19.348  0.00  0.00    +0.000 C 
ATOM     11  C   UNL     1       6.058   5.241  19.069  0.00  0.00    +0.000 C 
ATOM     12  C   UNL     1       6.189   5.301  17.572  0.00  0.00    +0.000 A 
ATOM     13  C   UNL     1       7.168   4.558  16.902  0.00  0.00    +0.000 A 
ATOM     14  C   UNL     1       7.125   4.460  15.517  0.00  0.00    +0.000 A 
ATOM     15  C   UNL     1       6.123   5.121  14.804  0.00  0.00    +0.000 A 
ATOM     16  C   UNL     1       5.179   5.918  15.469  0.00  0.00    +0.000 A 
ATOM     17  C   UNL     1       5.199   6.016  16.863  0.00  0.00    +0.000 A 
ATOM     18  C   UNL     1       4.185   6.847  17.647  0.00  0.00    +0.000 C 
ENDBRANCH   4   7
BRANCH   1  20
ATOM     19  C   UNL     1       1.349  12.804  19.997  0.00  0.00    +0.000 C 
ATOM     20  N   UNL     1       0.438  11.667  20.181  0.00  0.00    +0.000 N 
BRANCH  20  21
ATOM     21  S   UNL     1      -1.220  11.970  20.226  0.00  0.00    +0.000 S 
ATOM     22  C   UNL     1      -1.283  13.719  19.894  0.00  0.00    +0.000 C 
ATOM     23  O   UNL     1      -1.865  11.286  19.126  0.00  0.00    +0.000 OA
ATOM     24  O   UNL     1      -1.672  11.775  21.590  0.00  0.00    +0.000 OA
ENDBRANCH  20  21
ENDBRANCH   1  20
TORSDOF 3
ENDMDL
MODEL 7
REMARK VINA RESULT:      -7.3      2.905      4.092
REMARK  Name = 
REMARK  5 active torsions:
REMARK  status: ('A' for Active; 'I' for Inactive)
REMARK    1  A    between atoms: C_1  and  N_2
REMARK    2  A    between atoms: N_2  and  C_3
REMARK    3  A    between atoms: N_2  and  S_21
REMARK    4  A    between atoms: C_6  and  C_7
REMARK    5  A    between atoms: S_21  and  C_22
REMARK                            x       y       z     vdW  Elec       q    Type
REMARK                         _______ _______ _______ _____ _____    ______ ____
ROOT
ATOM      1  C   UNL     1       4.468   5.730  17.843  0.00  0.00    +0.000 A 
ATOM      2  C   UNL     1       3.932   5.266  19.048  0.00  0.00    +0.000 A 
ATOM      3  C   UNL     1       2.946   6.007  19.724  0.00  0.00    +0.000 A 
ATOM      4  C   UNL     1       2.487   7.218  19.196  0.00  0.00    +0.000 A 
ATOM      5  C   UNL     1       3.048   7.685  17.994  0.00  0.00    +0.000 A 
ATOM      6  C   UNL     1       4.025   6.942  17.318  0.00  0.00    +0.000 A 
ENDROOT
BRANCH   4   7
ATOM      7  C   UNL     1       1.609   8.152  19.964  0.00  0.00    +0.000 C 
ATOM      8  O   UNL     1       1.304   7.810  21.109  0.00  0.00    +0.000 OA
ATOM      9  N   UNL     1       1.054   9.290  19.373  0.00  0.00    +0.000 N 
ATOM     10  C   UNL     1      -0.134   9.836  20.039  0.00  0.00    +0.000 C 
ATOM     11  C   UNL     1      -0.943  10.709  19.083  0.00  0.00    +0.000 C 
ATOM     12  C   UNL     1      -0.074  11.898  18.778  0.00  0.00    +0.000 A 
ATOM     13  C   UNL     1      -0.585  13.199  18.827  0.00  0.00    +0.000 A 
ATOM     14  C   UNL     1       0.285  14.280  18.759  0.00  0.00    +0.000 A 
ATOM     15  C   UNL     1       1.656  14.061  18.618  0.00  0.00    +0.000 A 
ATOM     16  C   UNL     1       2.165  12.758  18.504  0.00  0.00    +0.000 A 
ATOM     17  C   UNL     1       1.305  11.658  18.585  0.00  0.00    +0.000 A 
ATOM     18  C   UNL     1       1.798  10.216  18.493  0.00  0.00    +0.000 C 
ENDBRANCH   4   7
BRANCH   1  20
ATOM     19  C   UNL     1       5.243   4.504  15.794  0.00  0.00    +0.000 C 
ATOM     20  N   UNL     1       5.490   5.009  17.150  0.00  0.00    +0.000 N 
BRANCH  20  21
ATOM     21  S   UNL     1       7.084   5.103  17.690  0.00  0.00    +0.000 S 
ATOM     22  C   UNL     1       7.414   6.849  17.559  0.00  0.00    +0.000 C 
ATOM     23  O   UNL     1       7.139   4.746  19.092  0.00  0.00    +0.000 OA
ATOM     24  O   UNL     1       7.925   4.432  16.719  0.00  0.00    +0.000 OA
ENDBRANCH  20  21
ENDBRANCH   1  20
TORSDOF 3
ENDMDL
MODEL 8
REMARK VINA RESULT:      -7.2      0.973      1.043
REMARK  Name = 
REMARK  5 active torsions:
REMARK  status: ('A' for Active; 'I' for Inactive)
REMARK    1  A    between atoms: C_1  and  N_2
REMARK    2  A    between atoms: N_2  and  C_3
REMARK    3  A    between atoms: N_2  and  S_21
REMARK    4  A    between atoms: C_6  and  C_7
REMARK    5  A    between atoms: S_21  and  C_22
REMARK                            x       y       z     vdW  Elec       q    Type
REMARK                         _______ _______ _______ _____ _____    ______ ____
ROOT
ATOM      1  C   UNL     1       2.541   6.930  19.095  0.00  0.00    +0.000 A 
ATOM      2  C   UNL     1       2.664   7.693  17.929  0.00  0.00    +0.000 A 
ATOM      3  C   UNL     1       2.173   9.010  17.882  0.00  0.00    +0.000 A 
ATOM      4  C   UNL     1       1.556   9.574  19.005  0.00  0.00    +0.000 A 
ATOM      5  C   UNL     1       1.420   8.789  20.164  0.00  0.00    +0.000 A 
ATOM      6  C   UNL     1       1.917   7.481  20.211  0.00  0.00    +0.000 A 
ENDROOT
BRANCH   4   7
ATOM      7  C   UNL     1       0.825  10.877  18.955  0.00  0.00    +0.000 C 
ATOM      8  O   UNL     1       1.512  11.900  19.005  0.00  0.00    +0.000 OA
ATOM      9  N   UNL     1      -0.570  10.935  18.983  0.00  0.00    +0.000 N 
ATOM     10  C   UNL     1      -1.143  12.215  19.414  0.00  0.00    +0.000 C 
ATOM     11  C   UNL     1      -2.580  12.035  19.899  0.00  0.00    +0.000 C 
ATOM     12  C   UNL     1      -3.374  11.629  18.688  0.00  0.00    +0.000 A 
ATOM     13  C   UNL     1      -4.597  12.237  18.388  0.00  0.00    +0.000 A 
ATOM     14  C   UNL     1      -5.195  12.002  17.156  0.00  0.00    +0.000 A 
ATOM     15  C   UNL     1      -4.586  11.144  16.239  0.00  0.00    +0.000 A 
ATOM     16  C   UNL     1      -3.391  10.483  16.563  0.00  0.00    +0.000 A 
ATOM     17  C   UNL     1      -2.768  10.719  17.792  0.00  0.00    +0.000 A 
ATOM     18  C   UNL     1      -1.455  10.051  18.194  0.00  0.00    +0.000 C 
ENDBRANCH   4   7
BRANCH   1  20
ATOM     19  C   UNL     1       4.395   5.300  19.555  0.00  0.00    +0.000 C 
ATOM     20  N   UNL     1       3.009   5.580  19.160  0.00  0.00    +0.000 N 
BRANCH  20  21
ATOM     21  S   UNL     1       1.893   4.317  19.204  0.00  0.00    +0.000 S 
ATOM     22  C   UNL     1       2.950   2.902  19.435  0.00  0.00    +0.000 C 
ATOM     23  O   UNL     1       1.064   4.447  20.382  0.00  0.00    +0.000 OA
ATOM     24  O   UNL     1       1.300   4.199  17.886  0.00  0.00    +0.000 OA
ENDBRANCH  20  21
ENDBRANCH   1  20
TORSDOF 3
ENDMDL
MODEL 9
REMARK VINA RESULT:      -7.2      3.049      8.210
REMARK  Name = 
REMARK  5 active torsions:
REMARK  status: ('A' for Active; 'I' for Inactive)
REMARK    1  A    between atoms: C_1  and  N_2
REMARK    2  A    between atoms: N_2  and  C_3
REMARK    3  A    between atoms: N_2  and  S_21
REMARK    4  A    between atoms: C_6  and  C_7
REMARK    5  A    between atoms: S_21  and  C_22
REMARK                            x       y       z     vdW  Elec       q    Type
REMARK                         _______ _______ _______ _____ _____    ______ ____
ROOT
ATOM      1  C   UNL     1       0.915  10.487  19.599  0.00  0.00    +0.000 A 
ATOM      2  C   UNL     1       1.420  10.014  18.384  0.00  0.00    +0.000 A 
ATOM      3  C   UNL     1       1.901   8.696  18.275  0.00  0.00    +0.000 A 
ATOM      4  C   UNL     1       1.876   7.842  19.383  0.00  0.00    +0.000 A 
ATOM      5  C   UNL     1       1.385   8.336  20.604  0.00  0.00    +0.000 A 
ATOM      6  C   UNL     1       0.900   9.646  20.709  0.00  0.00    +0.000 A 
ENDROOT
BRANCH   4   7
ATOM      7  C   UNL     1       2.564   6.515  19.393  0.00  0.00    +0.000 C 
ATOM      8  O   UNL     1       2.018   5.612  20.031  0.00  0.00    +0.000 OA
ATOM      9  N   UNL     1       3.828   6.341  18.822  0.00  0.00    +0.000 N 
ATOM     10  C   UNL     1       4.588   5.184  19.306  0.00  0.00    +0.000 C 
ATOM     11  C   UNL     1       6.081   5.359  19.038  0.00  0.00    +0.000 C 
ATOM     12  C   UNL     1       6.234   5.342  17.541  0.00  0.00    +0.000 A 
ATOM     13  C   UNL     1       7.221   4.567  16.925  0.00  0.00    +0.000 A 
ATOM     14  C   UNL     1       7.197   4.398  15.546  0.00  0.00    +0.000 A 
ATOM     15  C   UNL     1       6.206   5.021  14.786  0.00  0.00    +0.000 A 
ATOM     16  C   UNL     1       5.253   5.851  15.396  0.00  0.00    +0.000 A 
ATOM     17  C   UNL     1       5.253   6.020  16.783  0.00  0.00    +0.000 A 
ATOM     18  C   UNL     1       4.229   6.890  17.509  0.00  0.00    +0.000 C 
ENDBRANCH   4   7
BRANCH   1  20
ATOM     19  C   UNL     1       1.380  12.901  20.113  0.00  0.00    +0.000 C 
ATOM     20  N   UNL     1       0.445  11.830  19.744  0.00  0.00    +0.000 N 
BRANCH  20  21
ATOM     21  S   UNL     1      -1.048  12.262  19.091  0.00  0.00    +0.000 S 
ATOM     22  C   UNL     1      -1.715  10.678  18.621  0.00  0.00    +0.000 C 
ATOM     23  O   UNL     1      -1.891  12.805  20.135  0.00  0.00    +0.000 OA
ATOM     24  O   UNL     1      -0.805  13.005  17.871  0.00  0.00    +0.000 OA
ENDBRANCH  20  21
ENDBRANCH   1  20
TORSDOF 3
ENDMDL
